# DDEC6 charges by PACMAN v1.1 (https://github.com/mtap-research/PACMAN-charge/)
data_2005[Cu][nbo]3[ASR]2
_chemical_formula_sum              "Cu6 H18 C48 O24"
_cell_length_a       13.4807
_cell_length_b       13.4807
_cell_length_c       13.4807
_cell_angle_alpha    86.5535
_cell_angle_beta     86.5535
_cell_angle_gamma    86.5535

_symmetry_space_group_name_H-M    "P 1"
_symmetry_Int_Tables_number       1

loop_
  _symmetry_equiv_pos_as_xyz
  'x, y, z'

loop_
  _atom_site_type_symbol
  _atom_site_label
  _atom_site_symmetry_multiplicity
  _atom_site_fract_x
  _atom_site_fract_y
  _atom_site_fract_z
  _atom_site_occupancy
  _atom_site_charge
Cu  Cu1       1.0  0.40829  0.98025  0.98025  1.0000 0.8580965269
Cu  Cu2       1.0  0.98025  0.98025  0.40829  1.0000 0.8580965269
Cu  Cu3       1.0  0.98025  0.40829  0.98025  1.0000 0.8580965269
Cu  Cu4       1.0  0.59171  0.01975  0.01975  1.0000 0.8580965269
Cu  Cu5       1.0  0.01975  0.59171  0.01975  1.0000 0.8580965269
Cu  Cu6       1.0  0.01975  0.01975  0.59171  1.0000 0.8580965269
H   H1        1.0  0.55850  0.00010  0.34020  1.0000 0.1237972993
H   H2        1.0  0.00010  0.34020  0.55850  1.0000 0.1237972993
H   H3        1.0  0.34020  0.55850  0.00010  1.0000 0.1237972993
H   H4        1.0  0.44150  0.65980  0.99990  1.0000 0.1237972993
H   H5        1.0  0.99990  0.44150  0.65980  1.0000 0.1237972993
H   H6        1.0  0.65980  0.99990  0.44150  1.0000 0.1237972993
H   H7        1.0  0.44150  0.99990  0.65980  1.0000 0.1237972993
H   H8        1.0  0.99990  0.65980  0.44150  1.0000 0.1237972993
H   H9        1.0  0.65980  0.44150  0.99990  1.0000 0.1237972993
H   H10       1.0  0.55850  0.34020  0.00010  1.0000 0.1237972993
H   H11       1.0  0.00010  0.55850  0.34020  1.0000 0.1237972993
H   H12       1.0  0.34020  0.00010  0.55850  1.0000 0.1237972993
H   H13       1.0  0.27220  0.98420  0.27220  1.0000 0.1388752926
H   H14       1.0  0.98420  0.27220  0.27220  1.0000 0.1388752926
H   H15       1.0  0.27220  0.27220  0.98420  1.0000 0.1388752926
H   H16       1.0  0.72780  0.72780  0.01580  1.0000 0.1388752926
H   H17       1.0  0.01580  0.72780  0.72780  1.0000 0.1388752926
H   H18       1.0  0.72780  0.01580  0.72780  1.0000 0.1388752926
C   C1        1.0  0.45165  0.99266  0.18245  1.0000 0.5808164943
C   C2        1.0  0.99266  0.18245  0.45165  1.0000 0.5808164943
C   C3        1.0  0.18245  0.45165  0.99266  1.0000 0.5808164943
C   C4        1.0  0.54835  0.81755  0.00734  1.0000 0.5808164943
C   C5        1.0  0.00734  0.54835  0.81755  1.0000 0.5808164943
C   C6        1.0  0.81755  0.00734  0.54835  1.0000 0.5808164943
C   C7        1.0  0.54835  0.00734  0.81755  1.0000 0.5808164943
C   C8        1.0  0.00734  0.81755  0.54835  1.0000 0.5808164943
C   C9        1.0  0.81755  0.54835  0.00734  1.0000 0.5808164943
C   C10       1.0  0.45165  0.18245  0.99266  1.0000 0.5808164943
C   C11       1.0  0.99266  0.45165  0.18245  1.0000 0.5808164943
C   C12       1.0  0.18245  0.99266  0.45165  1.0000 0.5808164943
C   C13       1.0  0.49004  0.99778  0.36094  1.0000 -0.1355210226
C   C14       1.0  0.99778  0.36094  0.49004  1.0000 -0.1355210226
C   C15       1.0  0.36094  0.49004  0.99778  1.0000 -0.1355210226
C   C16       1.0  0.50996  0.63906  0.00222  1.0000 -0.1355210226
C   C17       1.0  0.00222  0.50996  0.63906  1.0000 -0.1355210226
C   C18       1.0  0.63906  0.00222  0.50996  1.0000 -0.1355210226
C   C19       1.0  0.50996  0.00222  0.63906  1.0000 -0.1355210226
C   C20       1.0  0.00222  0.63906  0.50996  1.0000 -0.1355210226
C   C21       1.0  0.63906  0.50996  0.00222  1.0000 -0.1355210226
C   C22       1.0  0.49004  0.36094  0.99778  1.0000 -0.1355210226
C   C23       1.0  0.99778  0.49004  0.36094  1.0000 -0.1355210226
C   C24       1.0  0.36094  0.99778  0.49004  1.0000 -0.1355210226
C   C25       1.0  0.46144  0.99944  0.46144  1.0000 0.0707707523
C   C26       1.0  0.99944  0.46144  0.46144  1.0000 0.0707707523
C   C27       1.0  0.46144  0.46144  0.99944  1.0000 0.0707707523
C   C28       1.0  0.53856  0.53856  0.00056  1.0000 0.0707707523
C   C29       1.0  0.00056  0.53856  0.53856  1.0000 0.0707707523
C   C30       1.0  0.53856  0.00056  0.53856  1.0000 0.0707707523
C   C31       1.0  0.42031  0.99283  0.29045  1.0000 -0.0187636667
C   C32       1.0  0.99283  0.29045  0.42031  1.0000 -0.0187636667
C   C33       1.0  0.29045  0.42031  0.99283  1.0000 -0.0187636667
C   C34       1.0  0.57969  0.70955  0.00717  1.0000 -0.0187636667
C   C35       1.0  0.00717  0.57969  0.70955  1.0000 -0.0187636667
C   C36       1.0  0.70955  0.00717  0.57969  1.0000 -0.0187636667
C   C37       1.0  0.57969  0.00717  0.70955  1.0000 -0.0187636667
C   C38       1.0  0.00717  0.70955  0.57969  1.0000 -0.0187636667
C   C39       1.0  0.70955  0.57969  0.00717  1.0000 -0.0187636667
C   C40       1.0  0.42031  0.29045  0.99283  1.0000 -0.0187636667
C   C41       1.0  0.99283  0.42031  0.29045  1.0000 -0.0187636667
C   C42       1.0  0.29045  0.99283  0.42031  1.0000 -0.0187636667
C   C43       1.0  0.32017  0.98912  0.32017  1.0000 -0.0959909392
C   C44       1.0  0.98912  0.32017  0.32017  1.0000 -0.0959909392
C   C45       1.0  0.32017  0.32017  0.98912  1.0000 -0.0959909392
C   C46       1.0  0.67983  0.67983  0.01088  1.0000 -0.0959909392
C   C47       1.0  0.01088  0.67983  0.67983  1.0000 -0.0959909392
C   C48       1.0  0.67983  0.01088  0.67983  1.0000 -0.0959909392
O   O1        1.0  0.38598  0.97698  0.12421  1.0000 -0.5181024603
O   O2        1.0  0.97698  0.12421  0.38598  1.0000 -0.5181024603
O   O3        1.0  0.12421  0.38598  0.97698  1.0000 -0.5181024603
O   O4        1.0  0.61402  0.87579  0.02302  1.0000 -0.5181024603
O   O5        1.0  0.02302  0.61402  0.87579  1.0000 -0.5181024603
O   O6        1.0  0.87579  0.02302  0.61402  1.0000 -0.5181024603
O   O7        1.0  0.61402  0.02302  0.87579  1.0000 -0.5181024603
O   O8        1.0  0.02302  0.87579  0.61402  1.0000 -0.5181024603
O   O9        1.0  0.87579  0.61402  0.02302  1.0000 -0.5181024603
O   O10       1.0  0.38598  0.12421  0.97698  1.0000 -0.5181024603
O   O11       1.0  0.97698  0.38598  0.12421  1.0000 -0.5181024603
O   O12       1.0  0.12421  0.97698  0.38598  1.0000 -0.5181024603
O   O13       1.0  0.54065  0.00990  0.15850  1.0000 -0.5181024603
O   O14       1.0  0.00990  0.15850  0.54065  1.0000 -0.5181024603
O   O15       1.0  0.15850  0.54065  0.00990  1.0000 -0.5181024603
O   O16       1.0  0.45935  0.84150  0.99010  1.0000 -0.5181024603
O   O17       1.0  0.99010  0.45935  0.84150  1.0000 -0.5181024603
O   O18       1.0  0.84150  0.99010  0.45935  1.0000 -0.5181024603
O   O19       1.0  0.45935  0.99010  0.84150  1.0000 -0.5181024603
O   O20       1.0  0.99010  0.84150  0.45935  1.0000 -0.5181024603
O   O21       1.0  0.84150  0.45935  0.99010  1.0000 -0.5181024603
O   O22       1.0  0.54065  0.15850  0.00990  1.0000 -0.5181024603
O   O23       1.0  0.00990  0.54065  0.15850  1.0000 -0.5181024603
O   O24       1.0  0.15850  0.00990  0.54065  1.0000 -0.5181024603
