# DDEC6 charges by PACMAN v1.1 (https://github.com/mtap-research/PACMAN-charge/)
data_2005[Ag][pts]3[ASR]2
_chemical_formula_sum              "Ag4 H24 C40 N24 O4"
_cell_length_a       10.8706
_cell_length_b       10.8706
_cell_length_c       13.959
_cell_angle_alpha    90
_cell_angle_beta     90
_cell_angle_gamma    90

_symmetry_space_group_name_H-M    "P 1"
_symmetry_Int_Tables_number       1

loop_
  _symmetry_equiv_pos_as_xyz
  'x, y, z'

loop_
  _atom_site_type_symbol
  _atom_site_label
  _atom_site_symmetry_multiplicity
  _atom_site_fract_x
  _atom_site_fract_y
  _atom_site_fract_z
  _atom_site_occupancy
  _atom_site_charge
Ag  Ag1       1.0  0.50000  0.50000  0.18513  1.0000 0.2586039296
Ag  Ag2       1.0  0.00000  0.00000  0.68513  1.0000 0.2586039296
Ag  Ag3       1.0  0.50000  0.50000  0.81487  1.0000 0.2586039296
Ag  Ag4       1.0  0.00000  0.00000  0.31487  1.0000 0.2586039296
H   H1        1.0  0.85130  0.14870  0.13460  1.0000 0.1204852137
H   H2        1.0  0.35130  0.35130  0.63460  1.0000 0.1204852137
H   H3        1.0  0.64870  0.64870  0.63460  1.0000 0.1204852137
H   H4        1.0  0.14870  0.85130  0.86540  1.0000 0.1204852137
H   H5        1.0  0.14870  0.85130  0.13460  1.0000 0.1204852137
H   H6        1.0  0.64870  0.64870  0.36540  1.0000 0.1204852137
H   H7        1.0  0.35130  0.35130  0.36540  1.0000 0.1204852137
H   H8        1.0  0.85130  0.14870  0.86540  1.0000 0.1204852137
H   H9        1.0  0.81290  0.18710  0.40820  1.0000 0.1076580092
H   H10       1.0  0.31290  0.31290  0.90820  1.0000 0.1076580092
H   H11       1.0  0.68710  0.68710  0.90820  1.0000 0.1076580092
H   H12       1.0  0.18710  0.81290  0.59180  1.0000 0.1076580092
H   H13       1.0  0.18710  0.81290  0.40820  1.0000 0.1076580092
H   H14       1.0  0.68710  0.68710  0.09180  1.0000 0.1076580092
H   H15       1.0  0.31290  0.31290  0.09180  1.0000 0.1076580092
H   H16       1.0  0.81290  0.18710  0.59180  1.0000 0.1076580092
H   H17       1.0  0.66730  0.33270  0.38320  1.0000 0.1076580092
H   H18       1.0  0.16730  0.16730  0.88320  1.0000 0.1076580092
H   H19       1.0  0.83270  0.83270  0.88320  1.0000 0.1076580092
H   H20       1.0  0.33270  0.66730  0.61680  1.0000 0.1076580092
H   H21       1.0  0.33270  0.66730  0.38320  1.0000 0.1076580092
H   H22       1.0  0.83270  0.83270  0.11680  1.0000 0.1076580092
H   H23       1.0  0.16730  0.16730  0.11680  1.0000 0.1076580092
H   H24       1.0  0.66730  0.33270  0.61680  1.0000 0.1076580092
C   C1        1.0  0.68940  0.31060  0.07530  1.0000 0.2586039296
C   C2        1.0  0.18940  0.18940  0.57530  1.0000 0.2586039296
C   C3        1.0  0.81060  0.81060  0.57530  1.0000 0.2586039296
C   C4        1.0  0.31060  0.68940  0.92470  1.0000 0.2586039296
C   C5        1.0  0.31060  0.68940  0.07530  1.0000 0.2586039296
C   C6        1.0  0.81060  0.81060  0.42470  1.0000 0.2586039296
C   C7        1.0  0.18940  0.18940  0.42470  1.0000 0.2586039296
C   C8        1.0  0.68940  0.31060  0.92470  1.0000 0.2586039296
C   C9        1.0  0.72650  0.27350  0.17190  1.0000 0.0794674485
C   C10       1.0  0.22650  0.22650  0.67190  1.0000 0.0794674485
C   C11       1.0  0.77350  0.77350  0.67190  1.0000 0.0794674485
C   C12       1.0  0.27350  0.72650  0.82810  1.0000 0.0794674485
C   C13       1.0  0.27350  0.72650  0.17190  1.0000 0.0794674485
C   C14       1.0  0.77350  0.77350  0.32810  1.0000 0.0794674485
C   C15       1.0  0.22650  0.22650  0.32810  1.0000 0.0794674485
C   C16       1.0  0.72650  0.27350  0.82810  1.0000 0.0794674485
C   C17       1.0  0.81440  0.18560  0.18740  1.0000 -0.0679998928
C   C18       1.0  0.31440  0.31440  0.68740  1.0000 -0.0679998928
C   C19       1.0  0.68560  0.68560  0.68740  1.0000 -0.0679998928
C   C20       1.0  0.18560  0.81440  0.81260  1.0000 -0.0679998928
C   C21       1.0  0.18560  0.81440  0.18740  1.0000 -0.0679998928
C   C22       1.0  0.68560  0.68560  0.31260  1.0000 -0.0679998928
C   C23       1.0  0.31440  0.31440  0.31260  1.0000 -0.0679998928
C   C24       1.0  0.81440  0.18560  0.81260  1.0000 -0.0679998928
C   C25       1.0  0.79260  0.20740  0.34550  1.0000 -0.0268815094
C   C26       1.0  0.29260  0.29260  0.84550  1.0000 -0.0268815094
C   C27       1.0  0.70740  0.70740  0.84550  1.0000 -0.0268815094
C   C28       1.0  0.20740  0.79260  0.65450  1.0000 -0.0268815094
C   C29       1.0  0.20740  0.79260  0.34550  1.0000 -0.0268815094
C   C30       1.0  0.70740  0.70740  0.15450  1.0000 -0.0268815094
C   C31       1.0  0.29260  0.29260  0.15450  1.0000 -0.0268815094
C   C32       1.0  0.79260  0.20740  0.65450  1.0000 -0.0268815094
C   C33       1.0  0.70410  0.29590  0.33030  1.0000 -0.0177225546
C   C34       1.0  0.20410  0.20410  0.83030  1.0000 -0.0177225546
C   C35       1.0  0.79590  0.79590  0.83030  1.0000 -0.0177225546
C   C36       1.0  0.29590  0.70410  0.66970  1.0000 -0.0177225546
C   C37       1.0  0.29590  0.70410  0.33030  1.0000 -0.0177225546
C   C38       1.0  0.79590  0.79590  0.16970  1.0000 -0.0177225546
C   C39       1.0  0.20410  0.20410  0.16970  1.0000 -0.0177225546
C   C40       1.0  0.70410  0.29590  0.66970  1.0000 -0.0177225546
N   N1        1.0  0.60840  0.39160  0.04980  1.0000 -0.2178395939
N   N2        1.0  0.10840  0.10840  0.54980  1.0000 -0.2178395939
N   N3        1.0  0.89160  0.89160  0.54980  1.0000 -0.2178395939
N   N4        1.0  0.39160  0.60840  0.95020  1.0000 -0.2178395939
N   N5        1.0  0.39160  0.60840  0.04980  1.0000 -0.2178395939
N   N6        1.0  0.89160  0.89160  0.45020  1.0000 -0.2178395939
N   N7        1.0  0.10840  0.10840  0.45020  1.0000 -0.2178395939
N   N8        1.0  0.60840  0.39160  0.95020  1.0000 -0.2178395939
N   N9        1.0  0.85000  0.15000  0.27530  1.0000 -0.1574765675
N   N10       1.0  0.35000  0.35000  0.77530  1.0000 -0.1574765675
N   N11       1.0  0.65000  0.65000  0.77530  1.0000 -0.1574765675
N   N12       1.0  0.15000  0.85000  0.72470  1.0000 -0.1574765675
N   N13       1.0  0.15000  0.85000  0.27530  1.0000 -0.1574765675
N   N14       1.0  0.65000  0.65000  0.22470  1.0000 -0.1574765675
N   N15       1.0  0.35000  0.35000  0.22470  1.0000 -0.1574765675
N   N16       1.0  0.85000  0.15000  0.72470  1.0000 -0.1574765675
N   N17       1.0  0.66920  0.33080  0.24350  1.0000 -0.2178395939
N   N18       1.0  0.16920  0.16920  0.74350  1.0000 -0.2178395939
N   N19       1.0  0.83080  0.83080  0.74350  1.0000 -0.2178395939
N   N20       1.0  0.33080  0.66920  0.75650  1.0000 -0.2178395939
N   N21       1.0  0.33080  0.66920  0.24350  1.0000 -0.2178395939
N   N22       1.0  0.83080  0.83080  0.25650  1.0000 -0.2178395939
N   N23       1.0  0.16920  0.16920  0.25650  1.0000 -0.2178395939
N   N24       1.0  0.66920  0.33080  0.75650  1.0000 -0.2178395939
O   O1        1.0  0.74380  0.25620  0.00000  1.0000 -0.1948297256
O   O2        1.0  0.24380  0.24380  0.50000  1.0000 -0.1948297256
O   O3        1.0  0.75620  0.75620  0.50000  1.0000 -0.1948297256
O   O4        1.0  0.25620  0.74380  0.00000  1.0000 -0.1948297256
