# DDEC6 charges by PACMAN v1.1 (https://github.com/mtap-research/PACMAN-charge/)
data_2005[Mn][lvt]2[ASR]2
_chemical_formula_sum              "Mn24 H264 C312 N64 O72"
_cell_length_a       29.79
_cell_length_b       29.79
_cell_length_c       29.79
_cell_angle_alpha    95.1037
_cell_angle_beta     95.1037
_cell_angle_gamma    145.294

_symmetry_space_group_name_H-M    "P 1"
_symmetry_Int_Tables_number       1

loop_
  _symmetry_equiv_pos_as_xyz
  'x, y, z'

loop_
  _atom_site_type_symbol
  _atom_site_label
  _atom_site_symmetry_multiplicity
  _atom_site_fract_x
  _atom_site_fract_y
  _atom_site_fract_z
  _atom_site_occupancy
  _atom_site_charge
Mn  Mn1       1.0  0.83504  0.15909  0.24501  1.0000 0.8814215798
Mn  Mn2       1.0  0.84004  0.58504  0.17595  1.0000 0.8740483859
Mn  Mn3       1.0  0.40909  0.66409  0.82405  1.0000 0.8814215798
Mn  Mn4       1.0  0.91409  0.59003  0.75499  1.0000 0.8814215798
Mn  Mn5       1.0  0.41496  0.59091  0.25500  1.0000 0.8814215798
Mn  Mn6       1.0  0.40997  0.16496  0.32405  1.0000 0.8814215798
Mn  Mn7       1.0  0.84091  0.08592  0.67595  1.0000 0.8740483859
Mn  Mn8       1.0  0.33592  0.15997  0.74501  1.0000 0.8814215798
Mn  Mn9       1.0  0.54678  0.93877  0.16505  1.0000 0.8522257486
Mn  Mn10      1.0  0.63174  0.29678  0.10801  1.0000 0.8522257486
Mn  Mn11      1.0  0.18877  0.52372  0.89199  1.0000 0.8591644206
Mn  Mn12      1.0  0.77372  0.38173  0.83496  1.0000 0.8591644206
Mn  Mn13      1.0  0.70322  0.81123  0.33496  1.0000 0.8522257486
Mn  Mn14      1.0  0.61826  0.45322  0.39199  1.0000 0.8522257486
Mn  Mn15      1.0  0.06123  0.22628  0.60801  1.0000 0.8522257486
Mn  Mn16      1.0  0.47628  0.36827  0.66504  1.0000 0.8591644206
Mn  Mn17      1.0  0.86683  0.08566  0.37023  1.0000 0.9069360459
Mn  Mn18      1.0  0.74660  0.61683  0.28117  1.0000 0.9069360459
Mn  Mn19      1.0  0.33566  0.46544  0.71883  1.0000 0.9069360459
Mn  Mn20      1.0  0.71544  0.49661  0.62977  1.0000 0.9069360459
Mn  Mn21      1.0  0.38317  0.66434  0.12978  1.0000 0.9069360459
Mn  Mn22      1.0  0.50340  0.13317  0.21883  1.0000 0.9069360459
Mn  Mn23      1.0  0.91434  0.28457  0.78117  1.0000 0.9069360459
Mn  Mn24      1.0  0.53456  0.25339  0.87023  1.0000 0.9069360459
H   H1        1.0  0.92780  0.36509  0.31890  1.0000 0.1402154197
H   H2        1.0  0.85890  0.67780  0.06271  1.0000 0.1402154197
H   H3        1.0  0.61509  0.79619  0.93729  1.0000 0.1402154197
H   H4        1.0  0.04619  0.60889  0.68110  1.0000 0.1402154197
H   H5        1.0  0.32220  0.38491  0.18110  1.0000 0.1402154197
H   H6        1.0  0.39110  0.07220  0.43729  1.0000 0.1402154197
H   H7        1.0  0.63491  0.95381  0.56271  1.0000 0.1402154197
H   H8        1.0  0.20382  0.14111  0.81890  1.0000 0.1402154197
H   H9        1.0  0.86850  0.38499  0.32011  1.0000 0.1101233624
H   H10       1.0  0.79840  0.61850  0.98351  1.0000 0.1101233624
H   H11       1.0  0.63499  0.81488  0.01649  1.0000 0.1101233624
H   H12       1.0  0.06488  0.54839  0.67990  1.0000 0.1101233624
H   H13       1.0  0.38150  0.36501  0.17989  1.0000 0.1101233624
H   H14       1.0  0.45161  0.13150  0.51649  1.0000 0.1101233624
H   H15       1.0  0.61501  0.93512  0.48351  1.0000 0.1101233624
H   H16       1.0  0.18511  0.20160  0.82010  1.0000 0.1101233624
H   H17       1.0  0.73100  0.28149  0.27831  1.0000 0.1305449043
H   H18       1.0  0.70269  0.48100  0.94951  1.0000 0.1305449043
H   H19       1.0  0.53149  0.75319  0.05049  1.0000 0.1305449043
H   H20       1.0  0.00318  0.45269  0.72169  1.0000 0.1305449043
H   H21       1.0  0.51900  0.46851  0.22170  1.0000 0.1305449043
H   H22       1.0  0.54731  0.26900  0.55049  1.0000 0.1305449043
H   H23       1.0  0.71851  0.99682  0.44951  1.0000 0.1305449043
H   H24       1.0  0.24682  0.29730  0.77831  1.0000 0.1305449043
H   H25       1.0  0.65220  0.15279  0.23720  1.0000 0.120082079
H   H26       1.0  0.66500  0.40220  0.99941  1.0000 0.120082079
H   H27       1.0  0.40279  0.66558  0.00059  1.0000 0.120082079
H   H28       1.0  0.91558  0.41500  0.76280  1.0000 0.120082079
H   H29       1.0  0.59780  0.59721  0.26280  1.0000 0.120082079
H   H30       1.0  0.58500  0.34780  0.50059  1.0000 0.120082079
H   H31       1.0  0.84721  0.08442  0.49941  1.0000 0.120082079
H   H32       1.0  0.33442  0.33501  0.73720  1.0000 0.120082079
H   H33       1.0  0.64940  0.89889  0.16270  1.0000 0.1693875625
H   H34       1.0  0.73669  0.39940  0.25051  1.0000 0.1693875625
H   H35       1.0  0.14889  0.48618  0.74949  1.0000 0.1693875625
H   H36       1.0  0.73618  0.48670  0.83730  1.0000 0.1693875625
H   H37       1.0  0.60060  0.85111  0.33729  1.0000 0.1693875625
H   H38       1.0  0.51331  0.35060  0.24949  1.0000 0.1693875625
H   H39       1.0  0.10111  0.26382  0.75051  1.0000 0.1693875625
H   H40       1.0  0.51382  0.26331  0.66270  1.0000 0.1693875625
H   H41       1.0  0.61900  0.90799  0.12301  1.0000 0.1693875625
H   H42       1.0  0.74599  0.36900  0.21101  1.0000 0.1693875625
H   H43       1.0  0.15799  0.53499  0.78899  1.0000 0.1693875625
H   H44       1.0  0.78499  0.49600  0.87699  1.0000 0.1693875625
H   H45       1.0  0.63100  0.84201  0.37700  1.0000 0.1693875625
H   H46       1.0  0.50401  0.38100  0.28899  1.0000 0.1693875625
H   H47       1.0  0.09201  0.21501  0.71101  1.0000 0.1693875625
H   H48       1.0  0.46502  0.25400  0.62301  1.0000 0.1693875625
H   H49       1.0  0.70440  0.95329  0.12871  1.0000 0.1693875625
H   H50       1.0  0.82569  0.45440  0.25111  1.0000 0.1693875625
H   H51       1.0  0.20329  0.57459  0.74889  1.0000 0.1693875625
H   H52       1.0  0.82459  0.57569  0.87130  1.0000 0.1693875625
H   H53       1.0  0.54560  0.79671  0.37129  1.0000 0.1693875625
H   H54       1.0  0.42430  0.29560  0.24889  1.0000 0.1693875625
H   H55       1.0  0.04671  0.17541  0.75111  1.0000 0.1693875625
H   H56       1.0  0.42541  0.17430  0.62870  1.0000 0.1693875625
H   H57       1.0  0.85390  0.25219  0.18071  1.0000 0.1101233624
H   H58       1.0  0.92319  0.60390  0.10171  1.0000 0.1101233624
H   H59       1.0  0.50219  0.82149  0.89829  1.0000 0.1101233624
H   H60       1.0  0.07149  0.67320  0.81930  1.0000 0.1101233624
H   H61       1.0  0.39610  0.49781  0.31929  1.0000 0.1101233624
H   H62       1.0  0.32681  0.14610  0.39829  1.0000 0.1101233624
H   H63       1.0  0.74781  0.92852  0.60171  1.0000 0.1101233624
H   H64       1.0  0.17852  0.07681  0.68071  1.0000 0.1101233624
H   H65       1.0  0.89800  0.29979  0.11560  1.0000 0.1402154197
H   H66       1.0  0.03240  0.64800  0.09821  1.0000 0.1402154197
H   H67       1.0  0.54979  0.93419  0.90179  1.0000 0.1402154197
H   H68       1.0  0.18419  0.78239  0.88440  1.0000 0.1402154197
H   H69       1.0  0.35200  0.45021  0.38440  1.0000 0.1402154197
H   H70       1.0  0.21761  0.10200  0.40179  1.0000 0.1402154197
H   H71       1.0  0.70021  0.81581  0.59821  1.0000 0.1402154197
H   H72       1.0  0.06581  0.96761  0.61560  1.0000 0.1402154197
H   H73       1.0  0.98620  0.24939  0.11740  1.0000 0.1402154197
H   H74       1.0  0.11880  0.73620  0.23681  1.0000 0.1402154197
H   H75       1.0  0.49939  0.88199  0.76319  1.0000 0.1402154197
H   H76       1.0  0.13198  0.86879  0.88260  1.0000 0.1402154197
H   H77       1.0  0.26380  0.50061  0.38260  1.0000 0.1402154197
H   H78       1.0  0.13121  0.01380  0.26319  1.0000 0.1402154197
H   H79       1.0  0.75061  0.86801  0.73681  1.0000 0.1402154197
H   H80       1.0  0.11801  0.88121  0.61740  1.0000 0.1402154197
H   H81       1.0  0.93630  0.19769  0.18180  1.0000 0.1101233624
H   H82       1.0  0.00449  0.68630  0.23861  1.0000 0.1101233624
H   H83       1.0  0.44769  0.76589  0.76139  1.0000 0.1101233624
H   H84       1.0  0.01589  0.75450  0.81820  1.0000 0.1101233624
H   H85       1.0  0.31370  0.55231  0.31820  1.0000 0.1101233624
H   H86       1.0  0.24550  0.06370  0.26139  1.0000 0.1101233624
H   H87       1.0  0.80231  0.98412  0.73861  1.0000 0.1101233624
H   H88       1.0  0.23411  0.99550  0.68180  1.0000 0.1101233624
H   H89       1.0  0.97790  0.35409  0.06881  1.0000 0.1305449043
H   H90       1.0  0.15910  0.72790  0.12381  1.0000 0.1305449043
H   H91       1.0  0.60409  0.03528  0.87619  1.0000 0.1305449043
H   H92       1.0  0.28529  0.90910  0.93120  1.0000 0.1305449043
H   H93       1.0  0.27210  0.39591  0.43119  1.0000 0.1305449043
H   H94       1.0  0.09090  0.02210  0.37619  1.0000 0.1305449043
H   H95       1.0  0.64591  0.71471  0.62381  1.0000 0.1305449043
H   H96       1.0  0.96471  0.84090  0.56880  1.0000 0.1305449043
H   H97       1.0  0.93110  0.27159  0.03791  1.0000 0.1305449043
H   H98       1.0  0.14319  0.68110  0.15951  1.0000 0.1305449043
H   H99       1.0  0.52159  0.98369  0.84049  1.0000 0.1305449043
H   H100      1.0  0.23369  0.89320  0.96210  1.0000 0.1305449043
H   H101      1.0  0.31890  0.47841  0.46209  1.0000 0.1305449043
H   H102      1.0  0.10681  0.06890  0.34049  1.0000 0.1305449043
H   H103      1.0  0.72841  0.76631  0.65951  1.0000 0.1305449043
H   H104      1.0  0.01632  0.85681  0.53790  1.0000 0.1305449043
H   H105      1.0  0.53260  0.97809  0.03111  1.0000 0.1305449043
H   H106      1.0  0.75150  0.28260  0.05451  1.0000 0.1305449043
H   H107      1.0  0.22809  0.69699  0.94549  1.0000 0.1305449043
H   H108      1.0  0.94698  0.50150  0.96889  1.0000 0.1305449043
H   H109      1.0  0.71740  0.77191  0.46890  1.0000 0.1305449043
H   H110      1.0  0.49850  0.46740  0.44549  1.0000 0.1305449043
H   H111      1.0  0.02191  0.05302  0.55451  1.0000 0.1305449043
H   H112      1.0  0.30302  0.24851  0.53111  1.0000 0.1305449043
H   H113      1.0  0.45050  0.88869  0.95640  1.0000 0.1035027286
H   H114      1.0  0.74409  0.20050  0.06181  1.0000 0.1035027286
H   H115      1.0  0.13869  0.68229  0.93819  1.0000 0.1035027286
H   H116      1.0  0.93229  0.49410  0.04360  1.0000 0.1035027286
H   H117      1.0  0.79950  0.86131  0.54360  1.0000 0.1035027286
H   H118      1.0  0.50591  0.54950  0.43819  1.0000 0.1035027286
H   H119      1.0  0.11131  0.06771  0.56181  1.0000 0.1035027286
H   H120      1.0  0.31772  0.25591  0.45641  1.0000 0.1035027286
H   H121      1.0  0.36880  0.75679  0.94141  1.0000 0.1305449043
H   H122      1.0  0.67739  0.11880  0.11201  1.0000 0.1305449043
H   H123      1.0  0.00679  0.56539  0.88799  1.0000 0.1305449043
H   H124      1.0  0.81539  0.42740  0.05860  1.0000 0.1305449043
H   H125      1.0  0.88120  0.99321  0.55859  1.0000 0.1305449043
H   H126      1.0  0.57261  0.63120  0.38799  1.0000 0.1305449043
H   H127      1.0  0.24321  0.18462  0.61201  1.0000 0.1305449043
H   H128      1.0  0.43462  0.32261  0.44140  1.0000 0.1305449043
H   H129      1.0  0.36560  0.71199  0.00241  1.0000 0.120082079
H   H130      1.0  0.61320  0.11560  0.15361  1.0000 0.120082079
H   H131      1.0  0.96199  0.45959  0.84639  1.0000 0.120082079
H   H132      1.0  0.70959  0.36320  0.99760  1.0000 0.120082079
H   H133      1.0  0.88440  0.03801  0.49760  1.0000 0.120082079
H   H134      1.0  0.63680  0.63440  0.34639  1.0000 0.120082079
H   H135      1.0  0.28801  0.29041  0.65361  1.0000 0.120082079
H   H136      1.0  0.54042  0.38681  0.50240  1.0000 0.120082079
H   H137      1.0  0.48080  0.76259  0.24141  1.0000 0.1693875625
H   H138      1.0  0.48940  0.23080  0.21821  1.0000 0.1693875625
H   H139      1.0  0.01259  0.27119  0.78179  1.0000 0.1693875625
H   H140      1.0  0.52119  0.23939  0.75860  1.0000 0.1693875625
H   H141      1.0  0.76920  0.98741  0.25860  1.0000 0.1693875625
H   H142      1.0  0.76061  0.51920  0.28179  1.0000 0.1693875625
H   H143      1.0  0.23741  0.47881  0.71821  1.0000 0.1693875625
H   H144      1.0  0.72881  0.51060  0.74140  1.0000 0.1693875625
H   H145      1.0  0.56960  0.85779  0.26821  1.0000 0.1623662565
H   H146      1.0  0.55140  0.31960  0.21181  1.0000 0.1623662565
H   H147      1.0  0.10779  0.33959  0.78819  1.0000 0.1623662565
H   H148      1.0  0.58958  0.30139  0.73179  1.0000 0.1623662565
H   H149      1.0  0.68040  0.89221  0.23180  1.0000 0.1623662565
H   H150      1.0  0.69861  0.43040  0.28819  1.0000 0.1623662565
H   H151      1.0  0.14221  0.41041  0.71181  1.0000 0.1623662565
H   H152      1.0  0.66041  0.44861  0.76821  1.0000 0.1623662565
H   H153      1.0  0.48860  0.81469  0.27531  1.0000 0.1693875625
H   H154      1.0  0.46330  0.23860  0.17391  1.0000 0.1693875625
H   H155      1.0  0.06469  0.28938  0.82609  1.0000 0.1693875625
H   H156      1.0  0.53939  0.21330  0.72469  1.0000 0.1693875625
H   H157      1.0  0.76140  0.93531  0.22470  1.0000 0.1693875625
H   H158      1.0  0.78671  0.51140  0.32609  1.0000 0.1693875625
H   H159      1.0  0.18531  0.46062  0.67391  1.0000 0.1693875625
H   H160      1.0  0.71061  0.53670  0.77531  1.0000 0.1693875625
H   H161      1.0  0.22980  0.56889  0.00250  1.0000 0.120082079
H   H162      1.0  0.47730  0.97980  0.16091  1.0000 0.120082079
H   H163      1.0  0.81889  0.31639  0.83909  1.0000 0.120082079
H   H164      1.0  0.56639  0.22729  0.99750  1.0000 0.120082079
H   H165      1.0  0.02020  0.18111  0.49750  1.0000 0.120082079
H   H166      1.0  0.77270  0.77020  0.33909  1.0000 0.120082079
H   H167      1.0  0.43111  0.43362  0.66091  1.0000 0.120082079
H   H168      1.0  0.68361  0.52270  0.50250  1.0000 0.120082079
H   H169      1.0  0.17820  0.51519  0.06381  1.0000 0.1402154197
H   H170      1.0  0.36440  0.92820  0.16301  1.0000 0.1402154197
H   H171      1.0  0.76519  0.20139  0.83699  1.0000 0.1402154197
H   H172      1.0  0.45139  0.11440  0.93619  1.0000 0.1402154197
H   H173      1.0  0.07180  0.23481  0.43619  1.0000 0.1402154197
H   H174      1.0  0.88560  0.82180  0.33699  1.0000 0.1402154197
H   H175      1.0  0.48481  0.54861  0.66301  1.0000 0.1402154197
H   H176      1.0  0.79862  0.63561  0.56381  1.0000 0.1402154197
H   H177      1.0  0.97370  0.29279  0.97010  1.0000 0.1402154197
H   H178      1.0  0.25360  0.72370  0.18091  1.0000 0.1402154197
H   H179      1.0  0.54279  0.07268  0.81909  1.0000 0.1402154197
H   H180      1.0  0.32268  0.00360  0.02990  1.0000 0.1402154197
H   H181      1.0  0.27630  0.45721  0.52990  1.0000 0.1402154197
H   H182      1.0  0.99640  0.02630  0.31909  1.0000 0.1402154197
H   H183      1.0  0.70721  0.67732  0.68091  1.0000 0.1402154197
H   H184      1.0  0.92732  0.74641  0.47010  1.0000 0.1402154197
H   H185      1.0  0.02670  0.35529  0.91121  1.0000 0.1101233624
H   H186      1.0  0.36550  0.77670  0.17141  1.0000 0.1101233624
H   H187      1.0  0.60529  0.19409  0.82859  1.0000 0.1101233624
H   H188      1.0  0.44409  0.11550  0.08879  1.0000 0.1101233624
H   H189      1.0  0.22330  0.39471  0.58879  1.0000 0.1101233624
H   H190      1.0  0.88451  0.97330  0.32859  1.0000 0.1101233624
H   H191      1.0  0.64471  0.55592  0.67141  1.0000 0.1101233624
H   H192      1.0  0.80592  0.63450  0.41120  1.0000 0.1101233624
H   H193      1.0  0.08250  0.40039  0.09650  1.0000 0.1305449043
H   H194      1.0  0.23600  0.83250  0.18211  1.0000 0.1305449043
H   H195      1.0  0.65039  0.05389  0.81789  1.0000 0.1305449043
H   H196      1.0  0.30389  0.98599  0.90350  1.0000 0.1305449043
H   H197      1.0  0.16750  0.34961  0.40349  1.0000 0.1305449043
H   H198      1.0  0.01400  0.91750  0.31789  1.0000 0.1305449043
H   H199      1.0  0.59961  0.69612  0.68211  1.0000 0.1305449043
H   H200      1.0  0.94612  0.76401  0.59650  1.0000 0.1305449043
H   H201      1.0  0.03560  0.31889  0.06370  1.0000 0.1305449043
H   H202      1.0  0.22189  0.78560  0.21671  1.0000 0.1305449043
H   H203      1.0  0.56889  0.00518  0.78329  1.0000 0.1305449043
H   H204      1.0  0.25518  0.97189  0.93629  1.0000 0.1305449043
H   H205      1.0  0.21440  0.43111  0.43629  1.0000 0.1305449043
H   H206      1.0  0.02811  0.96440  0.28329  1.0000 0.1305449043
H   H207      1.0  0.68111  0.74482  0.71671  1.0000 0.1305449043
H   H208      1.0  0.99482  0.77811  0.56371  1.0000 0.1305449043
H   H209      1.0  0.06980  0.16759  0.36261  1.0000 0.1305449043
H   H210      1.0  0.95720  0.81980  0.40221  1.0000 0.1305449043
H   H211      1.0  0.41759  0.55498  0.59779  1.0000 0.1305449043
H   H212      1.0  0.80499  0.70720  0.63740  1.0000 0.1305449043
H   H213      1.0  0.18020  0.58241  0.13739  1.0000 0.1305449043
H   H214      1.0  0.29280  0.93020  0.09779  1.0000 0.1305449043
H   H215      1.0  0.83241  0.19501  0.90221  1.0000 0.1305449043
H   H216      1.0  0.44502  0.04281  0.86260  1.0000 0.1305449043
H   H217      1.0  0.16790  0.25419  0.32450  1.0000 0.1035027286
H   H218      1.0  0.09340  0.91790  0.41371  1.0000 0.1035027286
H   H219      1.0  0.50419  0.67968  0.58629  1.0000 0.1035027286
H   H220      1.0  0.92968  0.84340  0.67549  1.0000 0.1035027286
H   H221      1.0  0.08210  0.49581  0.17550  1.0000 0.1035027286
H   H222      1.0  0.15661  0.83210  0.08629  1.0000 0.1035027286
H   H223      1.0  0.74581  0.07032  0.91371  1.0000 0.1035027286
H   H224      1.0  0.32031  0.90660  0.82451  1.0000 0.1035027286
H   H225      1.0  0.16930  0.31569  0.27860  1.0000 0.120082079
H   H226      1.0  0.14069  0.91930  0.35361  1.0000 0.120082079
H   H227      1.0  0.56569  0.78709  0.64639  1.0000 0.120082079
H   H228      1.0  0.03709  0.89070  0.72139  1.0000 0.120082079
H   H229      1.0  0.08070  0.43431  0.22140  1.0000 0.120082079
H   H230      1.0  0.10931  0.83070  0.14639  1.0000 0.120082079
H   H231      1.0  0.68431  0.96291  0.85361  1.0000 0.120082079
H   H232      1.0  0.21292  0.85931  0.77861  1.0000 0.120082079
H   H233      1.0  0.06040  0.27619  0.26681  1.0000 0.120082079
H   H234      1.0  0.04360  0.81040  0.28421  1.0000 0.120082079
H   H235      1.0  0.52619  0.75938  0.71579  1.0000 0.120082079
H   H236      1.0  0.00938  0.79360  0.73320  1.0000 0.120082079
H   H237      1.0  0.18960  0.47381  0.23320  1.0000 0.120082079
H   H238      1.0  0.20641  0.93960  0.21579  1.0000 0.120082079
H   H239      1.0  0.72381  0.99062  0.78421  1.0000 0.120082079
H   H240      1.0  0.24062  0.95641  0.76680  1.0000 0.120082079
H   H241      1.0  0.64740  0.98979  0.31121  1.0000 0.1693875625
H   H242      1.0  0.58620  0.39740  0.15761  1.0000 0.1693875625
H   H243      1.0  0.23979  0.42858  0.84239  1.0000 0.1693875625
H   H244      1.0  0.67858  0.33620  0.68880  1.0000 0.1693875625
H   H245      1.0  0.60260  0.76021  0.18879  1.0000 0.1693875625
H   H246      1.0  0.66380  0.35260  0.34239  1.0000 0.1693875625
H   H247      1.0  0.01021  0.32142  0.65761  1.0000 0.1693875625
H   H248      1.0  0.57142  0.41380  0.81120  1.0000 0.1693875625
H   H249      1.0  0.70900  0.08079  0.31040  1.0000 0.1623662565
H   H250      1.0  0.64860  0.45900  0.12821  1.0000 0.1623662565
H   H251      1.0  0.33079  0.52038  0.87179  1.0000 0.1623662565
H   H252      1.0  0.77038  0.39859  0.68959  1.0000 0.1623662565
H   H253      1.0  0.54100  0.66921  0.18960  1.0000 0.1623662565
H   H254      1.0  0.60140  0.29100  0.37179  1.0000 0.1623662565
H   H255      1.0  0.91921  0.22962  0.62821  1.0000 0.1623662565
H   H256      1.0  0.47962  0.35141  0.81041  1.0000 0.1623662565
H   H257      1.0  0.69680  0.05849  0.35930  1.0000 0.1693875625
H   H258      1.0  0.58750  0.44680  0.13831  1.0000 0.1693875625
H   H259      1.0  0.30849  0.44919  0.86169  1.0000 0.1693875625
H   H260      1.0  0.69918  0.33749  0.64070  1.0000 0.1693875625
H   H261      1.0  0.55320  0.69151  0.14070  1.0000 0.1693875625
H   H262      1.0  0.66251  0.30320  0.36169  1.0000 0.1693875625
H   H263      1.0  0.94151  0.30081  0.63831  1.0000 0.1693875625
H   H264      1.0  0.55082  0.41251  0.85930  1.0000 0.1693875625
C   C1        1.0  0.82846  0.24841  0.27675  1.0000 0.2901140248
C   C2        1.0  0.80171  0.57846  0.08005  1.0000 0.2901140248
C   C3        1.0  0.49841  0.72167  0.91995  1.0000 0.2901140248
C   C4        1.0  0.97167  0.55171  0.72325  1.0000 0.2901140248
C   C5        1.0  0.42154  0.50159  0.22326  1.0000 0.2901140248
C   C6        1.0  0.44829  0.17154  0.41995  1.0000 0.2901140248
C   C7        1.0  0.75159  0.02834  0.58005  1.0000 0.2901140248
C   C8        1.0  0.27834  0.19829  0.77675  1.0000 0.2901140248
C   C9        1.0  0.87171  0.32160  0.30173  1.0000 -0.2160034609
C   C10       1.0  0.81998  0.62171  0.05011  1.0000 -0.2160034609
C   C11       1.0  0.57160  0.76987  0.94989  1.0000 -0.2160034609
C   C12       1.0  0.01988  0.56998  0.69827  1.0000 -0.2160034609
C   C13       1.0  0.37829  0.42840  0.19828  1.0000 -0.2160034609
C   C14       1.0  0.43001  0.12829  0.44989  1.0000 -0.2160034609
C   C15       1.0  0.67840  0.98013  0.55011  1.0000 -0.2160034609
C   C16       1.0  0.23012  0.18002  0.80173  1.0000 -0.2088492287
C   C17       1.0  0.83654  0.33352  0.30247  1.0000 -0.0611668465
C   C18       1.0  0.78407  0.58654  0.00302  1.0000 -0.0611668465
C   C19       1.0  0.58352  0.78104  0.99698  1.0000 -0.0611668465
C   C20       1.0  0.03104  0.53407  0.69752  1.0000 -0.0611668465
C   C21       1.0  0.41346  0.41648  0.19753  1.0000 -0.0611668465
C   C22       1.0  0.46593  0.16346  0.49698  1.0000 -0.0611668465
C   C23       1.0  0.66648  0.96896  0.50302  1.0000 -0.0611668465
C   C24       1.0  0.21895  0.21593  0.80248  1.0000 -0.0611668465
C   C25       1.0  0.75481  0.27222  0.27804  1.0000 -0.1319328387
C   C26       1.0  0.72676  0.50481  0.98259  1.0000 -0.1319328387
C   C27       1.0  0.52222  0.74418  0.01741  1.0000 -0.1319328387
C   C28       1.0  0.99418  0.47677  0.72196  1.0000 -0.1319328387
C   C29       1.0  0.49519  0.47778  0.22196  1.0000 -0.1319328387
C   C30       1.0  0.52324  0.24519  0.51741  1.0000 -0.1319328387
C   C31       1.0  0.72778  0.00583  0.48259  1.0000 -0.1319328387
C   C32       1.0  0.25583  0.27324  0.77804  1.0000 -0.1319328387
C   C33       1.0  0.70888  0.19646  0.25313  1.0000 -0.0779490535
C   C34       1.0  0.70574  0.45888  0.01242  1.0000 -0.0779490535
C   C35       1.0  0.44646  0.69332  0.98758  1.0000 -0.0779490535
C   C36       1.0  0.94332  0.45575  0.74687  1.0000 -0.0779490535
C   C37       1.0  0.54112  0.55354  0.24687  1.0000 -0.0779490535
C   C38       1.0  0.54426  0.29112  0.48758  1.0000 -0.0779490535
C   C39       1.0  0.80354  0.05667  0.51242  1.0000 -0.0779490535
C   C40       1.0  0.30667  0.29425  0.75313  1.0000 -0.0779490535
C   C41       1.0  0.74403  0.18391  0.25117  1.0000 -0.1466808336
C   C42       1.0  0.74286  0.49403  0.06012  1.0000 -0.1466808336
C   C43       1.0  0.43391  0.68273  0.93988  1.0000 -0.1466808336
C   C44       1.0  0.93273  0.49285  0.74882  1.0000 -0.1466808336
C   C45       1.0  0.50597  0.56609  0.24882  1.0000 -0.1466808336
C   C46       1.0  0.50715  0.25597  0.43988  1.0000 -0.1466808336
C   C47       1.0  0.81609  0.06727  0.56012  1.0000 -0.1466808336
C   C48       1.0  0.31727  0.25715  0.75118  1.0000 -0.1466808336
C   C49       1.0  0.69287  0.10368  0.22095  1.0000 0.4462380784
C   C50       1.0  0.72193  0.44287  0.08919  1.0000 0.4462380784
C   C51       1.0  0.35368  0.63274  0.91081  1.0000 0.4462380784
C   C52       1.0  0.88274  0.47192  0.77906  1.0000 0.4462380784
C   C53       1.0  0.55713  0.64632  0.27905  1.0000 0.4462380784
C   C54       1.0  0.52807  0.30713  0.41081  1.0000 0.4462380784
C   C55       1.0  0.89632  0.11726  0.58919  1.0000 0.4462380784
C   C56       1.0  0.36727  0.27808  0.72094  1.0000 0.4462380784
C   C57       1.0  0.71073  0.00992  0.17930  1.0000 0.5107497164
C   C58       1.0  0.78143  0.46073  0.20081  1.0000 0.5107497164
C   C59       1.0  0.25992  0.58061  0.79919  1.0000 0.5107497164
C   C60       1.0  0.83061  0.53143  0.82069  1.0000 0.5107497164
C   C61       1.0  0.53927  0.74008  0.32069  1.0000 0.5107497164
C   C62       1.0  0.46858  0.28927  0.29919  1.0000 0.5107497164
C   C63       1.0  0.99008  0.16938  0.70081  1.0000 0.5107497164
C   C64       1.0  0.41938  0.21857  0.67931  1.0000 0.5107497164
C   C65       1.0  0.66721  0.93631  0.14560  1.0000 -0.5695484466
C   C66       1.0  0.77162  0.41721  0.23090  1.0000 -0.5695484466
C   C67       1.0  0.18631  0.54071  0.76910  1.0000 -0.5695484466
C   C68       1.0  0.79072  0.52162  0.85440  1.0000 -0.5695484466
C   C69       1.0  0.58279  0.81369  0.35441  1.0000 -0.5695484466
C   C70       1.0  0.47839  0.33279  0.26910  1.0000 -0.5695484466
C   C71       1.0  0.06369  0.20929  0.73090  1.0000 -0.5695484466
C   C72       1.0  0.45928  0.22839  0.64560  1.0000 -0.5695484466
C   C73       1.0  0.88106  0.25091  0.16786  1.0000 0.0814311412
C   C74       1.0  0.96320  0.63106  0.13015  1.0000 0.0814311412
C   C75       1.0  0.50091  0.83305  0.86985  1.0000 0.0814311412
C   C76       1.0  0.08305  0.71320  0.83213  1.0000 0.0814311412
C   C77       1.0  0.36894  0.49909  0.33214  1.0000 0.0814311412
C   C78       1.0  0.28680  0.11894  0.36985  1.0000 0.0814311412
C   C79       1.0  0.74909  0.91695  0.63015  1.0000 0.0814311412
C   C80       1.0  0.16695  0.03680  0.66787  1.0000 0.0814311412
C   C81       1.0  0.90838  0.28022  0.12882  1.0000 -0.1947533301
C   C82       1.0  0.02956  0.65838  0.12816  1.0000 -0.1996411774
C   C83       1.0  0.53022  0.90141  0.87184  1.0000 -0.1996411774
C   C84       1.0  0.15141  0.77956  0.87118  1.0000 -0.1996411774
C   C85       1.0  0.34162  0.46978  0.37118  1.0000 -0.1996411774
C   C86       1.0  0.22043  0.09162  0.37184  1.0000 -0.1996411774
C   C87       1.0  0.71978  0.84859  0.62816  1.0000 -0.1996411774
C   C88       1.0  0.09860  0.97044  0.62882  1.0000 -0.1996411774
C   C89       1.0  0.94668  0.28182  0.10991  1.0000 0.1462452935
C   C90       1.0  0.08676  0.69668  0.16486  1.0000 0.1462452935
C   C91       1.0  0.53182  0.92191  0.83514  1.0000 0.1462452935
C   C92       1.0  0.17190  0.83676  0.89009  1.0000 0.1462452935
C   C93       1.0  0.30332  0.46818  0.39009  1.0000 0.1462452935
C   C94       1.0  0.16324  0.05332  0.33514  1.0000 0.1462452935
C   C95       1.0  0.71818  0.82810  0.66486  1.0000 0.1462452935
C   C96       1.0  0.07810  0.91324  0.60991  1.0000 0.1462452935
C   C97       1.0  0.95864  0.25029  0.12995  1.0000 -0.2302066161
C   C98       1.0  0.07870  0.70864  0.20835  1.0000 -0.2302066161
C   C99       1.0  0.50029  0.87035  0.79165  1.0000 -0.2302066161
C   C100      1.0  0.12034  0.82869  0.87006  1.0000 -0.2302066161
C   C101      1.0  0.29136  0.49971  0.37006  1.0000 -0.2302066161
C   C102      1.0  0.17131  0.04136  0.29165  1.0000 -0.2302066161
C   C103      1.0  0.74971  0.87965  0.70835  1.0000 -0.2302066161
C   C104      1.0  0.12965  0.92131  0.62994  1.0000 -0.2302066161
C   C105      1.0  0.92908  0.21991  0.16881  1.0000 0.1101233624
C   C106      1.0  0.01027  0.67908  0.20917  1.0000 0.1101233624
C   C107      1.0  0.46991  0.80110  0.79083  1.0000 0.1101233624
C   C108      1.0  0.05111  0.76028  0.83120  1.0000 0.1101233624
C   C109      1.0  0.32092  0.53009  0.33120  1.0000 0.1101233624
C   C110      1.0  0.23972  0.07092  0.29083  1.0000 0.1101233624
C   C111      1.0  0.78009  0.94890  0.70917  1.0000 0.1101233624
C   C112      1.0  0.19889  0.98972  0.66880  1.0000 0.1101233624
C   C113      1.0  0.97364  0.31731  0.06736  1.0000 -0.1996411774
C   C114      1.0  0.15628  0.72364  0.15633  1.0000 -0.1996411774
C   C115      1.0  0.56731  0.99994  0.84367  1.0000 -0.1996411774
C   C116      1.0  0.24995  0.90628  0.93263  1.0000 -0.1996411774
C   C117      1.0  0.27636  0.43269  0.43263  1.0000 -0.1996411774
C   C118      1.0  0.09373  0.02636  0.34367  1.0000 -0.1996411774
C   C119      1.0  0.68269  0.75006  0.65633  1.0000 -0.1996411774
C   C120      1.0  0.00006  0.84372  0.56737  1.0000 -0.1996411774
C   C121      1.0  0.49703  0.89883  0.06394  1.0000 0.2901140248
C   C122      1.0  0.68310  0.24703  0.09820  1.0000 0.2901140248
C   C123      1.0  0.14883  0.58490  0.90180  1.0000 0.2901140248
C   C124      1.0  0.83490  0.43310  0.93607  1.0000 0.2901140248
C   C125      1.0  0.75297  0.85117  0.43606  1.0000 0.2901140248
C   C126      1.0  0.56690  0.50297  0.40180  1.0000 0.2901140248
C   C127      1.0  0.10117  0.16510  0.59820  1.0000 0.2901140248
C   C128      1.0  0.41511  0.31690  0.56393  1.0000 0.2901140248
C   C129      1.0  0.49791  0.92346  0.02596  1.0000 -0.2088492287
C   C130      1.0  0.72194  0.24791  0.07445  1.0000 -0.2088492287
C   C131      1.0  0.17346  0.64750  0.92555  1.0000 -0.2088492287
C   C132      1.0  0.89750  0.47195  0.97403  1.0000 -0.2088492287
C   C133      1.0  0.75209  0.82654  0.47403  1.0000 -0.2088492287
C   C134      1.0  0.52806  0.50209  0.42555  1.0000 -0.2088492287
C   C135      1.0  0.07654  0.10251  0.57445  1.0000 -0.2088492287
C   C136      1.0  0.35251  0.27805  0.52597  1.0000 -0.2088492287
C   C137      1.0  0.44991  0.87074  0.98145  1.0000 -0.0779490535
C   C138      1.0  0.71847  0.19991  0.07917  1.0000 -0.0779490535
C   C139      1.0  0.12074  0.63930  0.92083  1.0000 -0.0779490535
C   C140      1.0  0.88929  0.46847  0.01855  1.0000 -0.0779490535
C   C141      1.0  0.80009  0.87926  0.51855  1.0000 -0.0779490535
C   C142      1.0  0.53153  0.55009  0.42083  1.0000 -0.0779490535
C   C143      1.0  0.12926  0.11070  0.57917  1.0000 -0.0779490535
C   C144      1.0  0.36070  0.28153  0.48145  1.0000 -0.0779490535
C   C145      1.0  0.40125  0.79266  0.97252  1.0000 -0.1319328387
C   C146      1.0  0.67873  0.15125  0.10859  1.0000 -0.1319328387
C   C147      1.0  0.04266  0.57013  0.89141  1.0000 -0.1319328387
C   C148      1.0  0.82013  0.42873  0.02747  1.0000 -0.1319328387
C   C149      1.0  0.84875  0.95734  0.52748  1.0000 -0.1319328387
C   C150      1.0  0.57127  0.59875  0.39141  1.0000 -0.1319328387
C   C151      1.0  0.20734  0.17986  0.60859  1.0000 -0.1319328387
C   C152      1.0  0.42987  0.32128  0.47252  1.0000 -0.1319328387
C   C153      1.0  0.39950  0.76645  0.00874  1.0000 -0.0868128649
C   C154      1.0  0.64075  0.14950  0.13305  1.0000 -0.0868128649
C   C155      1.0  0.01645  0.50770  0.86695  1.0000 -0.0868128649
C   C156      1.0  0.75771  0.39076  0.99125  1.0000 -0.0868128649
C   C157      1.0  0.85050  0.98355  0.49125  1.0000 -0.0868128649
C   C158      1.0  0.60925  0.60050  0.36695  1.0000 -0.0868128649
C   C159      1.0  0.23355  0.24229  0.63305  1.0000 -0.0868128649
C   C160      1.0  0.49230  0.35924  0.50875  1.0000 -0.0868128649
C   C161      1.0  0.44705  0.81854  0.05538  1.0000 -0.1601906635
C   C162      1.0  0.64167  0.19705  0.12851  1.0000 -0.1601906635
C   C163      1.0  0.06854  0.51316  0.87149  1.0000 -0.1601906635
C   C164      1.0  0.76316  0.39167  0.94461  1.0000 -0.1601906635
C   C165      1.0  0.80295  0.93146  0.44461  1.0000 -0.1601906635
C   C166      1.0  0.60833  0.55295  0.37149  1.0000 -0.1601906635
C   C167      1.0  0.18146  0.23684  0.62851  1.0000 -0.1601906635
C   C168      1.0  0.48685  0.35834  0.55539  1.0000 -0.1601906635
C   C169      1.0  0.44249  0.78612  0.09173  1.0000 0.4351804593
C   C170      1.0  0.60077  0.19249  0.15637  1.0000 0.4351804593
C   C171      1.0  0.03612  0.44439  0.84363  1.0000 0.4351804593
C   C172      1.0  0.69440  0.35077  0.90827  1.0000 0.4351804593
C   C173      1.0  0.80751  0.96388  0.40827  1.0000 0.4351804593
C   C174      1.0  0.64924  0.55751  0.34363  1.0000 0.4351804593
C   C175      1.0  0.21388  0.30561  0.65637  1.0000 0.4351804593
C   C176      1.0  0.55561  0.39924  0.59173  1.0000 0.4351804593
C   C177      1.0  0.50730  0.84042  0.21102  1.0000 0.5172385537
C   C178      1.0  0.54629  0.25730  0.16688  1.0000 0.5172385537
C   C179      1.0  0.09042  0.37941  0.83312  1.0000 0.5172385537
C   C180      1.0  0.62940  0.29629  0.78899  1.0000 0.5172385537
C   C181      1.0  0.74270  0.90958  0.28898  1.0000 0.5172385537
C   C182      1.0  0.70371  0.49270  0.33312  1.0000 0.5172385537
C   C183      1.0  0.15958  0.37060  0.66688  1.0000 0.5172385537
C   C184      1.0  0.62060  0.45372  0.71101  1.0000 0.5172385537
C   C185      1.0  0.51193  0.81668  0.25268  1.0000 -0.5695484466
C   C186      1.0  0.50924  0.26193  0.19525  1.0000 -0.5695484466
C   C187      1.0  0.06668  0.31400  0.80475  1.0000 -0.5695484466
C   C188      1.0  0.56400  0.25925  0.74731  1.0000 -0.5695484466
C   C189      1.0  0.73807  0.93332  0.24732  1.0000 -0.5695484466
C   C190      1.0  0.74076  0.48807  0.30475  1.0000 -0.5695484466
C   C191      1.0  0.18332  0.43601  0.69525  1.0000 -0.5695484466
C   C192      1.0  0.68600  0.49076  0.75269  1.0000 -0.5695484466
C   C193      1.0  0.17623  0.51172  0.99591  1.0000 0.1101233624
C   C194      1.0  0.43033  0.92623  0.16451  1.0000 0.1101233624
C   C195      1.0  0.76172  0.26582  0.83549  1.0000 0.1101233624
C   C196      1.0  0.51582  0.18033  0.00409  1.0000 0.1101233624
C   C197      1.0  0.07377  0.23828  0.50409  1.0000 0.1101233624
C   C198      1.0  0.81968  0.82377  0.33549  1.0000 0.1101233624
C   C199      1.0  0.48828  0.48419  0.66451  1.0000 0.1101233624
C   C200      1.0  0.73418  0.56968  0.49590  1.0000 0.1101233624
C   C201      1.0  0.14686  0.47999  0.03247  1.0000 -0.2088492287
C   C202      1.0  0.36440  0.89686  0.16687  1.0000 -0.2088492287
C   C203      1.0  0.72999  0.19752  0.83313  1.0000 -0.2088492287
C   C204      1.0  0.44753  0.11440  0.96754  1.0000 -0.2088492287
C   C205      1.0  0.10314  0.27001  0.46753  1.0000 -0.2088492287
C   C206      1.0  0.88560  0.85314  0.33313  1.0000 -0.1996411774
C   C207      1.0  0.52001  0.55248  0.66687  1.0000 -0.1996411774
C   C208      1.0  0.80248  0.63561  0.53246  1.0000 -0.2088492287
C   C209      1.0  0.07163  0.39682  0.02406  1.0000 0.1693875625
C   C210      1.0  0.29757  0.82163  0.17481  1.0000 0.1693875625
C   C211      1.0  0.64682  0.12276  0.82519  1.0000 0.1693875625
C   C212      1.0  0.37276  0.04757  0.97593  1.0000 0.1693875625
C   C213      1.0  0.17837  0.35318  0.47593  1.0000 0.1693875625
C   C214      1.0  0.95244  0.92837  0.32519  1.0000 0.1623662565
C   C215      1.0  0.60318  0.62725  0.67481  1.0000 0.1693875625
C   C216      1.0  0.87725  0.70244  0.52407  1.0000 0.1693875625
C   C217      1.0  0.02680  0.35033  0.97774  1.0000 -0.2088492287
C   C218      1.0  0.29906  0.77680  0.17647  1.0000 -0.2088492287
C   C219      1.0  0.60033  0.12259  0.82353  1.0000 -0.2088492287
C   C220      1.0  0.37258  0.04906  0.02226  1.0000 -0.2088492287
C   C221      1.0  0.22320  0.39967  0.52226  1.0000 -0.2088492287
C   C222      1.0  0.95095  0.97320  0.32353  1.0000 -0.2088492287
C   C223      1.0  0.64967  0.62741  0.67647  1.0000 -0.2088492287
C   C224      1.0  0.87741  0.70095  0.47774  1.0000 -0.2088492287
C   C225      1.0  0.05911  0.38751  0.94299  1.0000 0.0872587712
C   C226      1.0  0.36612  0.80911  0.17160  1.0000 0.0872587712
C   C227      1.0  0.63751  0.19451  0.82840  1.0000 0.0872587712
C   C228      1.0  0.44452  0.11611  0.05701  1.0000 0.0872587712
C   C229      1.0  0.19089  0.36249  0.55700  1.0000 0.0872587712
C   C230      1.0  0.88388  0.94089  0.32840  1.0000 0.0872587712
C   C231      1.0  0.61249  0.55549  0.67160  1.0000 0.0872587712
C   C232      1.0  0.80549  0.63389  0.44300  1.0000 0.0872587712
C   C233      1.0  0.04068  0.35636  0.06646  1.0000 -0.1996411774
C   C234      1.0  0.22423  0.79068  0.18432  1.0000 -0.1996411774
C   C235      1.0  0.60636  0.03990  0.81568  1.0000 -0.1996411774
C   C236      1.0  0.28991  0.97423  0.93354  1.0000 -0.1996411774
C   C237      1.0  0.20932  0.39364  0.43355  1.0000 -0.1996411774
C   C238      1.0  0.02577  0.95932  0.31568  1.0000 -0.1996411774
C   C239      1.0  0.64364  0.71010  0.68432  1.0000 -0.1996411774
C   C240      1.0  0.96010  0.77577  0.56646  1.0000 -0.1996411774
C   C241      1.0  0.00630  0.17132  0.34064  1.0000 0.3150691429
C   C242      1.0  0.91566  0.75630  0.33498  1.0000 0.3145427444
C   C243      1.0  0.42132  0.58069  0.66502  1.0000 0.3145427444
C   C244      1.0  0.83069  0.66566  0.65936  1.0000 0.3145427444
C   C245      1.0  0.24370  0.57868  0.15937  1.0000 0.3150691429
C   C246      1.0  0.33433  0.99370  0.16502  1.0000 0.3145427444
C   C247      1.0  0.82868  0.16932  0.83498  1.0000 0.3150691429
C   C248      1.0  0.41931  0.08433  0.84064  1.0000 0.3150691429
C   C249      1.0  0.06841  0.19089  0.34392  1.0000 -0.2404715511
C   C250      1.0  0.97450  0.81841  0.37752  1.0000 -0.2404715511
C   C251      1.0  0.44089  0.59698  0.62248  1.0000 -0.2404715511
C   C252      1.0  0.84698  0.72450  0.65609  1.0000 -0.2404715511
C   C253      1.0  0.18159  0.55911  0.15609  1.0000 -0.2404715511
C   C254      1.0  0.27550  0.93159  0.12248  1.0000 -0.2404715511
C   C255      1.0  0.80911  0.15302  0.87752  1.0000 -0.2404715511
C   C256      1.0  0.40303  0.02550  0.84391  1.0000 -0.2404715511
C   C257      1.0  0.12645  0.24201  0.32127  1.0000 -0.0611668465
C   C258      1.0  0.05518  0.87645  0.38444  1.0000 -0.0611668465
C   C259      1.0  0.49201  0.67073  0.61556  1.0000 -0.0611668465
C   C260      1.0  0.92073  0.80517  0.67873  1.0000 -0.0611668465
C   C261      1.0  0.12355  0.50799  0.17872  1.0000 -0.0611668465
C   C262      1.0  0.19483  0.87355  0.11556  1.0000 -0.0611668465
C   C263      1.0  0.75799  0.07927  0.88444  1.0000 -0.0611668465
C   C264      1.0  0.32926  0.94482  0.82127  1.0000 -0.0611668465
C   C265      1.0  0.12677  0.27759  0.29318  1.0000 -0.1601906635
C   C266      1.0  0.08360  0.87677  0.34918  1.0000 -0.1601906635
C   C267      1.0  0.52759  0.73442  0.65082  1.0000 -0.1601906635
C   C268      1.0  0.98442  0.83360  0.70683  1.0000 -0.1601906635
C   C269      1.0  0.12323  0.47241  0.20683  1.0000 -0.1601906635
C   C270      1.0  0.16641  0.87323  0.15082  1.0000 -0.1601906635
C   C271      1.0  0.72241  0.01559  0.84918  1.0000 -0.1601906635
C   C272      1.0  0.26559  0.91641  0.79317  1.0000 -0.1601906635
C   C273      1.0  0.06296  0.25533  0.28730  1.0000 -0.0868128649
C   C274      1.0  0.02565  0.81296  0.30763  1.0000 -0.0868128649
C   C275      1.0  0.50533  0.71803  0.69237  1.0000 -0.0868128649
C   C276      1.0  0.96803  0.77565  0.71269  1.0000 -0.0868128649
C   C277      1.0  0.18704  0.49467  0.21269  1.0000 -0.0868128649
C   C278      1.0  0.22434  0.93704  0.19237  1.0000 -0.0868128649
C   C279      1.0  0.74467  0.03197  0.80763  1.0000 -0.0868128649
C   C280      1.0  0.28198  0.97435  0.78731  1.0000 -0.0868128649
C   C281      1.0  0.00297  0.20365  0.31023  1.0000 -0.1601906635
C   C282      1.0  0.94274  0.75297  0.29932  1.0000 -0.1601906635
C   C283      1.0  0.45365  0.64341  0.70068  1.0000 -0.1601906635
C   C284      1.0  0.89342  0.69273  0.68976  1.0000 -0.1601906635
C   C285      1.0  0.24703  0.54635  0.18976  1.0000 -0.1601906635
C   C286      1.0  0.30727  0.99703  0.20068  1.0000 -0.1601906635
C   C287      1.0  0.79635  0.10658  0.79932  1.0000 -0.1601906635
C   C288      1.0  0.35658  0.05727  0.81024  1.0000 -0.1601906635
C   C289      1.0  0.93648  0.18072  0.30019  1.0000 0.4294806943
C   C290      1.0  0.88628  0.68648  0.25576  1.0000 0.4294806943
C   C291      1.0  0.43072  0.63053  0.74424  1.0000 0.4294806943
C   C292      1.0  0.88053  0.63628  0.69981  1.0000 0.4294806943
C   C293      1.0  0.31352  0.56928  0.19981  1.0000 0.4294806943
C   C294      1.0  0.36372  0.06352  0.24424  1.0000 0.4294806943
C   C295      1.0  0.81928  0.11947  0.75576  1.0000 0.4294806943
C   C296      1.0  0.36948  0.11372  0.80019  1.0000 0.4294806943
C   C297      1.0  0.76731  0.07236  0.33358  1.0000 0.5172385537
C   C298      1.0  0.68373  0.51731  0.19495  1.0000 0.5172385537
C   C299      1.0  0.32236  0.48878  0.80505  1.0000 0.5172385537
C   C300      1.0  0.73878  0.43373  0.66641  1.0000 0.5172385537
C   C301      1.0  0.48269  0.67764  0.16642  1.0000 0.5172385537
C   C302      1.0  0.56627  0.23269  0.30505  1.0000 0.5172385537
C   C303      1.0  0.92764  0.26122  0.69495  1.0000 0.5172385537
C   C304      1.0  0.51123  0.31627  0.83359  1.0000 0.5172385537
C   C305      1.0  0.69946  0.04832  0.32817  1.0000 -0.5484582594
C   C306      1.0  0.62128  0.44946  0.15114  1.0000 -0.5484582594
C   C307      1.0  0.29832  0.47014  0.84886  1.0000 -0.5484582594
C   C308      1.0  0.72015  0.37129  0.67183  1.0000 -0.5484582594
C   C309      1.0  0.55054  0.70168  0.17183  1.0000 -0.5484582594
C   C310      1.0  0.62872  0.30054  0.34886  1.0000 -0.5484582594
C   C311      1.0  0.95168  0.27986  0.65114  1.0000 -0.5484582594
C   C312      1.0  0.52985  0.37872  0.82817  1.0000 -0.5484582594
N   N1        1.0  0.72824  0.09400  0.21443  1.0000 -0.336632955
N   N2        1.0  0.76381  0.47824  0.13424  1.0000 -0.332053632
N   N3        1.0  0.34400  0.62957  0.86576  1.0000 -0.336632955
N   N4        1.0  0.87957  0.51380  0.78556  1.0000 -0.336632955
N   N5        1.0  0.52176  0.65600  0.28557  1.0000 -0.336632955
N   N6        1.0  0.48619  0.27176  0.36576  1.0000 -0.336632955
N   N7        1.0  0.90600  0.12043  0.63424  1.0000 -0.336632955
N   N8        1.0  0.37044  0.23620  0.71444  1.0000 -0.336632955
N   N9        1.0  0.67523  0.01873  0.18144  1.0000 -0.2946475905
N   N10       1.0  0.74380  0.42523  0.15650  1.0000 -0.2946475905
N   N11       1.0  0.26873  0.58730  0.84350  1.0000 -0.2946475905
N   N12       1.0  0.83730  0.49379  0.81856  1.0000 -0.295443233
N   N13       1.0  0.57477  0.73127  0.31856  1.0000 -0.2946475905
N   N14       1.0  0.50621  0.32477  0.34350  1.0000 -0.2946475905
N   N15       1.0  0.98127  0.16271  0.65650  1.0000 -0.2946475905
N   N16       1.0  0.41270  0.25620  0.68144  1.0000 -0.295443233
N   N17       1.0  0.89228  0.22139  0.18745  1.0000 -0.1996411774
N   N18       1.0  0.95483  0.64228  0.17089  1.0000 -0.1996411774
N   N19       1.0  0.47139  0.78395  0.82911  1.0000 -0.1996411774
N   N20       1.0  0.03395  0.70484  0.81256  1.0000 -0.1996411774
N   N21       1.0  0.35772  0.52861  0.31256  1.0000 -0.1996411774
N   N22       1.0  0.29517  0.10772  0.32911  1.0000 -0.1996411774
N   N23       1.0  0.77861  0.96605  0.67089  1.0000 -0.1996411774
N   N24       1.0  0.21605  0.04516  0.68744  1.0000 -0.1996411774
N   N25       1.0  0.48110  0.83076  0.13645  1.0000 -0.332053632
N   N26       1.0  0.59464  0.23110  0.15034  1.0000 -0.332053632
N   N27       1.0  0.08076  0.44430  0.84966  1.0000 -0.332053632
N   N28       1.0  0.69430  0.34464  0.86354  1.0000 -0.332053632
N   N29       1.0  0.76890  0.91924  0.36355  1.0000 -0.332053632
N   N30       1.0  0.65536  0.51890  0.34966  1.0000 -0.332053632
N   N31       1.0  0.16924  0.30569  0.65034  1.0000 -0.332053632
N   N32       1.0  0.55570  0.40536  0.63646  1.0000 -0.332053632
N   N33       1.0  0.47166  0.79273  0.16836  1.0000 -0.336632955
N   N34       1.0  0.55329  0.22166  0.17893  1.0000 -0.332053632
N   N35       1.0  0.04273  0.37437  0.82107  1.0000 -0.332053632
N   N36       1.0  0.62436  0.30329  0.83164  1.0000 -0.332053632
N   N37       1.0  0.77834  0.95727  0.33164  1.0000 -0.332053632
N   N38       1.0  0.69671  0.52834  0.32107  1.0000 -0.332053632
N   N39       1.0  0.20727  0.37563  0.67893  1.0000 -0.332053632
N   N40       1.0  0.62564  0.44671  0.66836  1.0000 -0.332053632
N   N41       1.0  0.13428  0.46725  0.95193  1.0000 -0.2088492287
N   N42       1.0  0.43235  0.88428  0.16703  1.0000 -0.2088492287
N   N43       1.0  0.71725  0.26532  0.83297  1.0000 -0.2088492287
N   N44       1.0  0.51533  0.18235  0.04807  1.0000 -0.2088492287
N   N45       1.0  0.11572  0.28275  0.54807  1.0000 -0.2088492287
N   N46       1.0  0.81764  0.86572  0.33297  1.0000 -0.2088492287
N   N47       1.0  0.53275  0.48468  0.66703  1.0000 -0.2088492287
N   N48       1.0  0.73467  0.56764  0.45193  1.0000 -0.2088492287
N   N49       1.0  0.87963  0.13228  0.32175  1.0000 -0.332053632
N   N50       1.0  0.80789  0.62963  0.24735  1.0000 -0.332053632
N   N51       1.0  0.38228  0.56054  0.75265  1.0000 -0.332053632
N   N52       1.0  0.81054  0.55788  0.67826  1.0000 -0.336632955
N   N53       1.0  0.37037  0.61772  0.17825  1.0000 -0.336632955
N   N54       1.0  0.44212  0.12037  0.25265  1.0000 -0.336632955
N   N55       1.0  0.86772  0.18947  0.74735  1.0000 -0.332053632
N   N56       1.0  0.43946  0.19212  0.82175  1.0000 -0.332053632
N   N57       1.0  0.81869  0.11490  0.30861  1.0000 -0.3178841135
N   N58       1.0  0.76009  0.56869  0.20379  1.0000 -0.3178841135
N   N59       1.0  0.36490  0.55629  0.79621  1.0000 -0.3178841135
N   N60       1.0  0.80630  0.51009  0.69140  1.0000 -0.3178841135
N   N61       1.0  0.43131  0.63510  0.19140  1.0000 -0.3178841135
N   N62       1.0  0.48992  0.18131  0.29621  1.0000 -0.3178841135
N   N63       1.0  0.88510  0.19370  0.70379  1.0000 -0.3178841135
N   N64       1.0  0.44370  0.23991  0.80860  1.0000 -0.3178841135
O   O1        1.0  0.86872  0.24287  0.27703  1.0000 -0.4638251959
O   O2        1.0  0.84169  0.61872  0.12585  1.0000 -0.4638251959
O   O3        1.0  0.49287  0.71584  0.87415  1.0000 -0.4638251959
O   O4        1.0  0.96585  0.59169  0.72298  1.0000 -0.4638251959
O   O5        1.0  0.38128  0.50713  0.22298  1.0000 -0.4638251959
O   O6        1.0  0.40830  0.13128  0.37415  1.0000 -0.4638251959
O   O7        1.0  0.75713  0.03415  0.62585  1.0000 -0.4638251959
O   O8        1.0  0.28416  0.15831  0.77702  1.0000 -0.4638251959
O   O9        1.0  0.61711  0.04817  0.20066  1.0000 -0.4503583087
O   O10       1.0  0.66646  0.36711  0.06894  1.0000 -0.4503583087
O   O11       1.0  0.29817  0.59752  0.93106  1.0000 -0.4503583087
O   O12       1.0  0.84752  0.41646  0.79934  1.0000 -0.4503583087
O   O13       1.0  0.63289  0.70183  0.29935  1.0000 -0.4503583087
O   O14       1.0  0.58354  0.38289  0.43106  1.0000 -0.4503583087
O   O15       1.0  0.95183  0.15249  0.56894  1.0000 -0.4503583087
O   O16       1.0  0.40249  0.33355  0.70066  1.0000 -0.4503583087
O   O17       1.0  0.78558  0.06511  0.20583  1.0000 -0.4926687068
O   O18       1.0  0.82976  0.53558  0.22047  1.0000 -0.4926687068
O   O19       1.0  0.31511  0.60928  0.77953  1.0000 -0.4926687068
O   O20       1.0  0.85929  0.57976  0.79417  1.0000 -0.4926687068
O   O21       1.0  0.46442  0.68489  0.29418  1.0000 -0.4926687068
O   O22       1.0  0.42024  0.21442  0.27953  1.0000 -0.4926687068
O   O23       1.0  0.93489  0.14072  0.72047  1.0000 -0.4926687068
O   O24       1.0  0.39071  0.17025  0.70583  1.0000 -0.4926687068
O   O25       1.0  0.54412  0.95378  0.10668  1.0000 -0.4739406964
O   O26       1.0  0.68744  0.29412  0.09034  1.0000 -0.4739406964
O   O27       1.0  0.20378  0.59710  0.90966  1.0000 -0.4739406964
O   O28       1.0  0.84710  0.43744  0.89333  1.0000 -0.4739406964
O   O29       1.0  0.70588  0.79622  0.39333  1.0000 -0.4739406964
O   O30       1.0  0.56256  0.45588  0.40966  1.0000 -0.4739406964
O   O31       1.0  0.04622  0.15290  0.59034  1.0000 -0.4739406964
O   O32       1.0  0.40290  0.31256  0.60667  1.0000 -0.4739406964
O   O33       1.0  0.40106  0.71430  0.08017  1.0000 -0.4810673593
O   O34       1.0  0.57089  0.15106  0.18676  1.0000 -0.4810673593
O   O35       1.0  0.96430  0.38412  0.81324  1.0000 -0.4810673593
O   O36       1.0  0.63413  0.32089  0.91983  1.0000 -0.4810673593
O   O37       1.0  0.84894  0.03570  0.41983  1.0000 -0.4810673593
O   O38       1.0  0.67912  0.59894  0.31324  1.0000 -0.4810673593
O   O39       1.0  0.28570  0.36588  0.68676  1.0000 -0.4810673593
O   O40       1.0  0.61587  0.42911  0.58017  1.0000 -0.4810673593
O   O41       1.0  0.54223  0.90838  0.22098  1.0000 -0.4810673593
O   O42       1.0  0.57125  0.29223  0.13385  1.0000 -0.4810673593
O   O43       1.0  0.15838  0.43739  0.86615  1.0000 -0.4810673593
O   O44       1.0  0.68739  0.32125  0.77902  1.0000 -0.4810673593
O   O45       1.0  0.70777  0.84162  0.27902  1.0000 -0.4810673593
O   O46       1.0  0.67875  0.45777  0.36615  1.0000 -0.4810673593
O   O47       1.0  0.09162  0.31261  0.63385  1.0000 -0.4810673593
O   O48       1.0  0.56261  0.42875  0.72098  1.0000 -0.4810673593
O   O49       1.0  0.95623  0.12501  0.36534  1.0000 -0.4739406964
O   O50       1.0  0.84090  0.70623  0.33122  1.0000 -0.4739406964
O   O51       1.0  0.37501  0.50967  0.66878  1.0000 -0.4739406964
O   O52       1.0  0.75968  0.59089  0.63467  1.0000 -0.4739406964
O   O53       1.0  0.29377  0.62499  0.13467  1.0000 -0.4739406964
O   O54       1.0  0.40910  0.04377  0.16878  1.0000 -0.4739406964
O   O55       1.0  0.87499  0.24033  0.83122  1.0000 -0.4739406964
O   O56       1.0  0.49033  0.15911  0.86533  1.0000 -0.4739406964
O   O57       1.0  0.93697  0.21025  0.27065  1.0000 -0.4739406964
O   O58       1.0  0.91632  0.68697  0.22672  1.0000 -0.4739406964
O   O59       1.0  0.46025  0.68959  0.77328  1.0000 -0.4739406964
O   O60       1.0  0.93959  0.66631  0.72935  1.0000 -0.4739406964
O   O61       1.0  0.31303  0.53975  0.22934  1.0000 -0.4739406964
O   O62       1.0  0.33369  0.06303  0.27328  1.0000 -0.4739406964
O   O63       1.0  0.78975  0.06041  0.72672  1.0000 -0.4739406964
O   O64       1.0  0.31041  0.08369  0.77065  1.0000 -0.4739406964
O   O65       1.0  0.77493  0.04994  0.36612  1.0000 -0.5143095812
O   O66       1.0  0.65880  0.52493  0.22499  1.0000 -0.5143095812
O   O67       1.0  0.29994  0.43382  0.77501  1.0000 -0.5143095812
O   O68       1.0  0.68382  0.40880  0.63387  1.0000 -0.5143095812
O   O69       1.0  0.47507  0.70006  0.13387  1.0000 -0.5163701138
O   O70       1.0  0.59120  0.22507  0.27501  1.0000 -0.5143095812
O   O71       1.0  0.95006  0.31618  0.72499  1.0000 -0.5143095812
O   O72       1.0  0.56619  0.34120  0.86613  1.0000 -0.5143095812
