# DDEC6 charges by PACMAN v1.1 (https://github.com/mtap-research/PACMAN-charge/)
data_2005[Co][dia]3[ASR]1
_chemical_formula_sum              "Co12 H24 C24 O48"
_cell_length_a       11.2727
_cell_length_b       9.8335
_cell_length_c       18.1136
_cell_angle_alpha    90
_cell_angle_beta     127.234
_cell_angle_gamma    90

_symmetry_space_group_name_H-M    "P 1"
_symmetry_Int_Tables_number       1

loop_
  _symmetry_equiv_pos_as_xyz
  'x, y, z'

loop_
  _atom_site_type_symbol
  _atom_site_label
  _atom_site_symmetry_multiplicity
  _atom_site_fract_x
  _atom_site_fract_y
  _atom_site_fract_z
  _atom_site_occupancy
  _atom_site_charge
Co  Co1       1.0  0.87753  0.08067  0.63285  1.0000 0.959489752
Co  Co2       1.0  0.12247  0.58067  0.86715  1.0000 0.959489752
Co  Co3       1.0  0.12247  0.91933  0.36715  1.0000 0.959489752
Co  Co4       1.0  0.87753  0.41933  0.13285  1.0000 0.959489752
Co  Co5       1.0  0.92869  0.39071  0.68877  1.0000 0.9400515151
Co  Co6       1.0  0.07131  0.89071  0.81123  1.0000 0.9400515151
Co  Co7       1.0  0.07131  0.60929  0.31123  1.0000 0.9400515151
Co  Co8       1.0  0.92869  0.10929  0.18877  1.0000 0.9400515151
Co  Co9       1.0  0.00000  0.00000  0.50000  1.0000 0.9843217623
Co  Co10      1.0  0.00000  0.50000  0.00000  1.0000 0.9843217623
Co  Co11      1.0  0.50000  0.00000  0.50000  1.0000 1.000561763
Co  Co12      1.0  0.50000  0.50000  0.00000  1.0000 1.000561763
H   H1        1.0  0.73100  0.83600  0.43200  1.0000 0.1012773146
H   H2        1.0  0.26900  0.33600  0.06800  1.0000 0.1012773146
H   H3        1.0  0.26900  0.16400  0.56800  1.0000 0.1012773146
H   H4        1.0  0.73100  0.66400  0.93200  1.0000 0.1012773146
H   H5        1.0  0.51500  0.28600  0.50400  1.0000 0.1012773146
H   H6        1.0  0.48500  0.78600  0.99600  1.0000 0.1012773146
H   H7        1.0  0.48500  0.71400  0.49600  1.0000 0.1012773146
H   H8        1.0  0.51500  0.21400  0.00400  1.0000 0.1012773146
H   H9        1.0  0.00600  0.24200  0.86500  1.0000 0.1139067118
H   H10       1.0  0.99400  0.74200  0.63500  1.0000 0.1139067118
H   H11       1.0  0.99400  0.75800  0.13500  1.0000 0.1139067118
H   H12       1.0  0.00600  0.25800  0.36500  1.0000 0.1139067118
H   H13       1.0  0.98700  0.37700  0.54100  1.0000 0.1139067118
H   H14       1.0  0.01300  0.87700  0.95900  1.0000 0.1139067118
H   H15       1.0  0.01300  0.62300  0.45900  1.0000 0.1139067118
H   H16       1.0  0.98700  0.12300  0.04100  1.0000 0.1139067118
H   H17       1.0  0.76200  0.81100  0.74400  1.0000 0.0518351648
H   H18       1.0  0.23800  0.31100  0.75600  1.0000 0.0518351648
H   H19       1.0  0.23800  0.18900  0.25600  1.0000 0.0518351648
H   H20       1.0  0.76200  0.68900  0.24400  1.0000 0.0518351648
H   H21       1.0  0.27400  0.96100  0.75800  1.0000 0.1445429628
H   H22       1.0  0.72600  0.46100  0.74200  1.0000 0.1445429628
H   H23       1.0  0.72600  0.03900  0.24200  1.0000 0.1445429628
H   H24       1.0  0.27400  0.53900  0.25800  1.0000 0.1445429628
C   C1        1.0  0.72890  0.89140  0.47130  1.0000 0.4896189339
C   C2        1.0  0.27110  0.39140  0.02870  1.0000 0.4896189339
C   C3        1.0  0.27110  0.10860  0.52870  1.0000 0.4896189339
C   C4        1.0  0.72890  0.60860  0.97130  1.0000 0.4896189339
C   C5        1.0  0.62120  0.27950  0.54780  1.0000 0.4896189339
C   C6        1.0  0.37880  0.77950  0.95220  1.0000 0.4896189339
C   C7        1.0  0.37880  0.72050  0.45220  1.0000 0.4896189339
C   C8        1.0  0.62120  0.22050  0.04780  1.0000 0.4896189339
C   C9        1.0  0.99790  0.17240  0.83010  1.0000 0.4896189339
C   C10       1.0  0.00210  0.67240  0.66990  1.0000 0.4896189339
C   C11       1.0  0.00210  0.82760  0.16990  1.0000 0.4896189339
C   C12       1.0  0.99790  0.32760  0.33010  1.0000 0.4896189339
C   C13       1.0  0.97250  0.28870  0.54750  1.0000 0.4670897875
C   C14       1.0  0.02750  0.78870  0.95250  1.0000 0.4670897875
C   C15       1.0  0.02750  0.71130  0.45250  1.0000 0.4670897875
C   C16       1.0  0.97250  0.21130  0.04750  1.0000 0.4670897875
C   C17       1.0  0.73320  0.87440  0.68910  1.0000 0.4670897875
C   C18       1.0  0.26680  0.37440  0.81090  1.0000 0.4670897875
C   C19       1.0  0.26680  0.12560  0.31090  1.0000 0.4670897875
C   C20       1.0  0.73320  0.62560  0.18910  1.0000 0.4670897875
C   C21       1.0  0.19560  0.98660  0.71230  1.0000 0.4465025332
C   C22       1.0  0.80440  0.48660  0.78770  1.0000 0.4465025332
C   C23       1.0  0.80440  0.01340  0.28770  1.0000 0.4465025332
C   C24       1.0  0.19560  0.51340  0.21230  1.0000 0.4465025332
O   O1        1.0  0.83851  0.97250  0.52351  1.0000 -0.5699291337
O   O2        1.0  0.16149  0.47250  0.97649  1.0000 -0.5699291337
O   O3        1.0  0.16149  0.02750  0.47649  1.0000 -0.5699291337
O   O4        1.0  0.83851  0.52750  0.02351  1.0000 -0.5699291337
O   O5        1.0  0.61660  0.88310  0.46780  1.0000 -0.50748755
O   O6        1.0  0.38340  0.38310  0.03220  1.0000 -0.50748755
O   O7        1.0  0.38340  0.11690  0.53220  1.0000 -0.50748755
O   O8        1.0  0.61660  0.61690  0.96780  1.0000 -0.50748755
O   O9        1.0  0.66235  0.15570  0.55865  1.0000 -0.5593759645
O   O10       1.0  0.33765  0.65570  0.94135  1.0000 -0.5593759645
O   O11       1.0  0.33765  0.84430  0.44135  1.0000 -0.5593759645
O   O12       1.0  0.66235  0.34430  0.05865  1.0000 -0.5593759645
O   O13       1.0  0.70330  0.37870  0.58990  1.0000 -0.4984531609
O   O14       1.0  0.29670  0.87870  0.91010  1.0000 -0.4984531609
O   O15       1.0  0.29670  0.62130  0.41010  1.0000 -0.4984531609
O   O16       1.0  0.70330  0.12130  0.08990  1.0000 -0.4984531609
O   O17       1.0  0.93471  0.20100  0.74521  1.0000 -0.5593759645
O   O18       1.0  0.06529  0.70100  0.75479  1.0000 -0.5593759645
O   O19       1.0  0.06529  0.79900  0.25479  1.0000 -0.5593759645
O   O20       1.0  0.93471  0.29900  0.24521  1.0000 -0.5593759645
O   O21       1.0  0.05168  0.06170  0.86798  1.0000 -0.4984531609
O   O22       1.0  0.94832  0.56170  0.63202  1.0000 -0.4984531609
O   O23       1.0  0.94832  0.93830  0.13202  1.0000 -0.4984531609
O   O24       1.0  0.05168  0.43830  0.36798  1.0000 -0.4984531609
O   O25       1.0  0.95590  0.25800  0.60880  1.0000 -0.5593759645
O   O26       1.0  0.04410  0.75800  0.89120  1.0000 -0.5593759645
O   O27       1.0  0.04410  0.74200  0.39120  1.0000 -0.5593759645
O   O28       1.0  0.95590  0.24200  0.10880  1.0000 -0.5593759645
O   O29       1.0  0.98070  0.20830  0.49830  1.0000 -0.50748755
O   O30       1.0  0.01930  0.70830  0.00170  1.0000 -0.50748755
O   O31       1.0  0.01930  0.79170  0.50170  1.0000 -0.50748755
O   O32       1.0  0.98070  0.29170  0.99830  1.0000 -0.50748755
O   O33       1.0  0.84498  0.91680  0.69528  1.0000 -0.5593759645
O   O34       1.0  0.15502  0.41680  0.80472  1.0000 -0.5593759645
O   O35       1.0  0.15502  0.08320  0.30472  1.0000 -0.5593759645
O   O36       1.0  0.84498  0.58320  0.19528  1.0000 -0.5593759645
O   O37       1.0  0.60070  0.90070  0.62600  1.0000 -0.4984531609
O   O38       1.0  0.39930  0.40070  0.87400  1.0000 -0.4984531609
O   O39       1.0  0.39930  0.09930  0.37400  1.0000 -0.4984531609
O   O40       1.0  0.60070  0.59930  0.12600  1.0000 -0.4984531609
O   O41       1.0  0.09078  0.99690  0.71948  1.0000 -0.5593759645
O   O42       1.0  0.90922  0.49690  0.78052  1.0000 -0.5593759645
O   O43       1.0  0.90922  0.00310  0.28052  1.0000 -0.5593759645
O   O44       1.0  0.09078  0.50310  0.21948  1.0000 -0.5593759645
O   O45       1.0  0.18380  0.00200  0.64070  1.0000 -0.4911245811
O   O46       1.0  0.81620  0.50200  0.85930  1.0000 -0.4911245811
O   O47       1.0  0.81620  0.99800  0.35930  1.0000 -0.4911245811
O   O48       1.0  0.18380  0.49800  0.14070  1.0000 -0.4911245811
