# DDEC6 charges by PACMAN v1.1 (https://github.com/mtap-research/PACMAN-charge/)
data_2005[Mn][lvt]2[ASR]11
_chemical_formula_sum              "Mn24 H456 C408 N64 O72"
_cell_length_a       30.197
_cell_length_b       30.197
_cell_length_c       30.197
_cell_angle_alpha    94.816
_cell_angle_beta     94.816
_cell_angle_gamma    146.314

_symmetry_space_group_name_H-M    "P 1"
_symmetry_Int_Tables_number       1

loop_
  _symmetry_equiv_pos_as_xyz
  'x, y, z'

loop_
  _atom_site_type_symbol
  _atom_site_label
  _atom_site_symmetry_multiplicity
  _atom_site_fract_x
  _atom_site_fract_y
  _atom_site_fract_z
  _atom_site_occupancy
  _atom_site_charge
Mn  Mn1       1.0  0.88966  0.10499  0.36732  1.0000 0.8863343591
Mn  Mn2       1.0  0.77234  0.63966  0.28467  1.0000 0.8863343591
Mn  Mn3       1.0  0.35499  0.48767  0.71534  1.0000 0.8863343591
Mn  Mn4       1.0  0.73767  0.52234  0.63268  1.0000 0.8863343591
Mn  Mn5       1.0  0.36034  0.64501  0.13268  1.0000 0.8863343591
Mn  Mn6       1.0  0.47766  0.11034  0.21533  1.0000 0.8863343591
Mn  Mn7       1.0  0.89501  0.26233  0.78466  1.0000 0.8839682931
Mn  Mn8       1.0  0.51233  0.22766  0.86732  1.0000 0.8839682931
Mn  Mn9       1.0  0.82348  0.15321  0.24692  1.0000 0.7797318617
Mn  Mn10      1.0  0.82656  0.57348  0.17026  1.0000 0.7797318617
Mn  Mn11      1.0  0.40321  0.65629  0.82974  1.0000 0.7706556911
Mn  Mn12      1.0  0.90629  0.57656  0.75308  1.0000 0.7706556911
Mn  Mn13      1.0  0.42652  0.59679  0.25308  1.0000 0.7797318617
Mn  Mn14      1.0  0.42344  0.17652  0.32974  1.0000 0.7797318617
Mn  Mn15      1.0  0.84679  0.09371  0.67026  1.0000 0.7797318617
Mn  Mn16      1.0  0.34371  0.17344  0.74692  1.0000 0.7797318617
Mn  Mn17      1.0  0.71940  0.82685  0.33350  1.0000 0.7892370715
Mn  Mn18      1.0  0.63590  0.46940  0.39254  1.0000 0.7797318617
Mn  Mn19      1.0  0.07685  0.24335  0.60745  1.0000 0.7797318617
Mn  Mn20      1.0  0.49335  0.38590  0.66650  1.0000 0.7892370715
Mn  Mn21      1.0  0.53060  0.92315  0.16650  1.0000 0.7892370715
Mn  Mn22      1.0  0.61410  0.28060  0.10745  1.0000 0.7892370715
Mn  Mn23      1.0  0.17315  0.50665  0.89255  1.0000 0.7892370715
Mn  Mn24      1.0  0.75665  0.36410  0.83350  1.0000 0.7892370715
H   H1        1.0  0.10830  0.21639  0.34750  1.0000 0.1298034966
H   H2        1.0  0.01080  0.85830  0.39191  1.0000 0.1298034966
H   H3        1.0  0.46639  0.61889  0.60810  1.0000 0.1298034966
H   H4        1.0  0.86889  0.76080  0.65250  1.0000 0.1298034966
H   H5        1.0  0.14170  0.53361  0.15250  1.0000 0.1298034966
H   H6        1.0  0.23920  0.89170  0.10809  1.0000 0.1298034966
H   H7        1.0  0.78361  0.13111  0.89190  1.0000 0.1298034966
H   H8        1.0  0.38111  0.98920  0.84750  1.0000 0.1298034966
H   H9        1.0  0.19740  0.30629  0.30490  1.0000 0.1095811821
H   H10       1.0  0.14250  0.94740  0.39110  1.0000 0.1095811821
H   H11       1.0  0.55629  0.75139  0.60889  1.0000 0.1095811821
H   H12       1.0  0.00139  0.89250  0.69510  1.0000 0.1095811821
H   H13       1.0  0.05260  0.44371  0.19510  1.0000 0.1095811821
H   H14       1.0  0.10750  0.80260  0.10890  1.0000 0.1095811821
H   H15       1.0  0.69371  0.99861  0.89111  1.0000 0.1095811821
H   H16       1.0  0.24861  0.85750  0.80490  1.0000 0.1095811821
H   H17       1.0  0.17850  0.35199  0.26130  1.0000 0.1204550731
H   H18       1.0  0.16720  0.92850  0.32650  1.0000 0.1204550731
H   H19       1.0  0.60199  0.84069  0.67349  1.0000 0.1204550731
H   H20       1.0  0.09069  0.91720  0.73870  1.0000 0.1204550731
H   H21       1.0  0.07150  0.39801  0.23870  1.0000 0.1204550731
H   H22       1.0  0.08280  0.82150  0.17350  1.0000 0.1204550731
H   H23       1.0  0.64801  0.90931  0.82651  1.0000 0.1204550731
H   H24       1.0  0.15931  0.83280  0.76130  1.0000 0.1204550731
H   H25       1.0  0.06300  0.29929  0.25790  1.0000 0.1204550731
H   H26       1.0  0.05510  0.81300  0.26371  1.0000 0.1204550731
H   H27       1.0  0.54929  0.79139  0.73630  1.0000 0.1204550731
H   H28       1.0  0.04139  0.80510  0.74210  1.0000 0.1204550731
H   H29       1.0  0.18700  0.45071  0.24210  1.0000 0.1204550731
H   H30       1.0  0.19490  0.93700  0.23630  1.0000 0.1204550731
H   H31       1.0  0.70071  0.95861  0.76370  1.0000 0.1204550731
H   H32       1.0  0.20861  0.94490  0.75790  1.0000 0.1204550731
H   H33       1.0  0.68910  0.04509  0.30560  1.0000 0.1392802628
H   H34       1.0  0.63350  0.43910  0.14400  1.0000 0.1392802628
H   H35       1.0  0.29509  0.48949  0.85599  1.0000 0.1392802628
H   H36       1.0  0.73949  0.38350  0.69440  1.0000 0.1392802628
H   H37       1.0  0.56090  0.70491  0.19440  1.0000 0.1392802628
H   H38       1.0  0.61650  0.31090  0.35600  1.0000 0.1392802628
H   H39       1.0  0.95491  0.26051  0.64401  1.0000 0.1392802628
H   H40       1.0  0.51051  0.36650  0.80560  1.0000 0.1392802628
H   H41       1.0  0.64740  0.97029  0.32350  1.0000 0.1392802628
H   H42       1.0  0.57390  0.39740  0.17711  1.0000 0.1392802628
H   H43       1.0  0.22029  0.39679  0.82290  1.0000 0.1392802628
H   H44       1.0  0.64679  0.32390  0.67650  1.0000 0.1392802628
H   H45       1.0  0.60260  0.77971  0.17650  1.0000 0.1392802628
H   H46       1.0  0.67610  0.35260  0.32289  1.0000 0.1392802628
H   H47       1.0  0.02971  0.35321  0.67711  1.0000 0.1392802628
H   H48       1.0  0.60321  0.42610  0.82350  1.0000 0.1392802628
H   H49       1.0  0.70480  0.04929  0.40130  1.0000 0.091983722
H   H50       1.0  0.55350  0.45480  0.15551  1.0000 0.091983722
H   H51       1.0  0.29929  0.39799  0.84449  1.0000 0.091983722
H   H52       1.0  0.64799  0.30350  0.59870  1.0000 0.091983722
H   H53       1.0  0.54520  0.70071  0.09870  1.0000 0.091983722
H   H54       1.0  0.69650  0.29520  0.34450  1.0000 0.091983722
H   H55       1.0  0.95071  0.35201  0.65551  1.0000 0.091983722
H   H56       1.0  0.60201  0.44650  0.90130  1.0000 0.091983722
H   H57       1.0  0.64060  0.02819  0.37100  1.0000 0.0994342663
H   H58       1.0  0.51960  0.39060  0.11241  1.0000 0.0994342663
H   H59       1.0  0.27819  0.40719  0.88760  1.0000 0.0994342663
H   H60       1.0  0.65719  0.26960  0.62900  1.0000 0.0994342663
H   H61       1.0  0.60940  0.72181  0.12900  1.0000 0.0994342663
H   H62       1.0  0.73040  0.35940  0.38760  1.0000 0.0994342663
H   H63       1.0  0.97181  0.34281  0.61240  1.0000 0.0994342663
H   H64       1.0  0.59281  0.48040  0.87100  1.0000 0.0994342663
H   H65       1.0  0.75400  0.16409  0.36090  1.0000 0.1095811821
H   H66       1.0  0.64310  0.50400  0.08990  1.0000 0.1095811821
H   H67       1.0  0.41409  0.55319  0.91010  1.0000 0.1095811821
H   H68       1.0  0.80319  0.39310  0.63910  1.0000 0.1095811821
H   H69       1.0  0.49600  0.58591  0.13910  1.0000 0.1095811821
H   H70       1.0  0.60690  0.24600  0.41009  1.0000 0.1095811821
H   H71       1.0  0.83591  0.19681  0.58991  1.0000 0.1095811821
H   H72       1.0  0.44681  0.35690  0.86090  1.0000 0.1095811821
H   H73       1.0  0.81730  0.18499  0.39250  1.0000 0.1095811821
H   H74       1.0  0.67480  0.56730  0.13231  1.0000 0.1095811821
H   H75       1.0  0.43499  0.54249  0.86769  1.0000 0.1095811821
H   H76       1.0  0.79249  0.42480  0.60750  1.0000 0.1095811821
H   H77       1.0  0.43270  0.56501  0.10750  1.0000 0.1095811821
H   H78       1.0  0.57520  0.18270  0.36769  1.0000 0.1095811821
H   H79       1.0  0.81501  0.20751  0.63231  1.0000 0.1095811821
H   H80       1.0  0.45751  0.32520  0.89250  1.0000 0.1095811821
H   H81       1.0  0.70700  0.15119  0.42500  1.0000 0.091983722
H   H82       1.0  0.53200  0.45700  0.05581  1.0000 0.091983722
H   H83       1.0  0.40119  0.47619  0.94420  1.0000 0.091983722
H   H84       1.0  0.72619  0.28200  0.57500  1.0000 0.091983722
H   H85       1.0  0.54300  0.59881  0.07500  1.0000 0.091983722
H   H86       1.0  0.71800  0.29300  0.44420  1.0000 0.091983722
H   H87       1.0  0.84881  0.27381  0.55580  1.0000 0.091983722
H   H88       1.0  0.52381  0.46800  0.92500  1.0000 0.091983722
H   H89       1.0  0.76890  0.17039  0.45670  1.0000 0.091983722
H   H90       1.0  0.56220  0.51890  0.09850  1.0000 0.091983722
H   H91       1.0  0.42039  0.46369  0.90150  1.0000 0.091983722
H   H92       1.0  0.71369  0.31220  0.54330  1.0000 0.091983722
H   H93       1.0  0.48110  0.57961  0.04330  1.0000 0.091983722
H   H94       1.0  0.68780  0.23110  0.40149  1.0000 0.091983722
H   H95       1.0  0.82961  0.28631  0.59850  1.0000 0.091983722
H   H96       1.0  0.53631  0.43780  0.95670  1.0000 0.091983722
H   H97       1.0  0.88420  0.30699  0.44620  1.0000 0.1298034966
H   H98       1.0  0.68800  0.63420  0.07720  1.0000 0.1298034966
H   H99       1.0  0.55699  0.61079  0.92280  1.0000 0.1298034966
H   H100      1.0  0.86079  0.43800  0.55380  1.0000 0.1298034966
H   H101      1.0  0.36580  0.44301  0.05380  1.0000 0.1298034966
H   H102      1.0  0.56200  0.11580  0.42280  1.0000 0.1298034966
H   H103      1.0  0.69301  0.13921  0.57720  1.0000 0.1298034966
H   H104      1.0  0.38921  0.31200  0.94620  1.0000 0.1298034966
H   H105      1.0  0.82030  0.28729  0.41720  1.0000 0.1204550731
H   H106      1.0  0.65310  0.57030  0.03300  1.0000 0.1204550731
H   H107      1.0  0.53729  0.62009  0.96700  1.0000 0.1204550731
H   H108      1.0  0.87009  0.40310  0.58280  1.0000 0.1204550731
H   H109      1.0  0.42970  0.46271  0.08280  1.0000 0.1204550731
H   H110      1.0  0.59690  0.17970  0.46699  1.0000 0.1204550731
H   H111      1.0  0.71271  0.12991  0.53300  1.0000 0.1204550731
H   H112      1.0  0.37991  0.34690  0.91720  1.0000 0.1204550731
H   H113      1.0  0.82900  0.29199  0.47100  1.0000 0.1095811821
H   H114      1.0  0.60800  0.57900  0.03701  1.0000 0.1095811821
H   H115      1.0  0.54199  0.57099  0.96300  1.0000 0.1095811821
H   H116      1.0  0.82099  0.35800  0.52900  1.0000 0.1095811821
H   H117      1.0  0.42100  0.45801  0.02900  1.0000 0.1095811821
H   H118      1.0  0.64200  0.17100  0.46299  1.0000 0.1095811821
H   H119      1.0  0.70801  0.17901  0.53700  1.0000 0.1095811821
H   H120      1.0  0.42901  0.39200  0.97100  1.0000 0.1095811821
H   H121      1.0  0.90770  0.35189  0.32140  1.0000 0.1392802628
H   H122      1.0  0.83630  0.65770  0.05581  1.0000 0.1392802628
H   H123      1.0  0.60189  0.78049  0.94420  1.0000 0.1392802628
H   H124      1.0  0.03049  0.58630  0.67860  1.0000 0.1392802628
H   H125      1.0  0.34230  0.39811  0.17860  1.0000 0.1392802628
H   H126      1.0  0.41370  0.09230  0.44420  1.0000 0.1392802628
H   H127      1.0  0.64811  0.96951  0.55580  1.0000 0.1392802628
H   H128      1.0  0.21951  0.16370  0.82140  1.0000 0.1392802628
H   H129      1.0  0.84290  0.36579  0.32050  1.0000 0.1095811821
H   H130      1.0  0.77240  0.59290  0.97711  1.0000 0.1095811821
H   H131      1.0  0.61579  0.79529  0.02290  1.0000 0.1095811821
H   H132      1.0  0.04529  0.52240  0.67950  1.0000 0.1095811821
H   H133      1.0  0.40710  0.38421  0.17950  1.0000 0.1095811821
H   H134      1.0  0.47760  0.15710  0.52289  1.0000 0.1095811821
H   H135      1.0  0.63421  0.95471  0.47711  1.0000 0.1095811821
H   H136      1.0  0.20471  0.22760  0.82050  1.0000 0.1095811821
H   H137      1.0  0.70820  0.26059  0.27400  1.0000 0.1298034966
H   H138      1.0  0.68420  0.45820  0.94761  1.0000 0.1298034966
H   H139      1.0  0.51059  0.73659  0.05239  1.0000 0.1298034966
H   H140      1.0  0.98659  0.43420  0.72600  1.0000 0.1298034966
H   H141      1.0  0.54180  0.48941  0.22600  1.0000 0.1298034966
H   H142      1.0  0.56580  0.29180  0.55239  1.0000 0.1298034966
H   H143      1.0  0.73941  0.01341  0.44760  1.0000 0.1298034966
H   H144      1.0  0.26341  0.31580  0.77400  1.0000 0.1298034966
H   H145      1.0  0.63480  0.13719  0.23320  1.0000 0.1204550731
H   H146      1.0  0.65160  0.38480  0.99761  1.0000 0.1204550731
H   H147      1.0  0.38719  0.65399  0.00239  1.0000 0.1204550731
H   H148      1.0  0.90399  0.40160  0.76680  1.0000 0.1204550731
H   H149      1.0  0.61520  0.61281  0.26680  1.0000 0.1204550731
H   H150      1.0  0.59840  0.36520  0.50240  1.0000 0.1204550731
H   H151      1.0  0.86281  0.09601  0.49761  1.0000 0.1204550731
H   H152      1.0  0.34601  0.34840  0.73320  1.0000 0.1204550731
H   H153      1.0  0.66590  0.90699  0.16790  1.0000 0.1298034966
H   H154      1.0  0.74800  0.41590  0.25890  1.0000 0.1298034966
H   H155      1.0  0.15699  0.48909  0.74109  1.0000 0.1298034966
H   H156      1.0  0.73909  0.49800  0.83210  1.0000 0.1298034966
H   H157      1.0  0.58410  0.84301  0.33210  1.0000 0.1298034966
H   H158      1.0  0.50200  0.33410  0.24110  1.0000 0.1298034966
H   H159      1.0  0.09301  0.26091  0.75891  1.0000 0.1298034966
H   H160      1.0  0.51091  0.25200  0.66790  1.0000 0.1298034966
H   H161      1.0  0.59790  0.88299  0.14030  1.0000 0.1392802628
H   H162      1.0  0.70760  0.34790  0.21491  1.0000 0.1392802628
H   H163      1.0  0.13299  0.49269  0.78509  1.0000 0.1392802628
H   H164      1.0  0.74269  0.45760  0.85970  1.0000 0.1392802628
H   H165      1.0  0.65210  0.86701  0.35970  1.0000 0.1392802628
H   H166      1.0  0.54240  0.40210  0.28509  1.0000 0.1392802628
H   H167      1.0  0.11701  0.25731  0.71491  1.0000 0.1392802628
H   H168      1.0  0.50731  0.29240  0.64030  1.0000 0.1392802628
H   H169      1.0  0.67460  0.90799  0.09240  1.0000 0.091983722
H   H170      1.0  0.83220  0.42460  0.26660  1.0000 0.091983722
H   H171      1.0  0.15799  0.56559  0.73340  1.0000 0.091983722
H   H172      1.0  0.81559  0.58220  0.90760  1.0000 0.091983722
H   H173      1.0  0.57540  0.84201  0.40760  1.0000 0.091983722
H   H174      1.0  0.41780  0.32540  0.23339  1.0000 0.091983722
H   H175      1.0  0.09201  0.18441  0.76660  1.0000 0.091983722
H   H176      1.0  0.43441  0.16780  0.59240  1.0000 0.091983722
H   H177      1.0  0.75650  0.00309  0.12260  1.0000 0.0994342663
H   H178      1.0  0.88390  0.50650  0.25340  1.0000 0.0994342663
H   H179      1.0  0.25309  0.63049  0.74660  1.0000 0.0994342663
H   H180      1.0  0.88049  0.63390  0.87740  1.0000 0.0994342663
H   H181      1.0  0.49350  0.74691  0.37740  1.0000 0.0994342663
H   H182      1.0  0.36610  0.24350  0.24660  1.0000 0.0994342663
H   H183      1.0  0.99691  0.11951  0.75341  1.0000 0.0994342663
H   H184      1.0  0.36951  0.11610  0.62260  1.0000 0.0994342663
H   H185      1.0  0.61260  0.92429  0.06870  1.0000 0.1095811821
H   H186      1.0  0.79390  0.36260  0.18831  1.0000 0.1095811821
H   H187      1.0  0.17429  0.60559  0.81170  1.0000 0.1095811821
H   H188      1.0  0.85559  0.54390  0.93130  1.0000 0.1095811821
H   H189      1.0  0.63740  0.82571  0.43130  1.0000 0.1095811821
H   H190      1.0  0.45610  0.38740  0.31169  1.0000 0.1095811821
H   H191      1.0  0.07571  0.14441  0.68830  1.0000 0.1095811821
H   H192      1.0  0.39441  0.20610  0.56870  1.0000 0.1095811821
H   H193      1.0  0.69540  0.01969  0.09830  1.0000 0.1095811821
H   H194      1.0  0.84710  0.44540  0.17571  1.0000 0.1095811821
H   H195      1.0  0.26969  0.67139  0.82430  1.0000 0.1095811821
H   H196      1.0  0.92139  0.59710  0.90170  1.0000 0.1095811821
H   H197      1.0  0.55460  0.73031  0.40170  1.0000 0.1095811821
H   H198      1.0  0.40290  0.30460  0.32429  1.0000 0.1095811821
H   H199      1.0  0.98031  0.07861  0.67571  1.0000 0.1095811821
H   H200      1.0  0.32861  0.15290  0.59830  1.0000 0.1095811821
H   H201      1.0  0.68620  0.95099  0.01860  1.0000 0.091983722
H   H202      1.0  0.91760  0.43620  0.23520  1.0000 0.091983722
H   H203      1.0  0.20099  0.68239  0.76480  1.0000 0.091983722
H   H204      1.0  0.93239  0.66760  0.98140  1.0000 0.091983722
H   H205      1.0  0.56380  0.79901  0.48140  1.0000 0.091983722
H   H206      1.0  0.33240  0.31380  0.26480  1.0000 0.091983722
H   H207      1.0  0.04901  0.06761  0.73520  1.0000 0.091983722
H   H208      1.0  0.31761  0.08240  0.51860  1.0000 0.091983722
H   H209      1.0  0.76980  0.04629  0.04850  1.0000 0.091983722
H   H210      1.0  0.97130  0.51980  0.22351  1.0000 0.091983722
H   H211      1.0  0.29629  0.74779  0.77650  1.0000 0.091983722
H   H212      1.0  0.99779  0.72130  0.95150  1.0000 0.091983722
H   H213      1.0  0.48020  0.70371  0.45150  1.0000 0.091983722
H   H214      1.0  0.27870  0.23020  0.27649  1.0000 0.091983722
H   H215      1.0  0.95371  0.00221  0.72350  1.0000 0.091983722
H   H216      1.0  0.25221  0.02870  0.54850  1.0000 0.091983722
H   H217      1.0  0.70480  0.05969  0.02730  1.0000 0.1204550731
H   H218      1.0  0.92750  0.45480  0.14511  1.0000 0.1204550731
H   H219      1.0  0.30969  0.78239  0.85489  1.0000 0.1204550731
H   H220      1.0  0.03239  0.67750  0.97270  1.0000 0.1204550731
H   H221      1.0  0.54520  0.69031  0.47270  1.0000 0.1204550731
H   H222      1.0  0.32250  0.29520  0.35490  1.0000 0.1204550731
H   H223      1.0  0.94031  0.96761  0.64511  1.0000 0.1204550731
H   H224      1.0  0.21761  0.07250  0.52730  1.0000 0.1204550731
H   H225      1.0  0.71900  0.04039  0.98460  1.0000 0.1095811821
H   H226      1.0  0.98440  0.46900  0.17861  1.0000 0.1095811821
H   H227      1.0  0.29039  0.80579  0.82139  1.0000 0.1095811821
H   H228      1.0  0.05579  0.73440  0.01540  1.0000 0.1095811821
H   H229      1.0  0.53100  0.70961  0.51540  1.0000 0.1095811821
H   H230      1.0  0.26560  0.28100  0.32139  1.0000 0.1095811821
H   H231      1.0  0.95961  0.94421  0.67861  1.0000 0.1095811821
H   H232      1.0  0.19421  0.01560  0.48460  1.0000 0.1095811821
H   H233      1.0  0.62880  0.96779  0.99300  1.0000 0.1204550731
H   H234      1.0  0.88580  0.37880  0.16101  1.0000 0.1204550731
H   H235      1.0  0.21779  0.72479  0.83900  1.0000 0.1204550731
H   H236      1.0  0.97479  0.63580  0.00700  1.0000 0.1204550731
H   H237      1.0  0.62120  0.78221  0.50700  1.0000 0.1204550731
H   H238      1.0  0.36420  0.37120  0.33899  1.0000 0.1204550731
H   H239      1.0  0.03221  0.02521  0.66100  1.0000 0.1204550731
H   H240      1.0  0.27521  0.11420  0.49300  1.0000 0.1204550731
H   H241      1.0  0.90530  0.17669  0.17560  1.0000 0.1095811821
H   H242      1.0  0.97970  0.65530  0.22861  1.0000 0.1095811821
H   H243      1.0  0.42669  0.75109  0.77140  1.0000 0.1095811821
H   H244      1.0  0.00109  0.72970  0.82440  1.0000 0.1095811821
H   H245      1.0  0.34470  0.57331  0.32440  1.0000 0.1095811821
H   H246      1.0  0.27030  0.09470  0.27139  1.0000 0.1095811821
H   H247      1.0  0.82331  0.99891  0.72860  1.0000 0.1095811821
H   H248      1.0  0.24891  0.02030  0.67560  1.0000 0.1095811821
H   H249      1.0  0.93820  0.21239  0.10700  1.0000 0.1392802628
H   H250      1.0  0.08120  0.68820  0.22581  1.0000 0.1392802628
H   H251      1.0  0.46239  0.85539  0.77419  1.0000 0.1392802628
H   H252      1.0  0.10539  0.83120  0.89300  1.0000 0.1392802628
H   H253      1.0  0.31180  0.53761  0.39300  1.0000 0.1392802628
H   H254      1.0  0.16880  0.06180  0.27420  1.0000 0.1392802628
H   H255      1.0  0.78761  0.89461  0.72581  1.0000 0.1392802628
H   H256      1.0  0.14461  0.91880  0.60700  1.0000 0.1392802628
H   H257      1.0  0.87620  0.28839  0.11760  1.0000 0.1392802628
H   H258      1.0  0.00860  0.62620  0.08780  1.0000 0.1392802628
H   H259      1.0  0.53839  0.92079  0.91219  1.0000 0.1392802628
H   H260      1.0  0.17079  0.75860  0.88240  1.0000 0.1392802628
H   H261      1.0  0.37380  0.46161  0.38240  1.0000 0.1392802628
H   H262      1.0  0.24140  0.12380  0.41219  1.0000 0.1392802628
H   H263      1.0  0.71161  0.82921  0.58781  1.0000 0.1392802628
H   H264      1.0  0.07921  0.99140  0.61760  1.0000 0.1392802628
H   H265      1.0  0.84090  0.24709  0.18400  1.0000 0.1095811821
H   H266      1.0  0.90690  0.59090  0.09380  1.0000 0.1095811821
H   H267      1.0  0.49709  0.81309  0.90619  1.0000 0.1095811821
H   H268      1.0  0.06309  0.65690  0.81600  1.0000 0.1095811821
H   H269      1.0  0.40910  0.50291  0.31600  1.0000 0.1095811821
H   H270      1.0  0.34310  0.15910  0.40619  1.0000 0.1095811821
H   H271      1.0  0.75291  0.93691  0.59381  1.0000 0.1095811821
H   H272      1.0  0.18691  0.09310  0.68400  1.0000 0.1095811821
H   H273      1.0  0.90420  0.28069  0.04550  1.0000 0.1298034966
H   H274      1.0  0.10870  0.65420  0.12351  1.0000 0.1298034966
H   H275      1.0  0.53069  0.98519  0.87650  1.0000 0.1298034966
H   H276      1.0  0.23519  0.85870  0.95450  1.0000 0.1298034966
H   H277      1.0  0.34580  0.46931  0.45450  1.0000 0.1298034966
H   H278      1.0  0.14130  0.09580  0.37650  1.0000 0.1298034966
H   H279      1.0  0.71931  0.76481  0.62350  1.0000 0.1298034966
H   H280      1.0  0.01481  0.89130  0.54550  1.0000 0.1298034966
H   H281      1.0  0.91330  0.23559  0.03790  1.0000 0.1298034966
H   H282      1.0  0.12540  0.66330  0.17771  1.0000 0.1298034966
H   H283      1.0  0.48559  0.94769  0.82230  1.0000 0.1298034966
H   H284      1.0  0.19769  0.87540  0.96210  1.0000 0.1298034966
H   H285      1.0  0.33670  0.51441  0.46210  1.0000 0.1298034966
H   H286      1.0  0.12460  0.08670  0.32229  1.0000 0.1298034966
H   H287      1.0  0.76441  0.80231  0.67771  1.0000 0.1298034966
H   H288      1.0  0.05231  0.87460  0.53790  1.0000 0.1298034966
H   H289      1.0  0.71950  0.78039  0.46510  1.0000 0.1298034966
H   H290      1.0  0.50440  0.46950  0.43911  1.0000 0.1298034966
H   H291      1.0  0.03039  0.06529  0.56090  1.0000 0.1298034966
H   H292      1.0  0.31529  0.25440  0.53490  1.0000 0.1298034966
H   H293      1.0  0.53050  0.96961  0.03490  1.0000 0.1298034966
H   H294      1.0  0.74560  0.28050  0.06089  1.0000 0.1298034966
H   H295      1.0  0.21961  0.68471  0.93910  1.0000 0.1298034966
H   H296      1.0  0.93471  0.49560  0.96510  1.0000 0.1298034966
H   H297      1.0  0.80000  0.86919  0.53980  1.0000 0.0994342663
H   H298      1.0  0.51020  0.55000  0.43080  1.0000 0.0994342663
H   H299      1.0  0.11919  0.07939  0.56920  1.0000 0.0994342663
H   H300      1.0  0.32939  0.26020  0.46020  1.0000 0.0994342663
H   H301      1.0  0.45000  0.88081  0.96020  1.0000 0.0994342663
H   H302      1.0  0.73980  0.20000  0.06920  1.0000 0.0994342663
H   H303      1.0  0.13081  0.67061  0.93081  1.0000 0.0994342663
H   H304      1.0  0.92061  0.48980  0.03980  1.0000 0.0994342663
H   H305      1.0  0.89150  0.00639  0.55410  1.0000 0.1204550731
H   H306      1.0  0.58740  0.64150  0.38510  1.0000 0.1204550731
H   H307      1.0  0.25639  0.20229  0.61490  1.0000 0.1204550731
H   H308      1.0  0.45229  0.33740  0.44590  1.0000 0.1204550731
H   H309      1.0  0.35850  0.74361  0.94590  1.0000 0.1204550731
H   H310      1.0  0.66260  0.10850  0.11489  1.0000 0.1204550731
H   H311      1.0  0.99361  0.54771  0.88511  1.0000 0.1204550731
H   H312      1.0  0.79771  0.41260  0.05410  1.0000 0.1204550731
H   H313      1.0  0.90090  0.05319  0.49310  1.0000 0.1204550731
H   H314      1.0  0.65780  0.65090  0.34770  1.0000 0.1204550731
H   H315      1.0  0.30319  0.31009  0.65229  1.0000 0.1204550731
H   H316      1.0  0.56009  0.40780  0.50690  1.0000 0.1204550731
H   H317      1.0  0.34910  0.69681  0.00690  1.0000 0.1204550731
H   H318      1.0  0.59220  0.09910  0.15230  1.0000 0.1204550731
H   H319      1.0  0.94681  0.43991  0.84771  1.0000 0.1204550731
H   H320      1.0  0.68991  0.34220  0.99310  1.0000 0.1204550731
H   H321      1.0  0.80920  0.01409  0.25590  1.0000 0.1392802628
H   H322      1.0  0.80330  0.55920  0.29511  1.0000 0.1392802628
H   H323      1.0  0.26409  0.50819  0.70490  1.0000 0.1392802628
H   H324      1.0  0.75819  0.55330  0.74410  1.0000 0.1392802628
H   H325      1.0  0.44080  0.73591  0.24410  1.0000 0.1392802628
H   H326      1.0  0.44670  0.19080  0.20489  1.0000 0.1392802628
H   H327      1.0  0.98591  0.24181  0.79510  1.0000 0.1392802628
H   H328      1.0  0.49181  0.19670  0.75590  1.0000 0.1392802628
H   H329      1.0  0.74060  0.92439  0.22080  1.0000 0.1392802628
H   H330      1.0  0.76980  0.49060  0.31621  1.0000 0.1392802628
H   H331      1.0  0.17439  0.45359  0.68380  1.0000 0.1392802628
H   H332      1.0  0.70359  0.51980  0.77920  1.0000 0.1392802628
H   H333      1.0  0.50940  0.82561  0.27920  1.0000 0.1392802628
H   H334      1.0  0.48020  0.25940  0.18379  1.0000 0.1392802628
H   H335      1.0  0.07561  0.29641  0.81621  1.0000 0.1392802628
H   H336      1.0  0.54641  0.23020  0.72080  1.0000 0.1392802628
H   H337      1.0  0.84500  0.95579  0.21980  1.0000 0.0994342663
H   H338      1.0  0.87520  0.59500  0.38921  1.0000 0.0994342663
H   H339      1.0  0.20579  0.48599  0.61079  1.0000 0.0994342663
H   H340      1.0  0.73599  0.62520  0.78020  1.0000 0.0994342663
H   H341      1.0  0.40500  0.79421  0.28020  1.0000 0.0994342663
H   H342      1.0  0.37480  0.15500  0.11080  1.0000 0.0994342663
H   H343      1.0  0.04421  0.26401  0.88921  1.0000 0.0994342663
H   H344      1.0  0.51401  0.12480  0.71980  1.0000 0.0994342663
H   H345      1.0  0.91390  0.04469  0.25640  1.0000 0.091983722
H   H346      1.0  0.90750  0.66390  0.36921  1.0000 0.091983722
H   H347      1.0  0.29469  0.53829  0.63079  1.0000 0.091983722
H   H348      1.0  0.78829  0.65750  0.74360  1.0000 0.091983722
H   H349      1.0  0.33610  0.70531  0.24360  1.0000 0.091983722
H   H350      1.0  0.34250  0.08610  0.13079  1.0000 0.091983722
H   H351      1.0  0.95531  0.21171  0.86921  1.0000 0.091983722
H   H352      1.0  0.46171  0.09250  0.75640  1.0000 0.091983722
H   H353      1.0  0.83380  0.99479  0.16120  1.0000 0.1095811821
H   H354      1.0  0.92260  0.58380  0.33901  1.0000 0.1095811821
H   H355      1.0  0.24479  0.58359  0.66099  1.0000 0.1095811821
H   H356      1.0  0.83359  0.67260  0.83880  1.0000 0.1095811821
H   H357      1.0  0.41620  0.75521  0.33880  1.0000 0.1095811821
H   H358      1.0  0.32740  0.16620  0.16099  1.0000 0.1095811821
H   H359      1.0  0.00521  0.16641  0.83901  1.0000 0.1095811821
H   H360      1.0  0.41641  0.07740  0.66120  1.0000 0.1095811821
H   H361      1.0  0.88370  0.07539  0.19710  1.0000 0.1095811821
H   H362      1.0  0.93660  0.63370  0.30830  1.0000 0.1095811821
H   H363      1.0  0.32539  0.62829  0.69170  1.0000 0.1095811821
H   H364      1.0  0.87829  0.68660  0.80290  1.0000 0.1095811821
H   H365      1.0  0.36630  0.67461  0.30290  1.0000 0.1095811821
H   H366      1.0  0.31340  0.11630  0.19170  1.0000 0.1095811821
H   H367      1.0  0.92461  0.12171  0.80831  1.0000 0.1095811821
H   H368      1.0  0.37171  0.06340  0.69710  1.0000 0.1095811821
H   H369      1.0  0.95020  0.05349  0.16850  1.0000 0.0994342663
H   H370      1.0  0.03170  0.70020  0.39671  1.0000 0.0994342663
H   H371      1.0  0.30349  0.63499  0.60330  1.0000 0.0994342663
H   H372      1.0  0.88499  0.78170  0.83150  1.0000 0.0994342663
H   H373      1.0  0.29980  0.69651  0.33150  1.0000 0.0994342663
H   H374      1.0  0.21830  0.04980  0.10329  1.0000 0.0994342663
H   H375      1.0  0.94651  0.11501  0.89670  1.0000 0.0994342663
H   H376      1.0  0.36501  0.96830  0.66850  1.0000 0.0994342663
H   H377      1.0  0.00120  0.13359  0.20660  1.0000 0.0994342663
H   H378      1.0  0.04460  0.75120  0.36761  1.0000 0.0994342663
H   H379      1.0  0.38359  0.67699  0.63240  1.0000 0.0994342663
H   H380      1.0  0.92699  0.79460  0.79340  1.0000 0.0994342663
H   H381      1.0  0.24880  0.61641  0.29340  1.0000 0.0994342663
H   H382      1.0  0.20540  0.99880  0.13240  1.0000 0.0994342663
H   H383      1.0  0.86641  0.07301  0.86760  1.0000 0.0994342663
H   H384      1.0  0.32301  0.95540  0.70660  1.0000 0.0994342663
H   H385      1.0  0.91300  0.09839  0.12340  1.0000 0.1095811821
H   H386      1.0  0.03960  0.66300  0.31461  1.0000 0.1095811821
H   H387      1.0  0.34839  0.72499  0.68539  1.0000 0.1095811821
H   H388      1.0  0.97499  0.78960  0.87660  1.0000 0.1095811821
H   H389      1.0  0.33700  0.65161  0.37660  1.0000 0.1095811821
H   H390      1.0  0.21040  0.08700  0.18540  1.0000 0.1095811821
H   H391      1.0  0.90161  0.02501  0.81461  1.0000 0.1095811821
H   H392      1.0  0.27501  0.96040  0.62340  1.0000 0.1095811821
H   H393      1.0  0.98050  0.12029  0.11380  1.0000 0.1204550731
H   H394      1.0  0.11670  0.73050  0.36020  1.0000 0.1204550731
H   H395      1.0  0.37029  0.75649  0.63980  1.0000 0.1204550731
H   H396      1.0  0.00649  0.86670  0.88620  1.0000 0.1204550731
H   H397      1.0  0.26950  0.62971  0.38620  1.0000 0.1204550731
H   H398      1.0  0.13330  0.01950  0.13980  1.0000 0.1204550731
H   H399      1.0  0.87971  0.99351  0.86020  1.0000 0.1204550731
H   H400      1.0  0.24351  0.88330  0.61380  1.0000 0.1204550731
H   H401      1.0  0.00930  0.18669  0.15040  1.0000 0.1204550731
H   H402      1.0  0.10890  0.75930  0.32260  1.0000 0.1204550731
H   H403      1.0  0.43669  0.78629  0.67739  1.0000 0.1204550731
H   H404      1.0  0.03629  0.85890  0.84960  1.0000 0.1204550731
H   H405      1.0  0.24070  0.56331  0.34960  1.0000 0.1204550731
H   H406      1.0  0.14110  0.99070  0.17740  1.0000 0.1204550731
H   H407      1.0  0.81331  0.96371  0.82261  1.0000 0.1204550731
H   H408      1.0  0.21371  0.89110  0.65040  1.0000 0.1204550731
H   H409      1.0  0.21630  0.55869  0.00280  1.0000 0.1204550731
H   H410      1.0  0.46350  0.96630  0.15760  1.0000 0.1204550731
H   H411      1.0  0.80869  0.30589  0.84240  1.0000 0.1204550731
H   H412      1.0  0.55589  0.21350  0.99720  1.0000 0.1204550731
H   H413      1.0  0.03370  0.19131  0.49720  1.0000 0.1204550731
H   H414      1.0  0.78650  0.78370  0.34240  1.0000 0.1204550731
H   H415      1.0  0.44131  0.44411  0.65761  1.0000 0.1204550731
H   H416      1.0  0.69411  0.53650  0.50280  1.0000 0.1204550731
H   H417      1.0  0.16270  0.50619  0.06450  1.0000 0.1392802628
H   H418      1.0  0.34820  0.91270  0.15651  1.0000 0.1392802628
H   H419      1.0  0.75619  0.19169  0.84349  1.0000 0.1392802628
H   H420      1.0  0.44169  0.09820  0.93550  1.0000 0.1392802628
H   H421      1.0  0.08730  0.24381  0.43550  1.0000 0.1392802628
H   H422      1.0  0.90180  0.83730  0.34350  1.0000 0.1392802628
H   H423      1.0  0.49381  0.55831  0.65651  1.0000 0.1392802628
H   H424      1.0  0.80831  0.65180  0.56450  1.0000 0.1392802628
H   H425      1.0  0.94930  0.28199  0.97330  1.0000 0.1392802628
H   H426      1.0  0.22600  0.69930  0.16731  1.0000 0.1392802628
H   H427      1.0  0.53199  0.05869  0.83269  1.0000 0.1392802628
H   H428      1.0  0.30869  0.97600  0.02670  1.0000 0.1392802628
H   H429      1.0  0.30070  0.46801  0.52670  1.0000 0.1392802628
H   H430      1.0  0.02400  0.05070  0.33270  1.0000 0.1392802628
H   H431      1.0  0.71801  0.69131  0.66731  1.0000 0.1392802628
H   H432      1.0  0.94131  0.77400  0.47330  1.0000 0.1392802628
H   H433      1.0  0.00860  0.34099  0.91460  1.0000 0.1095811821
H   H434      1.0  0.34400  0.75860  0.16761  1.0000 0.1095811821
H   H435      1.0  0.59099  0.17639  0.83239  1.0000 0.1095811821
H   H436      1.0  0.42639  0.09400  0.08540  1.0000 0.1095811821
H   H437      1.0  0.24140  0.40901  0.58540  1.0000 0.1095811821
H   H438      1.0  0.90600  0.99140  0.33239  1.0000 0.1095811821
H   H439      1.0  0.65901  0.57361  0.66761  1.0000 0.1095811821
H   H440      1.0  0.82361  0.65600  0.41460  1.0000 0.1095811821
H   H441      1.0  0.03310  0.39399  0.08910  1.0000 0.1298034966
H   H442      1.0  0.19400  0.78310  0.13911  1.0000 0.1298034966
H   H443      1.0  0.64399  0.05489  0.86089  1.0000 0.1298034966
H   H444      1.0  0.30489  0.94400  0.91090  1.0000 0.1298034966
H   H445      1.0  0.21690  0.35601  0.41090  1.0000 0.1298034966
H   H446      1.0  0.05600  0.96690  0.36090  1.0000 0.1298034966
H   H447      1.0  0.60601  0.69511  0.63911  1.0000 0.1298034966
H   H448      1.0  0.94511  0.80600  0.58910  1.0000 0.1298034966
H   H449      1.0  0.04230  0.34929  0.08260  1.0000 0.1298034966
H   H450      1.0  0.20970  0.79230  0.19301  1.0000 0.1298034966
H   H451      1.0  0.59929  0.01669  0.80700  1.0000 0.1298034966
H   H452      1.0  0.26669  0.95970  0.91740  1.0000 0.1298034966
H   H453      1.0  0.20770  0.40071  0.41740  1.0000 0.1298034966
H   H454      1.0  0.04030  0.95770  0.30700  1.0000 0.1298034966
H   H455      1.0  0.65071  0.73331  0.69300  1.0000 0.1298034966
H   H456      1.0  0.98331  0.79030  0.58260  1.0000 0.1298034966
C   C1        1.0  0.03096  0.20477  0.33054  1.0000 0.2888517486
C   C2        1.0  0.95042  0.78096  0.32619  1.0000 0.2888517486
C   C3        1.0  0.45477  0.62423  0.67382  1.0000 0.2888517486
C   C4        1.0  0.87423  0.70042  0.66946  1.0000 0.2888517486
C   C5        1.0  0.21904  0.54523  0.16946  1.0000 0.2888517486
C   C6        1.0  0.29958  0.96904  0.17381  1.0000 0.2888517486
C   C7        1.0  0.79523  0.12577  0.82618  1.0000 0.2888517486
C   C8        1.0  0.37577  0.04958  0.83054  1.0000 0.2888517486
C   C9        1.0  0.09910  0.23387  0.32998  1.0000 -0.2300353269
C   C10       1.0  0.01912  0.84910  0.36523  1.0000 -0.2300353269
C   C11       1.0  0.48387  0.65389  0.63477  1.0000 -0.2300353269
C   C12       1.0  0.90389  0.76912  0.67002  1.0000 -0.2300353269
C   C13       1.0  0.15090  0.51613  0.17002  1.0000 -0.2300353269
C   C14       1.0  0.23088  0.90090  0.13478  1.0000 -0.2300353269
C   C15       1.0  0.76613  0.09611  0.86523  1.0000 -0.2300353269
C   C16       1.0  0.34611  0.98088  0.82998  1.0000 -0.2300353269
C   C17       1.0  0.15170  0.28698  0.30449  1.0000 -0.0779511236
C   C18       1.0  0.09721  0.90170  0.36472  1.0000 -0.0779511236
C   C19       1.0  0.53698  0.73249  0.63528  1.0000 -0.0779511236
C   C20       1.0  0.98249  0.84721  0.69551  1.0000 -0.0779511236
C   C21       1.0  0.09830  0.46302  0.19551  1.0000 -0.0779511236
C   C22       1.0  0.15279  0.84830  0.13528  1.0000 -0.0779511236
C   C23       1.0  0.71302  0.01751  0.86472  1.0000 -0.0779511236
C   C24       1.0  0.26751  0.90279  0.80449  1.0000 -0.0779511236
C   C25       1.0  0.14026  0.31355  0.27802  1.0000 -0.1507510853
C   C26       1.0  0.11224  0.89026  0.32671  1.0000 -0.1507510853
C   C27       1.0  0.56355  0.78553  0.67329  1.0000 -0.1507510853
C   C28       1.0  0.03553  0.86224  0.72198  1.0000 -0.1507510853
C   C29       1.0  0.10974  0.43645  0.22198  1.0000 -0.1507510853
C   C30       1.0  0.13776  0.85974  0.17330  1.0000 -0.1507510853
C   C31       1.0  0.68645  0.96447  0.82671  1.0000 -0.1507510853
C   C32       1.0  0.21447  0.88776  0.77802  1.0000 -0.1507510853
C   C33       1.0  0.07235  0.28293  0.27669  1.0000 -0.0989178471
C   C34       1.0  0.04566  0.82235  0.28942  1.0000 -0.0989178471
C   C35       1.0  0.53293  0.75624  0.71059  1.0000 -0.0989178471
C   C36       1.0  0.00624  0.79566  0.72331  1.0000 -0.0989178471
C   C37       1.0  0.17765  0.46707  0.22331  1.0000 -0.0989178471
C   C38       1.0  0.20434  0.92765  0.21058  1.0000 -0.0989178471
C   C39       1.0  0.71707  0.99376  0.78941  1.0000 -0.0989178471
C   C40       1.0  0.24376  0.95434  0.77669  1.0000 -0.0989178471
C   C41       1.0  0.01701  0.22883  0.30185  1.0000 -0.1397800342
C   C42       1.0  0.96516  0.76701  0.28818  1.0000 -0.1397800342
C   C43       1.0  0.47883  0.67698  0.71183  1.0000 -0.1397800342
C   C44       1.0  0.92698  0.71516  0.69815  1.0000 -0.1397800342
C   C45       1.0  0.23299  0.52117  0.19815  1.0000 -0.1397800342
C   C46       1.0  0.28484  0.98299  0.21183  1.0000 -0.1397800342
C   C47       1.0  0.77117  0.07302  0.78818  1.0000 -0.1397800342
C   C48       1.0  0.32302  0.03484  0.80185  1.0000 -0.1397800342
C   C49       1.0  0.94411  0.19616  0.29610  1.0000 0.4370507332
C   C50       1.0  0.89801  0.69411  0.24795  1.0000 0.4370507332
C   C51       1.0  0.44616  0.65006  0.75206  1.0000 0.4370507332
C   C52       1.0  0.90006  0.64801  0.70390  1.0000 0.4370507332
C   C53       1.0  0.30589  0.55384  0.20390  1.0000 0.4370507332
C   C54       1.0  0.35199  0.05589  0.25205  1.0000 0.4370507332
C   C55       1.0  0.80384  0.09994  0.74794  1.0000 0.4370507332
C   C56       1.0  0.34994  0.10199  0.79610  1.0000 0.4370507332
C   C57       1.0  0.77390  0.07086  0.33683  1.0000 0.4657999383
C   C58       1.0  0.68707  0.52390  0.20303  1.0000 0.4657999383
C   C59       1.0  0.32086  0.48403  0.79697  1.0000 0.4657999383
C   C60       1.0  0.73403  0.43707  0.66317  1.0000 0.4657999383
C   C61       1.0  0.47610  0.67914  0.16317  1.0000 0.4657999383
C   C62       1.0  0.56293  0.22610  0.29696  1.0000 0.4657999383
C   C63       1.0  0.92914  0.26597  0.70303  1.0000 0.4657999383
C   C64       1.0  0.51597  0.31293  0.83683  1.0000 0.4657999383
C   C65       1.0  0.69562  0.03145  0.33148  1.0000 -0.3094320524
C   C66       1.0  0.61414  0.44562  0.16417  1.0000 -0.3094320524
C   C67       1.0  0.28145  0.44997  0.83583  1.0000 -0.3094320524
C   C68       1.0  0.69997  0.36414  0.66852  1.0000 -0.3094320524
C   C69       1.0  0.55438  0.71855  0.16852  1.0000 -0.3042582279
C   C70       1.0  0.63586  0.30438  0.33583  1.0000 -0.3094320524
C   C71       1.0  0.96855  0.30003  0.66417  1.0000 -0.3094320524
C   C72       1.0  0.55003  0.38586  0.83148  1.0000 -0.3094320524
C   C73       1.0  0.69576  0.06068  0.37525  1.0000 -0.1333150919
C   C74       1.0  0.57051  0.44576  0.13508  1.0000 -0.1333150919
C   C75       1.0  0.31068  0.43543  0.86493  1.0000 -0.1333150919
C   C76       1.0  0.68543  0.32051  0.62475  1.0000 -0.1333150919
C   C77       1.0  0.55424  0.68932  0.12475  1.0000 -0.1333150919
C   C78       1.0  0.67949  0.30424  0.36492  1.0000 -0.1333150919
C   C79       1.0  0.93932  0.31457  0.63507  1.0000 -0.1333150919
C   C80       1.0  0.56457  0.42949  0.87525  1.0000 -0.1333150919
C   C81       1.0  0.76215  0.15272  0.38748  1.0000 -0.1790687081
C   C82       1.0  0.62467  0.51215  0.10942  1.0000 -0.1790687081
C   C83       1.0  0.40272  0.51524  0.89058  1.0000 -0.1790687081
C   C84       1.0  0.76524  0.37467  0.61252  1.0000 -0.1790687081
C   C85       1.0  0.48785  0.59728  0.11252  1.0000 -0.1790687081
C   C86       1.0  0.62533  0.23785  0.39058  1.0000 -0.1790687081
C   C87       1.0  0.84728  0.23476  0.60943  1.0000 -0.1790687081
C   C88       1.0  0.48476  0.37533  0.88748  1.0000 -0.1790687081
C   C89       1.0  0.76165  0.18247  0.43013  1.0000 -0.119084613
C   C90       1.0  0.58152  0.51165  0.07917  1.0000 -0.119084613
C   C91       1.0  0.43247  0.50234  0.92083  1.0000 -0.119084613
C   C92       1.0  0.75234  0.33152  0.56987  1.0000 -0.119084613
C   C93       1.0  0.48835  0.56753  0.06987  1.0000 -0.119084613
C   C94       1.0  0.66848  0.23835  0.42083  1.0000 -0.119084613
C   C95       1.0  0.81753  0.24766  0.57917  1.0000 -0.119084613
C   C96       1.0  0.49766  0.41848  0.93013  1.0000 -0.119084613
C   C97       1.0  0.82999  0.27563  0.44223  1.0000 -0.3812654702
C   C98       1.0  0.63776  0.57999  0.05436  1.0000 -0.3812654702
C   C99       1.0  0.52563  0.58340  0.94564  1.0000 -0.3812654702
C   C100      1.0  0.83340  0.38776  0.55777  1.0000 -0.3812654702
C   C101      1.0  0.42001  0.47437  0.05777  1.0000 -0.3812654702
C   C102      1.0  0.61224  0.17001  0.44565  1.0000 -0.3812654702
C   C103      1.0  0.72437  0.16660  0.55436  1.0000 -0.3812654702
C   C104      1.0  0.41660  0.36224  0.94223  1.0000 -0.3812654702
C   C105      1.0  0.81023  0.23522  0.27706  1.0000 0.2812518174
C   C106      1.0  0.78317  0.56023  0.07501  1.0000 0.2812518174
C   C107      1.0  0.48522  0.70816  0.92500  1.0000 0.2812518174
C   C108      1.0  0.95816  0.53317  0.72294  1.0000 0.2812518174
C   C109      1.0  0.43977  0.51478  0.22294  1.0000 0.2812518174
C   C110      1.0  0.46683  0.18977  0.42500  1.0000 0.2812518174
C   C111      1.0  0.76478  0.04184  0.57500  1.0000 0.2812518174
C   C112      1.0  0.29184  0.21683  0.77706  1.0000 0.2812518174
C   C113      1.0  0.85203  0.30777  0.30301  1.0000 -0.2196359392
C   C114      1.0  0.79902  0.60203  0.04426  1.0000 -0.2196359392
C   C115      1.0  0.55777  0.75476  0.95575  1.0000 -0.2196359392
C   C116      1.0  0.00476  0.54902  0.69699  1.0000 -0.2196359392
C   C117      1.0  0.39797  0.44223  0.19699  1.0000 -0.2196359392
C   C118      1.0  0.45098  0.14797  0.45575  1.0000 -0.2196359392
C   C119      1.0  0.69223  0.99524  0.54426  1.0000 -0.2196359392
C   C120      1.0  0.24524  0.20098  0.80301  1.0000 -0.2196359392
C   C121      1.0  0.81380  0.31632  0.30233  1.0000 -0.0655095564
C   C122      1.0  0.76147  0.56380  0.99748  1.0000 -0.0655095564
C   C123      1.0  0.56632  0.76399  0.00252  1.0000 -0.0655095564
C   C124      1.0  0.01399  0.51147  0.69767  1.0000 -0.0655095564
C   C125      1.0  0.43620  0.43368  0.19767  1.0000 -0.0655095564
C   C126      1.0  0.48853  0.18620  0.50252  1.0000 -0.0655095564
C   C127      1.0  0.68368  0.98601  0.49748  1.0000 -0.0655095564
C   C128      1.0  0.23601  0.23853  0.80233  1.0000 -0.0655095564
C   C129      1.0  0.73378  0.25371  0.27550  1.0000 -0.1333150919
C   C130      1.0  0.70828  0.48378  0.98006  1.0000 -0.1333150919
C   C131      1.0  0.50371  0.72821  0.01994  1.0000 -0.1333150919
C   C132      1.0  0.97821  0.45828  0.72450  1.0000 -0.1333150919
C   C133      1.0  0.51622  0.49629  0.22450  1.0000 -0.1333150919
C   C134      1.0  0.54172  0.26622  0.51994  1.0000 -0.1333150919
C   C135      1.0  0.74629  0.02179  0.48007  1.0000 -0.1333150919
C   C136      1.0  0.27179  0.29172  0.77550  1.0000 -0.1333150919
C   C137      1.0  0.69078  0.18098  0.25077  1.0000 -0.0779511236
C   C138      1.0  0.69001  0.44078  0.00979  1.0000 -0.0779511236
C   C139      1.0  0.43098  0.68021  0.99021  1.0000 -0.0779511236
C   C140      1.0  0.93021  0.44001  0.74923  1.0000 -0.0779511236
C   C141      1.0  0.55922  0.56902  0.24923  1.0000 -0.0779511236
C   C142      1.0  0.55999  0.30922  0.49021  1.0000 -0.0779511236
C   C143      1.0  0.81902  0.06979  0.50979  1.0000 -0.0779511236
C   C144      1.0  0.31979  0.30999  0.75077  1.0000 -0.0779511236
C   C145      1.0  0.72691  0.16961  0.25073  1.0000 -0.1507510853
C   C146      1.0  0.72618  0.47691  0.05729  1.0000 -0.1507510853
C   C147      1.0  0.41961  0.66888  0.94271  1.0000 -0.1507510853
C   C148      1.0  0.91888  0.47618  0.74927  1.0000 -0.1507510853
C   C149      1.0  0.52309  0.58039  0.24927  1.0000 -0.1507510853
C   C150      1.0  0.52382  0.27309  0.44271  1.0000 -0.1507510853
C   C151      1.0  0.83039  0.08112  0.55729  1.0000 -0.1507510853
C   C152      1.0  0.33112  0.27382  0.75073  1.0000 -0.1507510853
C   C153      1.0  0.67667  0.09016  0.22270  1.0000 0.43033456
C   C154      1.0  0.70397  0.42667  0.08650  1.0000 0.43033456
C   C155      1.0  0.34016  0.61746  0.91349  1.0000 0.43033456
C   C156      1.0  0.86746  0.45397  0.77730  1.0000 0.43033456
C   C157      1.0  0.57333  0.65984  0.27730  1.0000 0.43033456
C   C158      1.0  0.54603  0.32333  0.41350  1.0000 0.43033456
C   C159      1.0  0.90984  0.13254  0.58651  1.0000 0.43033456
C   C160      1.0  0.38254  0.29603  0.72270  1.0000 0.43033456
C   C161      1.0  0.69904  0.00066  0.18525  1.0000 0.4586966647
C   C162      1.0  0.76379  0.44904  0.19838  1.0000 0.4586966647
C   C163      1.0  0.25066  0.56541  0.80163  1.0000 0.4586966647
C   C164      1.0  0.81541  0.51379  0.81475  1.0000 0.4586966647
C   C165      1.0  0.55096  0.74934  0.31475  1.0000 0.4586966647
C   C166      1.0  0.48621  0.30096  0.30162  1.0000 0.4586966647
C   C167      1.0  0.99934  0.18459  0.69837  1.0000 0.4586966647
C   C168      1.0  0.43459  0.23621  0.68525  1.0000 0.4586966647
C   C169      1.0  0.65828  0.92827  0.15176  1.0000 -0.3094320524
C   C170      1.0  0.75652  0.40828  0.23000  1.0000 -0.3094320524
C   C171      1.0  0.17827  0.52651  0.77000  1.0000 -0.3094320524
C   C172      1.0  0.77651  0.50652  0.84824  1.0000 -0.3094320524
C   C173      1.0  0.59172  0.82173  0.34824  1.0000 -0.3094320524
C   C174      1.0  0.49348  0.34172  0.26999  1.0000 -0.3094320524
C   C175      1.0  0.07173  0.22349  0.73001  1.0000 -0.3094320524
C   C176      1.0  0.47349  0.24348  0.65176  1.0000 -0.3094320524
C   C177      1.0  0.69535  0.95364  0.11080  1.0000 -0.1333150919
C   C178      1.0  0.83455  0.44535  0.24171  1.0000 -0.1333150919
C   C179      1.0  0.20364  0.59284  0.75830  1.0000 -0.1333150919
C   C180      1.0  0.84284  0.58455  0.88920  1.0000 -0.1333150919
C   C181      1.0  0.55465  0.79636  0.38920  1.0000 -0.1333150919
C   C182      1.0  0.41545  0.30465  0.25829  1.0000 -0.1333150919
C   C183      1.0  0.04636  0.15716  0.74170  1.0000 -0.1333150919
C   C184      1.0  0.40716  0.16545  0.61080  1.0000 -0.1333150919
C   C185      1.0  0.67372  0.97339  0.07972  1.0000 -0.1790687081
C   C186      1.0  0.84400  0.42372  0.20033  1.0000 -0.1790687081
C   C187      1.0  0.22339  0.64367  0.79968  1.0000 -0.1790687081
C   C188      1.0  0.89367  0.59400  0.92028  1.0000 -0.1790687081
C   C189      1.0  0.57628  0.77661  0.42028  1.0000 -0.1790687081
C   C190      1.0  0.40600  0.32628  0.29968  1.0000 -0.1790687081
C   C191      1.0  0.02661  0.10633  0.70032  1.0000 -0.1790687081
C   C192      1.0  0.35633  0.15600  0.57972  1.0000 -0.1790687081
C   C193      1.0  0.70862  0.99767  0.03750  1.0000 -0.1051321501
C   C194      1.0  0.92112  0.45862  0.21094  1.0000 -0.1051321501
C   C195      1.0  0.24767  0.71017  0.78906  1.0000 -0.1051321501
C   C196      1.0  0.96017  0.67112  0.96250  1.0000 -0.1051321501
C   C197      1.0  0.54138  0.75233  0.46250  1.0000 -0.1051321501
C   C198      1.0  0.32888  0.29138  0.28906  1.0000 -0.1051321501
C   C199      1.0  0.00233  0.03983  0.71095  1.0000 -0.1051321501
C   C200      1.0  0.28983  0.07888  0.53750  1.0000 -0.1051321501
C   C201      1.0  0.68864  0.01808  0.00813  1.0000 -0.3925971991
C   C202      1.0  0.93051  0.43864  0.17056  1.0000 -0.3925971991
C   C203      1.0  0.26808  0.75995  0.82945  1.0000 -0.3925971991
C   C204      1.0  0.00995  0.68051  0.99187  1.0000 -0.3925971991
C   C205      1.0  0.56136  0.73192  0.49187  1.0000 -0.3925971991
C   C206      1.0  0.31949  0.31136  0.32944  1.0000 -0.3925971991
C   C207      1.0  0.98192  0.99005  0.67056  1.0000 -0.3925971991
C   C208      1.0  0.24005  0.06949  0.50813  1.0000 -0.3925971991
C   C209      1.0  0.89853  0.19909  0.16323  1.0000 0.0724229323
C   C210      1.0  0.98530  0.64853  0.19944  1.0000 0.0724229323
C   C211      1.0  0.44909  0.78586  0.80056  1.0000 0.0724229323
C   C212      1.0  0.03586  0.73530  0.83677  1.0000 0.0724229323
C   C213      1.0  0.35147  0.55091  0.33677  1.0000 0.0724229323
C   C214      1.0  0.26470  0.10147  0.30057  1.0000 0.0724229323
C   C215      1.0  0.80091  0.96414  0.69944  1.0000 0.0724229323
C   C216      1.0  0.21414  0.01470  0.66323  1.0000 0.0724229323
C   C217      1.0  0.91832  0.22036  0.12229  1.0000 -0.2076235916
C   C218      1.0  0.04603  0.66832  0.19796  1.0000 -0.2076235916
C   C219      1.0  0.47036  0.84807  0.80205  1.0000 -0.2076235916
C   C220      1.0  0.09807  0.79603  0.87771  1.0000 -0.2076235916
C   C221      1.0  0.33168  0.52964  0.37771  1.0000 -0.2076235916
C   C222      1.0  0.20397  0.08168  0.30205  1.0000 -0.2076235916
C   C223      1.0  0.77964  0.90193  0.69795  1.0000 -0.202858992
C   C224      1.0  0.15193  0.95397  0.62229  1.0000 -0.2076235916
C   C225      1.0  0.90906  0.25291  0.10378  1.0000 0.1580228017
C   C226      1.0  0.05528  0.65906  0.15615  1.0000 0.1580228017
C   C227      1.0  0.50291  0.89913  0.84386  1.0000 0.1580228017
C   C228      1.0  0.14913  0.80528  0.89622  1.0000 0.1580228017
C   C229      1.0  0.34094  0.49709  0.39622  1.0000 0.1580228017
C   C230      1.0  0.19472  0.09094  0.34386  1.0000 0.1580228017
C   C231      1.0  0.74709  0.85087  0.65614  1.0000 0.1580228017
C   C232      1.0  0.10087  0.94472  0.60378  1.0000 0.1580228017
C   C233      1.0  0.88152  0.26404  0.12837  1.0000 -0.2196359392
C   C234      1.0  0.00315  0.63152  0.11747  1.0000 -0.2196359392
C   C235      1.0  0.51404  0.88567  0.88253  1.0000 -0.2196359392
C   C236      1.0  0.13567  0.75315  0.87163  1.0000 -0.2196359392
C   C237      1.0  0.36848  0.48596  0.37163  1.0000 -0.2196359392
C   C238      1.0  0.24685  0.11848  0.38253  1.0000 -0.2196359392
C   C239      1.0  0.73596  0.86433  0.61747  1.0000 -0.2196359392
C   C240      1.0  0.11433  0.99685  0.62837  1.0000 -0.2196359392
C   C241      1.0  0.86175  0.24040  0.16836  1.0000 0.0782838133
C   C242      1.0  0.94339  0.61175  0.12134  1.0000 0.0782838133
C   C243      1.0  0.49040  0.82204  0.87866  1.0000 0.0782838133
C   C244      1.0  0.07204  0.69339  0.83164  1.0000 0.0782838133
C   C245      1.0  0.38825  0.50960  0.33164  1.0000 0.0782838133
C   C246      1.0  0.30661  0.13825  0.37866  1.0000 0.0782838133
C   C247      1.0  0.75960  0.92796  0.62135  1.0000 0.0782838133
C   C248      1.0  0.17796  0.05661  0.66836  1.0000 0.0782838133
C   C249      1.0  0.93286  0.27841  0.05988  1.0000 -0.2196359392
C   C250      1.0  0.12298  0.68286  0.15444  1.0000 -0.2300353269
C   C251      1.0  0.52841  0.96853  0.84555  1.0000 -0.2300353269
C   C252      1.0  0.21853  0.87298  0.94012  1.0000 -0.2300353269
C   C253      1.0  0.31714  0.47159  0.44012  1.0000 -0.2300353269
C   C254      1.0  0.12702  0.06714  0.34556  1.0000 -0.2196359392
C   C255      1.0  0.72159  0.78147  0.65445  1.0000 -0.2300353269
C   C256      1.0  0.03147  0.87702  0.55988  1.0000 -0.2300353269
C   C257      1.0  0.76186  0.86331  0.43258  1.0000 0.2888517486
C   C258      1.0  0.57928  0.51186  0.39854  1.0000 0.2888517486
C   C259      1.0  0.11331  0.18073  0.60145  1.0000 0.2888517486
C   C260      1.0  0.43073  0.32928  0.56742  1.0000 0.2888517486
C   C261      1.0  0.48814  0.88669  0.06742  1.0000 0.2888517486
C   C262      1.0  0.67072  0.23814  0.10146  1.0000 0.2888517486
C   C263      1.0  0.13669  0.56927  0.89855  1.0000 0.2888517486
C   C264      1.0  0.81927  0.42072  0.93258  1.0000 0.2888517486
C   C265      1.0  0.75663  0.83620  0.47024  1.0000 -0.2076235916
C   C266      1.0  0.53639  0.50663  0.42042  1.0000 -0.2196359392
C   C267      1.0  0.08620  0.11596  0.57957  1.0000 -0.2196359392
C   C268      1.0  0.36596  0.28639  0.52976  1.0000 -0.2196359392
C   C269      1.0  0.49337  0.91380  0.02976  1.0000 -0.2196359392
C   C270      1.0  0.71361  0.24337  0.07958  1.0000 -0.2196359392
C   C271      1.0  0.16380  0.63404  0.92043  1.0000 -0.2196359392
C   C272      1.0  0.88404  0.46361  0.97024  1.0000 -0.2196359392
C   C273      1.0  0.80457  0.88911  0.51489  1.0000 -0.0779511236
C   C274      1.0  0.53968  0.55457  0.41546  1.0000 -0.0779511236
C   C275      1.0  0.13911  0.12422  0.58454  1.0000 -0.0779511236
C   C276      1.0  0.37422  0.28968  0.48511  1.0000 -0.0779511236
C   C277      1.0  0.44543  0.86089  0.98511  1.0000 -0.0779511236
C   C278      1.0  0.71032  0.19543  0.08454  1.0000 -0.0779511236
C   C279      1.0  0.11089  0.62578  0.91546  1.0000 -0.0779511236
C   C280      1.0  0.87578  0.46032  0.01489  1.0000 -0.0779511236
C   C281      1.0  0.85858  0.97010  0.52349  1.0000 -0.1397800342
C   C282      1.0  0.58509  0.60858  0.38848  1.0000 -0.1397800342
C   C283      1.0  0.22010  0.19661  0.61152  1.0000 -0.1397800342
C   C284      1.0  0.44661  0.33509  0.47651  1.0000 -0.1333150919
C   C285      1.0  0.39142  0.77990  0.97651  1.0000 -0.1397800342
C   C286      1.0  0.66491  0.14142  0.11152  1.0000 -0.1397800342
C   C287      1.0  0.02990  0.55339  0.88848  1.0000 -0.1397800342
C   C288      1.0  0.80339  0.41491  0.02349  1.0000 -0.1397800342
C   C289      1.0  0.86402  0.99744  0.48707  1.0000 -0.0890331795
C   C290      1.0  0.62695  0.61402  0.36657  1.0000 -0.0890331795
C   C291      1.0  0.24744  0.26037  0.63343  1.0000 -0.0890331795
C   C292      1.0  0.51037  0.37695  0.51293  1.0000 -0.0890331795
C   C293      1.0  0.38598  0.75256  0.01293  1.0000 -0.0890331795
C   C294      1.0  0.62305  0.13598  0.13342  1.0000 -0.0890331795
C   C295      1.0  0.00256  0.48963  0.86657  1.0000 -0.0890331795
C   C296      1.0  0.73963  0.37305  0.98707  1.0000 -0.0890331795
C   C297      1.0  0.81738  0.94653  0.44126  1.0000 -0.1507510853
C   C298      1.0  0.62612  0.56738  0.37084  1.0000 -0.1507510853
C   C299      1.0  0.19653  0.25527  0.62916  1.0000 -0.1507510853
C   C300      1.0  0.50527  0.37612  0.55874  1.0000 -0.1507510853
C   C301      1.0  0.43262  0.80347  0.05874  1.0000 -0.1507510853
C   C302      1.0  0.62388  0.18262  0.12915  1.0000 -0.1507510853
C   C303      1.0  0.05347  0.49473  0.87084  1.0000 -0.1507510853
C   C304      1.0  0.74473  0.37388  0.94126  1.0000 -0.1507510853
C   C305      1.0  0.82761  0.98174  0.40476  1.0000 0.43033456
C   C306      1.0  0.67285  0.57761  0.34586  1.0000 0.43033456
C   C307      1.0  0.23174  0.32698  0.65414  1.0000 0.43033456
C   C308      1.0  0.57698  0.42285  0.59524  1.0000 0.43033456
C   C309      1.0  0.42239  0.76826  0.09524  1.0000 0.43033456
C   C310      1.0  0.57715  0.17239  0.15414  1.0000 0.43033456
C   C311      1.0  0.01826  0.42302  0.84586  1.0000 0.43033456
C   C312      1.0  0.67302  0.32715  0.90476  1.0000 0.43033456
C   C313      1.0  0.77543  0.93380  0.28684  1.0000 0.4586966647
C   C314      1.0  0.73859  0.52543  0.34163  1.0000 0.4586966647
C   C315      1.0  0.18380  0.39696  0.65838  1.0000 0.4586966647
C   C316      1.0  0.64696  0.48859  0.71316  1.0000 0.4586966647
C   C317      1.0  0.47457  0.81620  0.21316  1.0000 0.4586966647
C   C318      1.0  0.51141  0.22457  0.15837  1.0000 0.4586966647
C   C319      1.0  0.06620  0.35304  0.84162  1.0000 0.4586966647
C   C320      1.0  0.60304  0.26141  0.78684  1.0000 0.4586966647
C   C321      1.0  0.79216  0.96836  0.24673  1.0000 -0.3094320524
C   C322      1.0  0.79543  0.54216  0.32379  1.0000 -0.3094320524
C   C323      1.0  0.21836  0.47163  0.67620  1.0000 -0.3094320524
C   C324      1.0  0.72163  0.54543  0.75327  1.0000 -0.3094320524
C   C325      1.0  0.45784  0.78164  0.25327  1.0000 -0.3094320524
C   C326      1.0  0.45457  0.20784  0.17621  1.0000 -0.3094320524
C   C327      1.0  0.03164  0.27837  0.82380  1.0000 -0.3094320524
C   C328      1.0  0.52837  0.20457  0.74673  1.0000 -0.3094320524
C   C329      1.0  0.86274  0.00191  0.23026  1.0000 -0.119084613
C   C330      1.0  0.88248  0.61274  0.36083  1.0000 -0.119084613
C   C331      1.0  0.25191  0.52165  0.63918  1.0000 -0.119084613
C   C332      1.0  0.77165  0.63248  0.76974  1.0000 -0.119084613
C   C333      1.0  0.38726  0.74809  0.26974  1.0000 -0.119084613
C   C334      1.0  0.36752  0.13726  0.13917  1.0000 -0.119084613
C   C335      1.0  0.99809  0.22835  0.86083  1.0000 -0.119084613
C   C336      1.0  0.47835  0.11752  0.73026  1.0000 -0.119084613
C   C337      1.0  0.88100  0.04059  0.18920  1.0000 -0.1790687081
C   C338      1.0  0.94180  0.63100  0.34041  1.0000 -0.1790687081
C   C339      1.0  0.29059  0.60139  0.65960  1.0000 -0.1790687081
C   C340      1.0  0.85139  0.69180  0.81080  1.0000 -0.1790687081
C   C341      1.0  0.36900  0.70941  0.31080  1.0000 -0.1790687081
C   C342      1.0  0.30820  0.11900  0.15959  1.0000 -0.1790687081
C   C343      1.0  0.95941  0.14861  0.84040  1.0000 -0.1790687081
C   C344      1.0  0.39861  0.05820  0.68920  1.0000 -0.1790687081
C   C345      1.0  0.95330  0.08829  0.17880  1.0000 -0.1333150919
C   C346      1.0  0.02450  0.70330  0.36501  1.0000 -0.1333150919
C   C347      1.0  0.33829  0.65949  0.63499  1.0000 -0.1333150919
C   C348      1.0  0.90949  0.77450  0.82120  1.0000 -0.1333150919
C   C349      1.0  0.29670  0.66171  0.32120  1.0000 -0.1333150919
C   C350      1.0  0.22550  0.04670  0.13500  1.0000 -0.1333150919
C   C351      1.0  0.91171  0.09051  0.86501  1.0000 -0.1333150919
C   C352      1.0  0.34051  0.97550  0.67880  1.0000 -0.1333150919
C   C353      1.0  0.96530  0.12739  0.13750  1.0000 -0.374972493
C   C354      1.0  0.07780  0.71530  0.33791  1.0000 -0.3812654702
C   C355      1.0  0.37739  0.73989  0.66209  1.0000 -0.3812654702
C   C356      1.0  0.98989  0.82780  0.86250  1.0000 -0.374972493
C   C357      1.0  0.28470  0.62261  0.36250  1.0000 -0.3812654702
C   C358      1.0  0.17220  0.03470  0.16209  1.0000 -0.374972493
C   C359      1.0  0.87261  0.01011  0.83791  1.0000 -0.374972493
C   C360      1.0  0.26011  0.92220  0.63750  1.0000 -0.374972493
C   C361      1.0  0.16094  0.50144  0.99679  1.0000 0.0994342663
C   C362      1.0  0.41415  0.91094  0.15949  1.0000 0.0994342663
C   C363      1.0  0.75144  0.25465  0.84050  1.0000 0.0994342663
C   C364      1.0  0.50465  0.16415  0.00321  1.0000 0.0994342663
C   C365      1.0  0.08906  0.24856  0.50321  1.0000 0.0994342663
C   C366      1.0  0.83585  0.83906  0.34051  1.0000 0.0994342663
C   C367      1.0  0.49856  0.49535  0.65950  1.0000 0.0994342663
C   C368      1.0  0.74535  0.58585  0.49679  1.0000 0.0994342663
C   C369      1.0  0.12985  0.47058  0.03384  1.0000 -0.202858992
C   C370      1.0  0.34601  0.87985  0.15926  1.0000 -0.202858992
C   C371      1.0  0.72058  0.18674  0.84074  1.0000 -0.202858992
C   C372      1.0  0.43674  0.09601  0.96616  1.0000 -0.202858992
C   C373      1.0  0.12015  0.27942  0.46616  1.0000 -0.202858992
C   C374      1.0  0.90399  0.87015  0.34074  1.0000 -0.202858992
C   C375      1.0  0.52942  0.56326  0.65926  1.0000 -0.202858992
C   C376      1.0  0.81326  0.65399  0.53384  1.0000 -0.202858992
C   C377      1.0  0.05054  0.38735  0.02590  1.0000 0.1678063231
C   C378      1.0  0.27464  0.80054  0.16318  1.0000 0.1678063231
C   C379      1.0  0.63735  0.11145  0.83681  1.0000 0.1678063231
C   C380      1.0  0.36145  0.02464  0.97410  1.0000 0.1678063231
C   C381      1.0  0.19946  0.36265  0.47410  1.0000 0.1678063231
C   C382      1.0  0.97536  0.94946  0.33681  1.0000 0.1678063231
C   C383      1.0  0.61265  0.63855  0.66319  1.0000 0.1678063231
C   C384      1.0  0.88855  0.72536  0.52590  1.0000 0.1678063231
C   C385      1.0  0.00486  0.33930  0.98037  1.0000 -0.2076235916
C   C386      1.0  0.27449  0.75486  0.16556  1.0000 -0.2076235916
C   C387      1.0  0.58930  0.10893  0.83445  1.0000 -0.2076235916
C   C388      1.0  0.35893  0.02449  0.01963  1.0000 -0.2076235916
C   C389      1.0  0.24514  0.41070  0.51963  1.0000 -0.2076235916
C   C390      1.0  0.97551  0.99514  0.33444  1.0000 -0.2076235916
C   C391      1.0  0.66070  0.64107  0.66556  1.0000 -0.2076235916
C   C392      1.0  0.89107  0.72551  0.48037  1.0000 -0.2076235916
C   C393      1.0  0.04042  0.37501  0.94564  1.0000 0.0782838133
C   C394      1.0  0.34478  0.79042  0.16540  1.0000 0.0782838133
C   C395      1.0  0.62501  0.17937  0.83459  1.0000 0.0782838133
C   C396      1.0  0.42937  0.09478  0.05436  1.0000 0.0782838133
C   C397      1.0  0.20958  0.37499  0.55436  1.0000 0.0782838133
C   C398      1.0  0.90522  0.95958  0.33459  1.0000 0.0782838133
C   C399      1.0  0.62499  0.57063  0.66541  1.0000 0.0782838133
C   C400      1.0  0.82063  0.65522  0.44564  1.0000 0.0782838133
C   C401      1.0  0.01516  0.35251  0.06688  1.0000 -0.2196359392
C   C402      1.0  0.19828  0.76516  0.16265  1.0000 -0.2196359392
C   C403      1.0  0.60251  0.03563  0.83736  1.0000 -0.2076235916
C   C404      1.0  0.28563  0.94828  0.93312  1.0000 -0.2196359392
C   C405      1.0  0.23484  0.39749  0.43312  1.0000 -0.2196359392
C   C406      1.0  0.05172  0.98484  0.33736  1.0000 -0.2196359392
C   C407      1.0  0.64749  0.71437  0.66265  1.0000 -0.2076235916
C   C408      1.0  0.96437  0.80172  0.56688  1.0000 -0.2196359392
N   N1        1.0  0.88978  0.14453  0.31968  1.0000 -0.3335433012
N   N2        1.0  0.82010  0.63978  0.24524  1.0000 -0.3335433012
N   N3        1.0  0.39453  0.57485  0.75475  1.0000 -0.3335433012
N   N4        1.0  0.82485  0.57010  0.68032  1.0000 -0.3335433012
N   N5        1.0  0.36022  0.60547  0.18032  1.0000 -0.3335433012
N   N6        1.0  0.42990  0.11022  0.25476  1.0000 -0.3335433012
N   N7        1.0  0.85547  0.17515  0.74525  1.0000 -0.3335433012
N   N8        1.0  0.42515  0.17990  0.81968  1.0000 -0.3335433012
N   N9        1.0  0.82053  0.11537  0.30965  1.0000 -0.3094320524
N   N10       1.0  0.76088  0.57053  0.20516  1.0000 -0.3094320524
N   N11       1.0  0.36537  0.55572  0.79485  1.0000 -0.3094320524
N   N12       1.0  0.80572  0.51088  0.69035  1.0000 -0.3094320524
N   N13       1.0  0.42947  0.63463  0.19035  1.0000 -0.3094320524
N   N14       1.0  0.48912  0.17947  0.29485  1.0000 -0.3094320524
N   N15       1.0  0.88463  0.19428  0.70515  1.0000 -0.3094320524
N   N16       1.0  0.44428  0.23912  0.80965  1.0000 -0.3094320524
N   N17       1.0  0.71160  0.08047  0.21918  1.0000 -0.3204254253
N   N18       1.0  0.74242  0.46160  0.13112  1.0000 -0.3204254253
N   N19       1.0  0.33047  0.61129  0.86887  1.0000 -0.3204254253
N   N20       1.0  0.86129  0.49242  0.78082  1.0000 -0.3204254253
N   N21       1.0  0.53840  0.66953  0.28082  1.0000 -0.3204254253
N   N22       1.0  0.50758  0.28840  0.36888  1.0000 -0.3204254253
N   N23       1.0  0.91953  0.13871  0.63113  1.0000 -0.3204254253
N   N24       1.0  0.38871  0.25758  0.71918  1.0000 -0.3204254253
N   N25       1.0  0.65968  0.00435  0.18804  1.0000 -0.3042582279
N   N26       1.0  0.72164  0.40968  0.15532  1.0000 -0.3042582279
N   N27       1.0  0.25435  0.56631  0.84467  1.0000 -0.3042582279
N   N28       1.0  0.81631  0.47164  0.81196  1.0000 -0.3042582279
N   N29       1.0  0.59032  0.74565  0.31196  1.0000 -0.3042582279
N   N30       1.0  0.52836  0.34032  0.34468  1.0000 -0.3042582279
N   N31       1.0  0.99565  0.18369  0.65533  1.0000 -0.3042582279
N   N32       1.0  0.43369  0.27836  0.68804  1.0000 -0.3042582279
N   N33       1.0  0.87016  0.20913  0.18600  1.0000 -0.202858992
N   N34       1.0  0.93416  0.62016  0.16103  1.0000 -0.202858992
N   N35       1.0  0.45913  0.77313  0.83898  1.0000 -0.202858992
N   N36       1.0  0.02313  0.68416  0.81400  1.0000 -0.202858992
N   N37       1.0  0.37984  0.54087  0.31400  1.0000 -0.202858992
N   N38       1.0  0.31584  0.12984  0.33898  1.0000 -0.202858992
N   N39       1.0  0.79087  0.97687  0.66102  1.0000 -0.202858992
N   N40       1.0  0.22687  0.06584  0.68600  1.0000 -0.202858992
N   N41       1.0  0.78714  0.93588  0.36125  1.0000 -0.3204254253
N   N42       1.0  0.67589  0.53714  0.35125  1.0000 -0.3204254253
N   N43       1.0  0.18588  0.32463  0.64875  1.0000 -0.3204254253
N   N44       1.0  0.57463  0.42589  0.63875  1.0000 -0.3204254253
N   N45       1.0  0.46286  0.81412  0.13875  1.0000 -0.3204254253
N   N46       1.0  0.57411  0.21286  0.14875  1.0000 -0.3204254253
N   N47       1.0  0.06412  0.42537  0.85125  1.0000 -0.3204254253
N   N48       1.0  0.67537  0.32411  0.86125  1.0000 -0.3204254253
N   N49       1.0  0.80561  0.97801  0.32871  1.0000 -0.3335433012
N   N50       1.0  0.72690  0.55561  0.32760  1.0000 -0.3335433012
N   N51       1.0  0.22801  0.39930  0.67241  1.0000 -0.3335433012
N   N52       1.0  0.64930  0.47690  0.67129  1.0000 -0.3335433012
N   N53       1.0  0.44439  0.77199  0.17129  1.0000 -0.3335433012
N   N54       1.0  0.52310  0.19439  0.17241  1.0000 -0.3335433012
N   N55       1.0  0.02199  0.35070  0.82759  1.0000 -0.3335433012
N   N56       1.0  0.60070  0.27310  0.82871  1.0000 -0.3335433012
N   N57       1.0  0.11739  0.45518  0.95320  1.0000 -0.2196359392
N   N58       1.0  0.41419  0.86739  0.16220  1.0000 -0.2196359392
N   N59       1.0  0.70518  0.25198  0.83780  1.0000 -0.2196359392
N   N60       1.0  0.50198  0.16419  0.04680  1.0000 -0.2196359392
N   N61       1.0  0.13261  0.29482  0.54680  1.0000 -0.2196359392
N   N62       1.0  0.83581  0.88261  0.33780  1.0000 -0.2196359392
N   N63       1.0  0.54482  0.49802  0.66221  1.0000 -0.2196359392
N   N64       1.0  0.74802  0.58581  0.45320  1.0000 -0.2196359392
O   O1        1.0  0.98370  0.15545  0.35760  1.0000 -0.5010697847
O   O2        1.0  0.87610  0.73370  0.32825  1.0000 -0.5010697847
O   O3        1.0  0.40545  0.54785  0.67175  1.0000 -0.5010697847
O   O4        1.0  0.79785  0.62610  0.64240  1.0000 -0.5010697847
O   O5        1.0  0.26630  0.59455  0.14240  1.0000 -0.5010697847
O   O6        1.0  0.37390  0.01630  0.17175  1.0000 -0.5010697847
O   O7        1.0  0.84455  0.20215  0.82825  1.0000 -0.5010697847
O   O8        1.0  0.45215  0.12390  0.85760  1.0000 -0.5010697847
O   O9        1.0  0.93395  0.21769  0.26769  1.0000 -0.4516315883
O   O10       1.0  0.91626  0.68395  0.21626  1.0000 -0.4516315883
O   O11       1.0  0.46769  0.70000  0.78375  1.0000 -0.4516315883
O   O12       1.0  0.95000  0.66626  0.73231  1.0000 -0.4516315883
O   O13       1.0  0.31605  0.53231  0.23231  1.0000 -0.4516315883
O   O14       1.0  0.33374  0.06605  0.28375  1.0000 -0.4516315883
O   O15       1.0  0.78231  0.05000  0.71626  1.0000 -0.4516315883
O   O16       1.0  0.30000  0.08374  0.76769  1.0000 -0.4516315883
O   O17       1.0  0.79258  0.05854  0.36901  1.0000 -0.5076158127
O   O18       1.0  0.67357  0.54258  0.23403  1.0000 -0.5076158127
O   O19       1.0  0.30854  0.43953  0.76597  1.0000 -0.5076158127
O   O20       1.0  0.68953  0.42357  0.63099  1.0000 -0.5076158127
O   O21       1.0  0.45742  0.69146  0.13099  1.0000 -0.5076158127
O   O22       1.0  0.57643  0.20742  0.26597  1.0000 -0.5076158127
O   O23       1.0  0.94146  0.31047  0.73403  1.0000 -0.5076158127
O   O24       1.0  0.56047  0.32643  0.86901  1.0000 -0.5076158127
O   O25       1.0  0.85231  0.23270  0.27934  1.0000 -0.4693933314
O   O26       1.0  0.82297  0.60231  0.11961  1.0000 -0.4693933314
O   O27       1.0  0.48270  0.70336  0.88040  1.0000 -0.4693933314
O   O28       1.0  0.95336  0.57297  0.72066  1.0000 -0.4572871248
O   O29       1.0  0.39769  0.51730  0.22066  1.0000 -0.4693933314
O   O30       1.0  0.42703  0.14769  0.38040  1.0000 -0.4693933314
O   O31       1.0  0.76730  0.04664  0.61960  1.0000 -0.4693933314
O   O32       1.0  0.29664  0.17703  0.77934  1.0000 -0.4693933314
O   O33       1.0  0.60043  0.03271  0.20115  1.0000 -0.4572871248
O   O34       1.0  0.64928  0.35043  0.06771  1.0000 -0.4572871248
O   O35       1.0  0.28271  0.58156  0.93229  1.0000 -0.4572871248
O   O36       1.0  0.83156  0.39928  0.79885  1.0000 -0.4572871248
O   O37       1.0  0.64957  0.71729  0.29885  1.0000 -0.4572871248
O   O38       1.0  0.60072  0.39957  0.43228  1.0000 -0.4516315883
O   O39       1.0  0.96729  0.16844  0.56771  1.0000 -0.4516315883
O   O40       1.0  0.41844  0.35072  0.70115  1.0000 -0.4572871248
O   O41       1.0  0.77560  0.06004  0.20923  1.0000 -0.4859008139
O   O42       1.0  0.81637  0.52560  0.21555  1.0000 -0.4815285949
O   O43       1.0  0.31004  0.60081  0.78444  1.0000 -0.4815285949
O   O44       1.0  0.85081  0.56637  0.79077  1.0000 -0.4815285949
O   O45       1.0  0.47440  0.68996  0.29077  1.0000 -0.4859008139
O   O46       1.0  0.43363  0.22440  0.28445  1.0000 -0.4859008139
O   O47       1.0  0.93996  0.14919  0.71556  1.0000 -0.4859008139
O   O48       1.0  0.39919  0.18363  0.70923  1.0000 -0.4859008139
O   O49       1.0  0.71448  0.80861  0.39108  1.0000 -0.4815285949
O   O50       1.0  0.57340  0.46448  0.40586  1.0000 -0.4815285949
O   O51       1.0  0.05861  0.16753  0.59413  1.0000 -0.4815285949
O   O52       1.0  0.41753  0.32340  0.60892  1.0000 -0.4815285949
O   O53       1.0  0.53552  0.94139  0.10892  1.0000 -0.4815285949
O   O54       1.0  0.67660  0.28552  0.09413  1.0000 -0.4815285949
O   O55       1.0  0.19139  0.58247  0.90587  1.0000 -0.4815285949
O   O56       1.0  0.83247  0.42660  0.89108  1.0000 -0.4815285949
O   O57       1.0  0.87759  0.05763  0.41579  1.0000 -0.4815285949
O   O58       1.0  0.71180  0.62759  0.31995  1.0000 -0.4815285949
O   O59       1.0  0.30763  0.39184  0.68005  1.0000 -0.4815285949
O   O60       1.0  0.64184  0.46180  0.58421  1.0000 -0.4815285949
O   O61       1.0  0.37241  0.69237  0.08421  1.0000 -0.4815285949
O   O62       1.0  0.53820  0.12241  0.18005  1.0000 -0.4815285949
O   O63       1.0  0.94237  0.35816  0.81995  1.0000 -0.4815285949
O   O64       1.0  0.60816  0.28820  0.91579  1.0000 -0.4815285949
O   O65       1.0  0.73526  0.86259  0.27842  1.0000 -0.4693933314
O   O66       1.0  0.70684  0.48526  0.37267  1.0000 -0.4693933314
O   O67       1.0  0.11259  0.33417  0.62734  1.0000 -0.4693933314
O   O68       1.0  0.58417  0.45684  0.72158  1.0000 -0.4693933314
O   O69       1.0  0.51474  0.88741  0.22158  1.0000 -0.4693933314
O   O70       1.0  0.54316  0.26474  0.12734  1.0000 -0.4693933314
O   O71       1.0  0.13741  0.41583  0.87267  1.0000 -0.4693933314
O   O72       1.0  0.66583  0.29316  0.77842  1.0000 -0.4693933314
