# DDEC6 charges by PACMAN v1.1 (https://github.com/mtap-research/PACMAN-charge/)
data_2005[Pr][nan]3[ASR]3
_chemical_formula_sum              "Pr8 H72 C60 O48"
_cell_length_a       8.717
_cell_length_b       13.083
_cell_length_c       31.05
_cell_angle_alpha    90
_cell_angle_beta     90
_cell_angle_gamma    90

_symmetry_space_group_name_H-M    "P 1"
_symmetry_Int_Tables_number       1

loop_
  _symmetry_equiv_pos_as_xyz
  'x, y, z'

loop_
  _atom_site_type_symbol
  _atom_site_label
  _atom_site_symmetry_multiplicity
  _atom_site_fract_x
  _atom_site_fract_y
  _atom_site_fract_z
  _atom_site_occupancy
  _atom_site_charge
Pr  Pr1       1.0  0.33122  0.76085  0.09330  1.0000 2.0951658679
Pr  Pr2       1.0  0.16878  0.26085  0.90670  1.0000 2.0951658679
Pr  Pr3       1.0  0.83122  0.73915  0.40670  1.0000 2.0951658679
Pr  Pr4       1.0  0.66878  0.23915  0.59330  1.0000 2.0951658679
Pr  Pr5       1.0  0.66878  0.23915  0.90670  1.0000 2.0951658679
Pr  Pr6       1.0  0.83122  0.73915  0.09330  1.0000 2.0951658679
Pr  Pr7       1.0  0.16878  0.26085  0.59330  1.0000 2.0951658679
Pr  Pr8       1.0  0.33122  0.76085  0.40670  1.0000 2.0951658679
H   H1        1.0  0.38290  0.12390  0.12620  1.0000 0.1226016847
H   H2        1.0  0.11710  0.62390  0.87380  1.0000 0.1226016847
H   H3        1.0  0.88290  0.37610  0.37380  1.0000 0.1226016847
H   H4        1.0  0.61710  0.87610  0.62620  1.0000 0.1226016847
H   H5        1.0  0.61710  0.87610  0.87380  1.0000 0.1226016847
H   H6        1.0  0.88290  0.37610  0.12620  1.0000 0.1226016847
H   H7        1.0  0.11710  0.62390  0.62620  1.0000 0.1226016847
H   H8        1.0  0.38290  0.12390  0.37380  1.0000 0.1226016847
H   H9        1.0  0.24000  0.13250  0.09560  1.0000 0.1129538013
H   H10       1.0  0.26000  0.63250  0.90440  1.0000 0.1129538013
H   H11       1.0  0.74000  0.36750  0.40440  1.0000 0.1129538013
H   H12       1.0  0.76000  0.86750  0.59560  1.0000 0.1129538013
H   H13       1.0  0.76000  0.86750  0.90440  1.0000 0.1129538013
H   H14       1.0  0.74000  0.36750  0.09560  1.0000 0.1129538013
H   H15       1.0  0.26000  0.63250  0.59560  1.0000 0.1129538013
H   H16       1.0  0.24000  0.13250  0.40440  1.0000 0.1129538013
H   H17       1.0  0.46640  0.21700  0.06740  1.0000 0.0825056066
H   H18       1.0  0.03360  0.71700  0.93260  1.0000 0.0825056066
H   H19       1.0  0.96640  0.28300  0.43260  1.0000 0.0825056066
H   H20       1.0  0.53360  0.78300  0.56740  1.0000 0.0825056066
H   H21       1.0  0.53360  0.78300  0.93260  1.0000 0.0825056066
H   H22       1.0  0.96640  0.28300  0.06740  1.0000 0.0825056066
H   H23       1.0  0.03360  0.71700  0.56740  1.0000 0.0825056066
H   H24       1.0  0.46640  0.21700  0.43260  1.0000 0.0825056066
H   H25       1.0  0.54300  0.10910  0.06270  1.0000 0.0963941855
H   H26       1.0  0.95700  0.60910  0.93730  1.0000 0.0963941855
H   H27       1.0  0.04300  0.39090  0.43730  1.0000 0.0963941855
H   H28       1.0  0.45700  0.89090  0.56270  1.0000 0.0963941855
H   H29       1.0  0.45700  0.89090  0.93730  1.0000 0.0963941855
H   H30       1.0  0.04300  0.39090  0.06270  1.0000 0.0963941855
H   H31       1.0  0.95700  0.60910  0.56270  1.0000 0.0963941855
H   H32       1.0  0.54300  0.10910  0.43730  1.0000 0.0963941855
H   H33       1.0  0.35510  0.06040  0.01270  1.0000 0.1392674862
H   H34       1.0  0.14490  0.56040  0.98730  1.0000 0.1392674862
H   H35       1.0  0.85510  0.43960  0.48730  1.0000 0.1392674862
H   H36       1.0  0.64490  0.93960  0.51270  1.0000 0.1392674862
H   H37       1.0  0.64490  0.93960  0.98730  1.0000 0.1392674862
H   H38       1.0  0.85510  0.43960  0.01270  1.0000 0.1392674862
H   H39       1.0  0.14490  0.56040  0.51270  1.0000 0.1392674862
H   H40       1.0  0.35510  0.06040  0.48730  1.0000 0.1392674862
H   H41       1.0  0.27250  0.16590  0.01830  1.0000 0.1294866769
H   H42       1.0  0.22750  0.66590  0.98170  1.0000 0.1294866769
H   H43       1.0  0.77250  0.33410  0.48170  1.0000 0.1294866769
H   H44       1.0  0.72750  0.83410  0.51830  1.0000 0.1294866769
H   H45       1.0  0.72750  0.83410  0.98170  1.0000 0.1294866769
H   H46       1.0  0.77250  0.33410  0.01830  1.0000 0.1294866769
H   H47       1.0  0.22750  0.66590  0.51830  1.0000 0.1294866769
H   H48       1.0  0.27250  0.16590  0.48170  1.0000 0.1294866769
H   H49       1.0  0.00440  0.90720  0.20840  1.0000 0.1392674862
H   H50       1.0  0.49560  0.40720  0.79160  1.0000 0.1392674862
H   H51       1.0  0.50440  0.59280  0.29160  1.0000 0.1392674862
H   H52       1.0  0.99560  0.09280  0.70840  1.0000 0.1392674862
H   H53       1.0  0.99560  0.09280  0.79160  1.0000 0.1392674862
H   H54       1.0  0.50440  0.59280  0.20840  1.0000 0.1392674862
H   H55       1.0  0.49560  0.40720  0.70840  1.0000 0.1392674862
H   H56       1.0  0.00440  0.90720  0.29160  1.0000 0.1392674862
H   H57       1.0  0.94390  0.79440  0.20940  1.0000 0.1294866769
H   H58       1.0  0.55610  0.29440  0.79060  1.0000 0.1294866769
H   H59       1.0  0.44390  0.70560  0.29060  1.0000 0.1294866769
H   H60       1.0  0.05610  0.20560  0.70940  1.0000 0.1294866769
H   H61       1.0  0.05610  0.20560  0.79060  1.0000 0.1294866769
H   H62       1.0  0.44390  0.70560  0.20940  1.0000 0.1294866769
H   H63       1.0  0.55610  0.29440  0.70940  1.0000 0.1294866769
H   H64       1.0  0.94390  0.79440  0.29060  1.0000 0.1294866769
H   H65       1.0  0.21550  0.86040  0.25000  1.0000 0.0914772829
H   H66       1.0  0.28450  0.36040  0.75000  1.0000 0.0914772829
H   H67       1.0  0.71550  0.63960  0.25000  1.0000 0.0914772829
H   H68       1.0  0.78450  0.13960  0.75000  1.0000 0.0914772829
H   H69       1.0  0.16040  0.74650  0.25000  1.0000 0.0914772829
H   H70       1.0  0.33960  0.24650  0.75000  1.0000 0.0914772829
H   H71       1.0  0.66040  0.75350  0.25000  1.0000 0.0914772829
H   H72       1.0  0.83960  0.25350  0.75000  1.0000 0.0914772829
C   C1        1.0  0.33230  0.98690  0.09612  1.0000 0.6233018829
C   C2        1.0  0.16770  0.48690  0.90388  1.0000 0.6233018829
C   C3        1.0  0.83230  0.51310  0.40388  1.0000 0.6233018829
C   C4        1.0  0.66770  0.01310  0.59612  1.0000 0.6233018829
C   C5        1.0  0.66770  0.01310  0.90388  1.0000 0.6233018829
C   C6        1.0  0.83230  0.51310  0.09612  1.0000 0.6233018829
C   C7        1.0  0.16770  0.48690  0.59612  1.0000 0.6233018829
C   C8        1.0  0.33230  0.98690  0.40388  1.0000 0.6233018829
C   C9        1.0  0.34190  0.10360  0.09840  1.0000 -0.3079795944
C   C10       1.0  0.15810  0.60360  0.90160  1.0000 -0.3079795944
C   C11       1.0  0.84190  0.39640  0.40160  1.0000 -0.3079795944
C   C12       1.0  0.65810  0.89640  0.59840  1.0000 -0.3079795944
C   C13       1.0  0.65810  0.89640  0.90160  1.0000 -0.3079795944
C   C14       1.0  0.84190  0.39640  0.09840  1.0000 -0.3079795944
C   C15       1.0  0.15810  0.60360  0.59840  1.0000 -0.3079795944
C   C16       1.0  0.34190  0.10360  0.40160  1.0000 -0.3079795944
C   C17       1.0  0.44590  0.14520  0.06220  1.0000 -0.0981130781
C   C18       1.0  0.05410  0.64520  0.93780  1.0000 -0.0981130781
C   C19       1.0  0.94590  0.35480  0.43780  1.0000 -0.0981130781
C   C20       1.0  0.55410  0.85480  0.56220  1.0000 -0.0981130781
C   C21       1.0  0.55410  0.85480  0.93780  1.0000 -0.0981130781
C   C22       1.0  0.94590  0.35480  0.06220  1.0000 -0.0981130781
C   C23       1.0  0.05410  0.64520  0.56220  1.0000 -0.0981130781
C   C24       1.0  0.44590  0.14520  0.43780  1.0000 -0.0981130781
C   C25       1.0  0.37200  0.13260  0.01800  1.0000 -0.3314297306
C   C26       1.0  0.12800  0.63260  0.98200  1.0000 -0.3314297306
C   C27       1.0  0.87200  0.36740  0.48200  1.0000 -0.3314297306
C   C28       1.0  0.62800  0.86740  0.51800  1.0000 -0.3314297306
C   C29       1.0  0.62800  0.86740  0.98200  1.0000 -0.3314297306
C   C30       1.0  0.87200  0.36740  0.01800  1.0000 -0.3314297306
C   C31       1.0  0.12800  0.63260  0.51800  1.0000 -0.3314297306
C   C32       1.0  0.37200  0.13260  0.48200  1.0000 -0.3314297306
C   C33       1.0  0.46460  0.17570  0.98150  1.0000 0.6720748959
C   C34       1.0  0.03540  0.67570  0.01850  1.0000 0.6720748959
C   C35       1.0  0.96460  0.32430  0.51850  1.0000 0.6720748959
C   C36       1.0  0.53540  0.82430  0.48150  1.0000 0.6720748959
C   C37       1.0  0.53540  0.82430  0.01850  1.0000 0.6720748959
C   C38       1.0  0.96460  0.32430  0.98150  1.0000 0.6720748959
C   C39       1.0  0.03540  0.67570  0.48150  1.0000 0.6720748959
C   C40       1.0  0.46460  0.17570  0.51850  1.0000 0.6720748959
C   C41       1.0  0.12640  0.81250  0.16907  1.0000 0.6720748959
C   C42       1.0  0.37360  0.31250  0.83093  1.0000 0.6720748959
C   C43       1.0  0.62640  0.68750  0.33093  1.0000 0.6720748959
C   C44       1.0  0.87360  0.18750  0.66907  1.0000 0.6720748959
C   C45       1.0  0.87360  0.18750  0.83093  1.0000 0.6720748959
C   C46       1.0  0.62640  0.68750  0.16907  1.0000 0.6720748959
C   C47       1.0  0.37360  0.31250  0.66907  1.0000 0.6720748959
C   C48       1.0  0.12640  0.81250  0.33093  1.0000 0.6720748959
C   C49       1.0  0.03590  0.83610  0.20910  1.0000 -0.3314297306
C   C50       1.0  0.46410  0.33610  0.79090  1.0000 -0.3314297306
C   C51       1.0  0.53590  0.66390  0.29090  1.0000 -0.3314297306
C   C52       1.0  0.96410  0.16390  0.70910  1.0000 -0.3314297306
C   C53       1.0  0.96410  0.16390  0.79090  1.0000 -0.3314297306
C   C54       1.0  0.53590  0.66390  0.20910  1.0000 -0.3314297306
C   C55       1.0  0.46410  0.33610  0.70910  1.0000 -0.3314297306
C   C56       1.0  0.03590  0.83610  0.29090  1.0000 -0.3314297306
C   C57       1.0  0.12540  0.81690  0.25000  1.0000 -0.0841895672
C   C58       1.0  0.37460  0.31690  0.75000  1.0000 -0.0841895672
C   C59       1.0  0.62540  0.68310  0.25000  1.0000 -0.0841895672
C   C60       1.0  0.87460  0.18310  0.75000  1.0000 -0.0841895672
O   O1        1.0  0.21250  0.94210  0.08462  1.0000 -0.6127536701
O   O2        1.0  0.28750  0.44210  0.91538  1.0000 -0.6127536701
O   O3        1.0  0.71250  0.55790  0.41538  1.0000 -0.6127536701
O   O4        1.0  0.78750  0.05790  0.58462  1.0000 -0.6127536701
O   O5        1.0  0.78750  0.05790  0.91538  1.0000 -0.6127536701
O   O6        1.0  0.71250  0.55790  0.08462  1.0000 -0.6127536701
O   O7        1.0  0.28750  0.44210  0.58462  1.0000 -0.6127536701
O   O8        1.0  0.21250  0.94210  0.41538  1.0000 -0.6127536701
O   O9        1.0  0.45230  0.93520  0.10492  1.0000 -0.6460842746
O   O10       1.0  0.04770  0.43520  0.89508  1.0000 -0.6460842746
O   O11       1.0  0.95230  0.56480  0.39508  1.0000 -0.6460842746
O   O12       1.0  0.54770  0.06480  0.60492  1.0000 -0.6460842746
O   O13       1.0  0.54770  0.06480  0.89508  1.0000 -0.6460842746
O   O14       1.0  0.95230  0.56480  0.10492  1.0000 -0.6460842746
O   O15       1.0  0.04770  0.43520  0.60492  1.0000 -0.6460842746
O   O16       1.0  0.45230  0.93520  0.39508  1.0000 -0.6460842746
O   O17       1.0  0.60850  0.17380  0.98249  1.0000 -0.6163606601
O   O18       1.0  0.89150  0.67380  0.01751  1.0000 -0.6163606601
O   O19       1.0  0.10850  0.32620  0.51751  1.0000 -0.6163606601
O   O20       1.0  0.39150  0.82620  0.48249  1.0000 -0.6163606601
O   O21       1.0  0.39150  0.82620  0.01751  1.0000 -0.6163606601
O   O22       1.0  0.10850  0.32620  0.98249  1.0000 -0.6163606601
O   O23       1.0  0.89150  0.67380  0.48249  1.0000 -0.6163606601
O   O24       1.0  0.60850  0.17380  0.51751  1.0000 -0.6163606601
O   O25       1.0  0.39440  0.21300  0.94886  1.0000 -0.7612511249
O   O26       1.0  0.10560  0.71300  0.05114  1.0000 -0.7612511249
O   O27       1.0  0.89440  0.28700  0.55114  1.0000 -0.7612511249
O   O28       1.0  0.60560  0.78700  0.44886  1.0000 -0.7612511249
O   O29       1.0  0.60560  0.78700  0.05114  1.0000 -0.7612511249
O   O30       1.0  0.89440  0.28700  0.94886  1.0000 -0.7612511249
O   O31       1.0  0.10560  0.71300  0.44886  1.0000 -0.7612511249
O   O32       1.0  0.39440  0.21300  0.55114  1.0000 -0.7612511249
O   O33       1.0  0.26810  0.82380  0.16865  1.0000 -0.597310658
O   O34       1.0  0.23190  0.32380  0.83135  1.0000 -0.597310658
O   O35       1.0  0.76810  0.67620  0.33135  1.0000 -0.597310658
O   O36       1.0  0.73190  0.17620  0.66865  1.0000 -0.597310658
O   O37       1.0  0.73190  0.17620  0.83135  1.0000 -0.597310658
O   O38       1.0  0.76810  0.67620  0.16865  1.0000 -0.597310658
O   O39       1.0  0.23190  0.32380  0.66865  1.0000 -0.597310658
O   O40       1.0  0.26810  0.82380  0.33135  1.0000 -0.597310658
O   O41       1.0  0.05680  0.78380  0.13472  1.0000 -0.7612511249
O   O42       1.0  0.44320  0.28380  0.86528  1.0000 -0.7612511249
O   O43       1.0  0.55680  0.71620  0.36528  1.0000 -0.7612511249
O   O44       1.0  0.94320  0.21620  0.63472  1.0000 -0.7612511249
O   O45       1.0  0.94320  0.21620  0.86528  1.0000 -0.7612511249
O   O46       1.0  0.55680  0.71620  0.13472  1.0000 -0.7612511249
O   O47       1.0  0.44320  0.28380  0.63472  1.0000 -0.7612511249
O   O48       1.0  0.05680  0.78380  0.36528  1.0000 -0.7612511249
