# DDEC6 charges by PACMAN v1.1 (https://github.com/mtap-research/PACMAN-charge/)
data_2006[V][nan]3[ASR]5
_chemical_formula_sum              "V6 P8 H16 C8 O26 F4"
_cell_length_a       7.1564
_cell_length_b       18.2265
_cell_length_c       8.1397
_cell_angle_alpha    90
_cell_angle_beta     95.038
_cell_angle_gamma    90

_symmetry_space_group_name_H-M    "P 1"
_symmetry_Int_Tables_number       1

loop_
  _symmetry_equiv_pos_as_xyz
  'x, y, z'

loop_
  _atom_site_type_symbol
  _atom_site_label
  _atom_site_symmetry_multiplicity
  _atom_site_fract_x
  _atom_site_fract_y
  _atom_site_fract_z
  _atom_site_occupancy
  _atom_site_charge
V   V1        1.0  0.25251  0.26408  0.00226  1.0000 1.9128605206
V   V2        1.0  0.74746  0.26374  0.99722  1.0000 1.9128605206
V   V3        1.0  0.74571  0.73604  0.99719  1.0000 1.9308943827
V   V4        1.0  0.25422  0.73563  0.00260  1.0000 1.9308943827
V   V5        1.0  0.99959  0.49927  0.49997  1.0000 1.9385600169
V   V6        1.0  0.49847  0.00198  0.00356  1.0000 1.9965952714
P   P1        1.0  0.97105  0.34799  0.73193  1.0000 1.4191626389
P   P2        1.0  0.52425  0.15401  0.22862  1.0000 1.412459739
P   P3        1.0  0.02859  0.34792  0.26805  1.0000 1.4283498604
P   P4        1.0  0.47561  0.15354  0.77258  1.0000 1.412459739
P   P5        1.0  0.02612  0.65027  0.26696  1.0000 1.4283498604
P   P6        1.0  0.47393  0.84426  0.76968  1.0000 1.4191626389
P   P7        1.0  0.97343  0.65012  0.73341  1.0000 1.4283498604
P   P8        1.0  0.52556  0.84426  0.23005  1.0000 1.4191626389
H   H1        1.0  0.91609  0.23071  0.62152  1.0000 0.1467651506
H   H2        1.0  0.78446  0.29833  0.50490  1.0000 0.1412930493
H   H3        1.0  0.65049  0.08443  0.45042  1.0000 0.1612649862
H   H4        1.0  0.69396  0.17796  0.49457  1.0000 0.1412930493
H   H5        1.0  0.08405  0.23072  0.37849  1.0000 0.1467651506
H   H6        1.0  0.21561  0.29837  0.49511  1.0000 0.1412930493
H   H7        1.0  0.34950  0.08435  0.54946  1.0000 0.1612649862
H   H8        1.0  0.30632  0.17790  0.50564  1.0000 0.1412930493
H   H9        1.0  0.08475  0.76731  0.37942  1.0000 0.1467651506
H   H10       1.0  0.21334  0.69746  0.49184  1.0000 0.1412930493
H   H11       1.0  0.30983  0.87715  0.51956  1.0000 0.1612649862
H   H12       1.0  0.34150  0.78156  0.53621  1.0000 0.1412930493
H   H13       1.0  0.91535  0.76736  0.62091  1.0000 0.1467651506
H   H14       1.0  0.78688  0.69750  0.50860  1.0000 0.1412930493
H   H15       1.0  0.69047  0.87705  0.48051  1.0000 0.1612649862
H   H16       1.0  0.65830  0.78162  0.46290  1.0000 0.1412930493
C   C1        1.0  0.92665  0.28522  0.56278  1.0000 -0.373615704
C   C2        1.0  0.58382  0.13933  0.44771  1.0000 -0.3789273541
C   C3        1.0  0.07343  0.28523  0.43724  1.0000 -0.373615704
C   C4        1.0  0.41633  0.13923  0.55292  1.0000 -0.373615704
C   C5        1.0  0.07175  0.71268  0.43661  1.0000 -0.3789273541
C   C6        1.0  0.41594  0.83398  0.55177  1.0000 -0.3789273541
C   C7        1.0  0.92837  0.71270  0.56406  1.0000 -0.3789273541
C   C8        1.0  0.58421  0.83409  0.44758  1.0000 -0.3789273541
O   O1        1.0  0.97211  0.42703  0.65902  1.0000 -0.771363167
O   O2        1.0  0.16329  0.33083  0.82327  1.0000 -0.7891210835
O   O3        1.0  0.80687  0.33902  0.84089  1.0000 -0.7814703107
O   O4        1.0  0.34531  0.20201  0.18944  1.0000 -0.8191018324
O   O5        1.0  0.69447  0.19321  0.15738  1.0000 -0.7988670688
O   O6        1.0  0.50260  0.07744  0.83877  1.0000 -0.7526836316
O   O7        1.0  0.02724  0.42696  0.34091  1.0000 -0.771363167
O   O8        1.0  0.83660  0.33032  0.17665  1.0000 -0.7814703107
O   O9        1.0  0.19262  0.33905  0.15884  1.0000 -0.7891210835
O   O10       1.0  0.65468  0.20195  0.81119  1.0000 -0.8191018324
O   O11       1.0  0.30595  0.19425  0.84239  1.0000 -0.7988670688
O   O12       1.0  0.49573  0.07716  0.16468  1.0000 -0.7526836316
O   O13       1.0  0.02499  0.57109  0.34105  1.0000 -0.771363167
O   O14       1.0  0.83389  0.66782  0.17596  1.0000 -0.7891210835
O   O15       1.0  0.19063  0.65952  0.15901  1.0000 -0.7891210835
O   O16       1.0  0.65281  0.79534  0.81778  1.0000 -0.7988670688
O   O17       1.0  0.30493  0.80509  0.85018  1.0000 -0.771363167
O   O18       1.0  0.49542  0.92331  0.80725  1.0000 -0.7369257133
O   O19       1.0  0.50187  0.92450  0.19394  1.0000 -0.7526836316
O   O20       1.0  0.97373  0.57104  0.65870  1.0000 -0.771363167
O   O21       1.0  0.16593  0.66678  0.82462  1.0000 -0.7891210835
O   O22       1.0  0.80887  0.65942  0.84124  1.0000 -0.7891210835
O   O23       1.0  0.34684  0.79594  0.18176  1.0000 -0.7988670688
O   O24       1.0  0.69497  0.80705  0.14815  1.0000 -0.7814703107
O   O25       1.0  0.26635  0.98398  0.97950  1.0000 -0.6210013847
O   O26       1.0  0.73016  0.98405  0.01189  1.0000 -0.6210013847
F   F1        1.0  0.00010  0.22700  0.99976  1.0000 -0.5877202671
F   F2        1.0  0.00004  0.77136  0.99972  1.0000 -0.5803249995
F   F3        1.0  0.50018  0.30228  0.00019  1.0000 -0.5877202671
F   F4        1.0  0.50020  0.69483  0.00066  1.0000 -0.574733011
