# DDEC6 charges by PACMAN v1.1 (https://github.com/mtap-research/PACMAN-charge/)
data_2006[Lu][dia]3[ASR]1
_chemical_formula_sum              "Lu4 P4 H28 C20 N4 O28"
_cell_length_a       8.9062
_cell_length_b       8.9466
_cell_length_c       15.5353
_cell_angle_alpha    90
_cell_angle_beta     90
_cell_angle_gamma    90

_symmetry_space_group_name_H-M    "P 1"
_symmetry_Int_Tables_number       1

loop_
  _symmetry_equiv_pos_as_xyz
  'x, y, z'

loop_
  _atom_site_type_symbol
  _atom_site_label
  _atom_site_symmetry_multiplicity
  _atom_site_fract_x
  _atom_site_fract_y
  _atom_site_fract_z
  _atom_site_occupancy
  _atom_site_charge
Lu  Lu1       1.0  0.63822  0.71786  0.85491  1.0000 1.6277398846
Lu  Lu2       1.0  0.86178  0.28214  0.35491  1.0000 1.6277398846
Lu  Lu3       1.0  0.13822  0.78214  0.14509  1.0000 1.6277398846
Lu  Lu4       1.0  0.36178  0.21786  0.64509  1.0000 1.6277398846
P   P1        1.0  0.31669  0.62317  0.95610  1.0000 1.3002573929
P   P2        1.0  0.18331  0.37683  0.45610  1.0000 1.3002573929
P   P3        1.0  0.81669  0.87683  0.04390  1.0000 1.3002573929
P   P4        1.0  0.68331  0.12317  0.54390  1.0000 1.3002573929
H   H1        1.0  0.49950  0.60300  0.06230  1.0000 0.1591206461
H   H2        1.0  0.00050  0.39700  0.56230  1.0000 0.1591206461
H   H3        1.0  0.99950  0.89700  0.93770  1.0000 0.1591206461
H   H4        1.0  0.50050  0.10300  0.43770  1.0000 0.1591206461
H   H5        1.0  0.42530  0.44610  0.04620  1.0000 0.1500016979
H   H6        1.0  0.07470  0.55390  0.54620  1.0000 0.1500016979
H   H7        1.0  0.92530  0.05390  0.95380  1.0000 0.1500016979
H   H8        1.0  0.57470  0.94610  0.45380  1.0000 0.1500016979
H   H9        1.0  0.47080  0.30780  0.93730  1.0000 0.1405236157
H   H10       1.0  0.02920  0.69220  0.43730  1.0000 0.1405236157
H   H11       1.0  0.97080  0.19220  0.06270  1.0000 0.1405236157
H   H12       1.0  0.52920  0.80780  0.56270  1.0000 0.1405236157
H   H13       1.0  0.64150  0.28980  0.91560  1.0000 0.1405236157
H   H14       1.0  0.85850  0.71020  0.41560  1.0000 0.1405236157
H   H15       1.0  0.14150  0.21020  0.08440  1.0000 0.1405236157
H   H16       1.0  0.35850  0.78980  0.58440  1.0000 0.1405236157
H   H17       1.0  0.73250  0.37080  0.03360  1.0000 0.1405236157
H   H18       1.0  0.76750  0.62920  0.53360  1.0000 0.1405236157
H   H19       1.0  0.23250  0.12920  0.96640  1.0000 0.1405236157
H   H20       1.0  0.26750  0.87080  0.46640  1.0000 0.1405236157
H   H21       1.0  0.73790  0.54220  0.05560  1.0000 0.1500016979
H   H22       1.0  0.76210  0.45780  0.55560  1.0000 0.1500016979
H   H23       1.0  0.23790  0.95780  0.94440  1.0000 0.1500016979
H   H24       1.0  0.26210  0.04220  0.44440  1.0000 0.1500016979
H   H25       1.0  0.15290  0.47960  0.92620  1.0000 0.3790172419
H   H26       1.0  0.34710  0.52040  0.42620  1.0000 0.3790172419
H   H27       1.0  0.65290  0.02040  0.07380  1.0000 0.3790172419
H   H28       1.0  0.84710  0.97960  0.57380  1.0000 0.3790172419
C   C1        1.0  0.46420  0.53490  0.01810  1.0000 -0.4522802003
C   C2        1.0  0.03580  0.46510  0.51810  1.0000 -0.4522802003
C   C3        1.0  0.96420  0.96510  0.98190  1.0000 -0.4522802003
C   C4        1.0  0.53580  0.03490  0.48190  1.0000 -0.4522802003
C   C5        1.0  0.55650  0.35720  0.91130  1.0000 -0.3007996299
C   C6        1.0  0.94350  0.64280  0.41130  1.0000 -0.3007996299
C   C7        1.0  0.05650  0.14280  0.08870  1.0000 -0.3007996299
C   C8        1.0  0.44350  0.85720  0.58870  1.0000 -0.3007996299
C   C9        1.0  0.52330  0.38420  0.81800  1.0000 0.6541721902
C   C10       1.0  0.97670  0.61580  0.31800  1.0000 0.6541721902
C   C11       1.0  0.02330  0.11580  0.18200  1.0000 0.6541721902
C   C12       1.0  0.47670  0.88420  0.68200  1.0000 0.6541721902
C   C13       1.0  0.73130  0.47050  0.00890  1.0000 -0.2777441659
C   C14       1.0  0.76870  0.52950  0.50890  1.0000 -0.2777441659
C   C15       1.0  0.23130  0.02950  0.99110  1.0000 -0.2777441659
C   C16       1.0  0.26870  0.97050  0.49110  1.0000 -0.2777441659
C   C17       1.0  0.86480  0.48970  0.94850  1.0000 0.6310698173
C   C18       1.0  0.63520  0.51030  0.44850  1.0000 0.6310698173
C   C19       1.0  0.36480  0.01030  0.05150  1.0000 0.6310698173
C   C20       1.0  0.13520  0.98970  0.55150  1.0000 0.6310698173
N   N1        1.0  0.59020  0.49360  0.96070  1.0000 -0.0269144874
N   N2        1.0  0.90980  0.50640  0.46070  1.0000 -0.0269144874
N   N3        1.0  0.09020  0.00640  0.03930  1.0000 -0.0269144874
N   N4        1.0  0.40980  0.99360  0.53930  1.0000 -0.0269144874
O   O1        1.0  0.56520  0.50680  0.78440  1.0000 -0.5717338839
O   O2        1.0  0.93480  0.49320  0.28440  1.0000 -0.5717338839
O   O3        1.0  0.06520  0.99320  0.21560  1.0000 -0.5717338839
O   O4        1.0  0.43480  0.00680  0.71560  1.0000 -0.5717338839
O   O5        1.0  0.45860  0.28090  0.77810  1.0000 -0.5584917211
O   O6        1.0  0.04140  0.71910  0.27810  1.0000 -0.5584917211
O   O7        1.0  0.95860  0.21910  0.22190  1.0000 -0.5584917211
O   O8        1.0  0.54140  0.78090  0.72190  1.0000 -0.5584917211
O   O9        1.0  0.98810  0.43470  0.97210  1.0000 -0.5584917211
O   O10       1.0  0.51190  0.56530  0.47210  1.0000 -0.5584917211
O   O11       1.0  0.48810  0.06530  0.02790  1.0000 -0.5584917211
O   O12       1.0  0.01190  0.93470  0.52790  1.0000 -0.5584917211
O   O13       1.0  0.84600  0.56250  0.87930  1.0000 -0.5897023895
O   O14       1.0  0.65400  0.43750  0.37930  1.0000 -0.5897023895
O   O15       1.0  0.34600  0.93750  0.12070  1.0000 -0.5897023895
O   O16       1.0  0.15400  0.06250  0.62070  1.0000 -0.5897023895
O   O17       1.0  0.23260  0.50030  0.90260  1.0000 -0.576601825
O   O18       1.0  0.26740  0.49970  0.40260  1.0000 -0.576601825
O   O19       1.0  0.73260  0.99970  0.09740  1.0000 -0.576601825
O   O20       1.0  0.76740  0.00030  0.59740  1.0000 -0.576601825
O   O21       1.0  0.21100  0.70070  0.01660  1.0000 -0.808612428
O   O22       1.0  0.28900  0.29930  0.51660  1.0000 -0.808612428
O   O23       1.0  0.71100  0.79930  0.98340  1.0000 -0.808612428
O   O24       1.0  0.78900  0.20070  0.48340  1.0000 -0.808612428
O   O25       1.0  0.39660  0.72520  0.89440  1.0000 -0.7515789636
O   O26       1.0  0.10340  0.27480  0.39440  1.0000 -0.7515789636
O   O27       1.0  0.89660  0.77480  0.10560  1.0000 -0.7515789636
O   O28       1.0  0.60340  0.22520  0.60560  1.0000 -0.7515789636
