# DDEC6 charges by PACMAN v1.1 (https://github.com/mtap-research/PACMAN-charge/)
data_2006[CoAg][utp]3[ASR]2
_chemical_formula_sum              "Co8 Ag8 H240 C336 N72"
_cell_length_a       12.6272
_cell_length_b       26.847
_cell_length_c       33.438
_cell_angle_alpha    90
_cell_angle_beta     90
_cell_angle_gamma    90

_symmetry_space_group_name_H-M    "P 1"
_symmetry_Int_Tables_number       1

loop_
  _symmetry_equiv_pos_as_xyz
  'x, y, z'

loop_
  _atom_site_type_symbol
  _atom_site_label
  _atom_site_symmetry_multiplicity
  _atom_site_fract_x
  _atom_site_fract_y
  _atom_site_fract_z
  _atom_site_occupancy
  _atom_site_charge
Co  Co1       1.0  0.52532  0.06766  0.11298  1.0000 0.5012005749
Co  Co2       1.0  0.97468  0.56766  0.88702  1.0000 0.5012005749
Co  Co3       1.0  0.02532  0.56766  0.38702  1.0000 0.5012005749
Co  Co4       1.0  0.47468  0.06766  0.61298  1.0000 0.5012005749
Co  Co5       1.0  0.97468  0.43234  0.61298  1.0000 0.5012005749
Co  Co6       1.0  0.52532  0.93234  0.38702  1.0000 0.5012005749
Co  Co7       1.0  0.47468  0.93234  0.88702  1.0000 0.5012005749
Co  Co8       1.0  0.02532  0.43234  0.11298  1.0000 0.5012005749
Ag  Ag1       1.0  0.73699  0.71942  0.14134  1.0000 0.2009738698
Ag  Ag2       1.0  0.76301  0.21942  0.85866  1.0000 0.2009738698
Ag  Ag3       1.0  0.23699  0.21942  0.35866  1.0000 0.2009738698
Ag  Ag4       1.0  0.26301  0.71942  0.64134  1.0000 0.2009738698
Ag  Ag5       1.0  0.76301  0.78058  0.64134  1.0000 0.2009738698
Ag  Ag6       1.0  0.73699  0.28058  0.35866  1.0000 0.2009738698
Ag  Ag7       1.0  0.26301  0.28058  0.85866  1.0000 0.2009738698
Ag  Ag8       1.0  0.23699  0.78058  0.14134  1.0000 0.2009738698
H   H1        1.0  0.29600  0.04180  0.14330  1.0000 0.1016921576
H   H2        1.0  0.20400  0.54180  0.85670  1.0000 0.1016921576
H   H3        1.0  0.79600  0.54180  0.35670  1.0000 0.1016921576
H   H4        1.0  0.70400  0.04180  0.64330  1.0000 0.1016921576
H   H5        1.0  0.23650  0.95760  0.16590  1.0000 0.1110196672
H   H6        1.0  0.26350  0.45760  0.83410  1.0000 0.1110196672
H   H7        1.0  0.73650  0.45760  0.33410  1.0000 0.1110196672
H   H8        1.0  0.76350  0.95760  0.66590  1.0000 0.1110196672
H   H9        1.0  0.39150  0.90010  0.15880  1.0000 0.1016921576
H   H10       1.0  0.10850  0.40010  0.84120  1.0000 0.1016921576
H   H11       1.0  0.89150  0.40010  0.34120  1.0000 0.1016921576
H   H12       1.0  0.60850  0.90010  0.65880  1.0000 0.1016921576
H   H13       1.0  0.78540  0.92590  0.09820  1.0000 0.119238435
H   H14       1.0  0.71460  0.42590  0.90180  1.0000 0.119238435
H   H15       1.0  0.28540  0.42590  0.40180  1.0000 0.119238435
H   H16       1.0  0.21460  0.92590  0.59820  1.0000 0.119238435
H   H17       1.0  0.87950  0.00040  0.07150  1.0000 0.119238435
H   H18       1.0  0.62050  0.50040  0.92850  1.0000 0.119238435
H   H19       1.0  0.37950  0.50040  0.42850  1.0000 0.119238435
H   H20       1.0  0.12050  0.00040  0.57150  1.0000 0.119238435
H   H21       1.0  0.75330  0.07240  0.07550  1.0000 0.1016921576
H   H22       1.0  0.74670  0.57240  0.92450  1.0000 0.1016921576
H   H23       1.0  0.25330  0.57240  0.42450  1.0000 0.1016921576
H   H24       1.0  0.24670  0.07240  0.57550  1.0000 0.1016921576
H   H25       1.0  0.70050  0.90400  0.17970  1.0000 0.1390507574
H   H26       1.0  0.79950  0.40400  0.82030  1.0000 0.1390507574
H   H27       1.0  0.20050  0.40400  0.32030  1.0000 0.1390507574
H   H28       1.0  0.29950  0.90400  0.67970  1.0000 0.1390507574
H   H29       1.0  0.74310  0.82100  0.18900  1.0000 0.1016921576
H   H30       1.0  0.75690  0.32100  0.81100  1.0000 0.1016921576
H   H31       1.0  0.24310  0.32100  0.31100  1.0000 0.1016921576
H   H32       1.0  0.25690  0.82100  0.68900  1.0000 0.1016921576
H   H33       1.0  0.55310  0.78060  0.10250  1.0000 0.0918986855
H   H34       1.0  0.94690  0.28060  0.89750  1.0000 0.0918986855
H   H35       1.0  0.05310  0.28060  0.39750  1.0000 0.0918986855
H   H36       1.0  0.44690  0.78060  0.60250  1.0000 0.0918986855
H   H37       1.0  0.50390  0.86200  0.09060  1.0000 0.119238435
H   H38       1.0  0.99610  0.36200  0.90940  1.0000 0.119238435
H   H39       1.0  0.00390  0.36200  0.40940  1.0000 0.119238435
H   H40       1.0  0.49610  0.86200  0.59060  1.0000 0.119238435
H   H41       1.0  0.13620  0.50720  0.93800  1.0000 0.1016921576
H   H42       1.0  0.36380  0.00720  0.06200  1.0000 0.1016921576
H   H43       1.0  0.63620  0.00720  0.56200  1.0000 0.1016921576
H   H44       1.0  0.86380  0.50720  0.43800  1.0000 0.1016921576
H   H45       1.0  0.16350  0.51580  0.01200  1.0000 0.119238435
H   H46       1.0  0.33650  0.01580  0.98800  1.0000 0.119238435
H   H47       1.0  0.66350  0.01580  0.48800  1.0000 0.119238435
H   H48       1.0  0.83650  0.51580  0.51200  1.0000 0.119238435
H   H49       1.0  0.03300  0.57910  0.03600  1.0000 0.1110196672
H   H50       1.0  0.46700  0.07910  0.96400  1.0000 0.1110196672
H   H51       1.0  0.53300  0.07910  0.46400  1.0000 0.1110196672
H   H52       1.0  0.96700  0.57910  0.53600  1.0000 0.1110196672
H   H53       1.0  0.77490  0.70550  0.95600  1.0000 0.1110196672
H   H54       1.0  0.72510  0.20550  0.04400  1.0000 0.1110196672
H   H55       1.0  0.27490  0.20550  0.54400  1.0000 0.1110196672
H   H56       1.0  0.22510  0.70550  0.45600  1.0000 0.1110196672
H   H57       1.0  0.74600  0.72000  0.88250  1.0000 0.119238435
H   H58       1.0  0.75400  0.22000  0.11750  1.0000 0.119238435
H   H59       1.0  0.24600  0.22000  0.61750  1.0000 0.119238435
H   H60       1.0  0.25400  0.72000  0.38250  1.0000 0.119238435
H   H61       1.0  0.84530  0.65190  0.84640  1.0000 0.1016921576
H   H62       1.0  0.65470  0.15190  0.15360  1.0000 0.1016921576
H   H63       1.0  0.34530  0.15190  0.65360  1.0000 0.1016921576
H   H64       1.0  0.15470  0.65190  0.34640  1.0000 0.1016921576
H   H65       1.0  0.79610  0.58470  0.03200  1.0000 0.1459887787
H   H66       1.0  0.70390  0.08470  0.96800  1.0000 0.1459887787
H   H67       1.0  0.29610  0.08470  0.46800  1.0000 0.1459887787
H   H68       1.0  0.20390  0.58470  0.53200  1.0000 0.1459887787
H   H69       1.0  0.73100  0.62080  0.08990  1.0000 0.1016921576
H   H70       1.0  0.76900  0.12080  0.91010  1.0000 0.1016921576
H   H71       1.0  0.23100  0.12080  0.41010  1.0000 0.1016921576
H   H72       1.0  0.26900  0.62080  0.58990  1.0000 0.1016921576
H   H73       1.0  0.87350  0.74700  0.06530  1.0000 0.0918986855
H   H74       1.0  0.62650  0.24700  0.93470  1.0000 0.0918986855
H   H75       1.0  0.37350  0.24700  0.43470  1.0000 0.0918986855
H   H76       1.0  0.12650  0.74700  0.56530  1.0000 0.0918986855
H   H77       1.0  0.94410  0.71450  0.00680  1.0000 0.1390507574
H   H78       1.0  0.55590  0.21450  0.99320  1.0000 0.1390507574
H   H79       1.0  0.44410  0.21450  0.49320  1.0000 0.1390507574
H   H80       1.0  0.05590  0.71450  0.50680  1.0000 0.1390507574
H   H81       1.0  0.22090  0.53460  0.33450  1.0000 0.1016921576
H   H82       1.0  0.27910  0.03460  0.66550  1.0000 0.1016921576
H   H83       1.0  0.72090  0.03460  0.16550  1.0000 0.1016921576
H   H84       1.0  0.77910  0.53460  0.83450  1.0000 0.1016921576
H   H85       1.0  0.23520  0.54700  0.26030  1.0000 0.119238435
H   H86       1.0  0.26480  0.04700  0.73970  1.0000 0.119238435
H   H87       1.0  0.73520  0.04700  0.23970  1.0000 0.1110196672
H   H88       1.0  0.76480  0.54700  0.76030  1.0000 0.1110196672
H   H89       1.0  0.06810  0.58810  0.23810  1.0000 0.119238435
H   H90       1.0  0.43190  0.08810  0.76190  1.0000 0.119238435
H   H91       1.0  0.56810  0.08810  0.26190  1.0000 0.119238435
H   H92       1.0  0.93190  0.58810  0.73810  1.0000 0.119238435
H   H93       1.0  0.75000  0.67660  0.32210  1.0000 0.119238435
H   H94       1.0  0.75000  0.17660  0.67790  1.0000 0.119238435
H   H95       1.0  0.25000  0.17660  0.17790  1.0000 0.119238435
H   H96       1.0  0.25000  0.67660  0.82210  1.0000 0.119238435
H   H97       1.0  0.70750  0.67800  0.39410  1.0000 0.119238435
H   H98       1.0  0.79250  0.17800  0.60590  1.0000 0.119238435
H   H99       1.0  0.20750  0.17800  0.10590  1.0000 0.119238435
H   H100      1.0  0.29250  0.67800  0.89410  1.0000 0.119238435
H   H101      1.0  0.84710  0.62730  0.42950  1.0000 0.1110196672
H   H102      1.0  0.65290  0.12730  0.57050  1.0000 0.1110196672
H   H103      1.0  0.34710  0.12730  0.07050  1.0000 0.1110196672
H   H104      1.0  0.15290  0.62730  0.92950  1.0000 0.1110196672
H   H105      1.0  0.75170  0.59620  0.26290  1.0000 0.1390507574
H   H106      1.0  0.74830  0.09620  0.73710  1.0000 0.1390507574
H   H107      1.0  0.25170  0.09620  0.23710  1.0000 0.1390507574
H   H108      1.0  0.24830  0.59620  0.76290  1.0000 0.1390507574
H   H109      1.0  0.68380  0.63430  0.20570  1.0000 0.1016921576
H   H110      1.0  0.81620  0.13430  0.79430  1.0000 0.1016921576
H   H111      1.0  0.18380  0.13430  0.29430  1.0000 0.1016921576
H   H112      1.0  0.31620  0.63430  0.70570  1.0000 0.1016921576
H   H113      1.0  0.93460  0.71900  0.19500  1.0000 0.0918986855
H   H114      1.0  0.56540  0.21900  0.80500  1.0000 0.0918986855
H   H115      1.0  0.43460  0.21900  0.30500  1.0000 0.0918986855
H   H116      1.0  0.06540  0.71900  0.69500  1.0000 0.0918986855
H   H117      1.0  0.01010  0.68370  0.25240  1.0000 0.1301065378
H   H118      1.0  0.48990  0.18370  0.74760  1.0000 0.1301065378
H   H119      1.0  0.51010  0.18370  0.24760  1.0000 0.1301065378
H   H120      1.0  0.98990  0.68370  0.75240  1.0000 0.1301065378
H   H121      1.0  0.20400  0.45820  0.64330  1.0000 0.1016921576
H   H122      1.0  0.29600  0.95820  0.35670  1.0000 0.1016921576
H   H123      1.0  0.70400  0.95820  0.85670  1.0000 0.1016921576
H   H124      1.0  0.79600  0.45820  0.14330  1.0000 0.1016921576
H   H125      1.0  0.26350  0.54240  0.66590  1.0000 0.1110196672
H   H126      1.0  0.23650  0.04240  0.33410  1.0000 0.1110196672
H   H127      1.0  0.76350  0.04240  0.83410  1.0000 0.1110196672
H   H128      1.0  0.73650  0.54240  0.16590  1.0000 0.1110196672
H   H129      1.0  0.10850  0.59990  0.65880  1.0000 0.1016921576
H   H130      1.0  0.39150  0.09990  0.34120  1.0000 0.1016921576
H   H131      1.0  0.60850  0.09990  0.84120  1.0000 0.1016921576
H   H132      1.0  0.89150  0.59990  0.15880  1.0000 0.1016921576
H   H133      1.0  0.71460  0.57410  0.59820  1.0000 0.119238435
H   H134      1.0  0.78540  0.07410  0.40180  1.0000 0.119238435
H   H135      1.0  0.21460  0.07410  0.90180  1.0000 0.119238435
H   H136      1.0  0.28540  0.57410  0.09820  1.0000 0.119238435
H   H137      1.0  0.62050  0.49960  0.57150  1.0000 0.119238435
H   H138      1.0  0.87950  0.99960  0.42850  1.0000 0.119238435
H   H139      1.0  0.12050  0.99960  0.92850  1.0000 0.119238435
H   H140      1.0  0.37950  0.49960  0.07150  1.0000 0.119238435
H   H141      1.0  0.74670  0.42760  0.57550  1.0000 0.1016921576
H   H142      1.0  0.75330  0.92760  0.42450  1.0000 0.1016921576
H   H143      1.0  0.24670  0.92760  0.92450  1.0000 0.1016921576
H   H144      1.0  0.25330  0.42760  0.07550  1.0000 0.1016921576
H   H145      1.0  0.79950  0.59600  0.67970  1.0000 0.1390507574
H   H146      1.0  0.70050  0.09600  0.32030  1.0000 0.1390507574
H   H147      1.0  0.29950  0.09600  0.82030  1.0000 0.1390507574
H   H148      1.0  0.20050  0.59600  0.17970  1.0000 0.1390507574
H   H149      1.0  0.75690  0.67900  0.68900  1.0000 0.1016921576
H   H150      1.0  0.74310  0.17900  0.31100  1.0000 0.1016921576
H   H151      1.0  0.25690  0.17900  0.81100  1.0000 0.1016921576
H   H152      1.0  0.24310  0.67900  0.18900  1.0000 0.1016921576
H   H153      1.0  0.94690  0.71940  0.60250  1.0000 0.0918986855
H   H154      1.0  0.55310  0.21940  0.39750  1.0000 0.0918986855
H   H155      1.0  0.44690  0.21940  0.89750  1.0000 0.0918986855
H   H156      1.0  0.05310  0.71940  0.10250  1.0000 0.0918986855
H   H157      1.0  0.99610  0.63800  0.59060  1.0000 0.119238435
H   H158      1.0  0.50390  0.13800  0.40940  1.0000 0.119238435
H   H159      1.0  0.49610  0.13800  0.90940  1.0000 0.119238435
H   H160      1.0  0.00390  0.63800  0.09060  1.0000 0.119238435
H   H161      1.0  0.36380  0.99280  0.43800  1.0000 0.1016921576
H   H162      1.0  0.13620  0.49280  0.56200  1.0000 0.1016921576
H   H163      1.0  0.86380  0.49280  0.06200  1.0000 0.1016921576
H   H164      1.0  0.63620  0.99280  0.93800  1.0000 0.1016921576
H   H165      1.0  0.33650  0.98420  0.51200  1.0000 0.119238435
H   H166      1.0  0.16350  0.48420  0.48800  1.0000 0.119238435
H   H167      1.0  0.83650  0.48420  0.98800  1.0000 0.119238435
H   H168      1.0  0.66350  0.98420  0.01200  1.0000 0.119238435
H   H169      1.0  0.46700  0.92090  0.53600  1.0000 0.1110196672
H   H170      1.0  0.03300  0.42090  0.46400  1.0000 0.1110196672
H   H171      1.0  0.96700  0.42090  0.96400  1.0000 0.1110196672
H   H172      1.0  0.53300  0.92090  0.03600  1.0000 0.1110196672
H   H173      1.0  0.72510  0.79450  0.45600  1.0000 0.1110196672
H   H174      1.0  0.77490  0.29450  0.54400  1.0000 0.1110196672
H   H175      1.0  0.22510  0.29450  0.04400  1.0000 0.1110196672
H   H176      1.0  0.27490  0.79450  0.95600  1.0000 0.1110196672
H   H177      1.0  0.75400  0.78000  0.38250  1.0000 0.119238435
H   H178      1.0  0.74600  0.28000  0.61750  1.0000 0.119238435
H   H179      1.0  0.25400  0.28000  0.11750  1.0000 0.119238435
H   H180      1.0  0.24600  0.78000  0.88250  1.0000 0.119238435
H   H181      1.0  0.65470  0.84810  0.34640  1.0000 0.1016921576
H   H182      1.0  0.84530  0.34810  0.65360  1.0000 0.1016921576
H   H183      1.0  0.15470  0.34810  0.15360  1.0000 0.1016921576
H   H184      1.0  0.34530  0.84810  0.84640  1.0000 0.1016921576
H   H185      1.0  0.70390  0.91530  0.53200  1.0000 0.1459887787
H   H186      1.0  0.79610  0.41530  0.46800  1.0000 0.1459887787
H   H187      1.0  0.20390  0.41530  0.96800  1.0000 0.1459887787
H   H188      1.0  0.29610  0.91530  0.03200  1.0000 0.1459887787
H   H189      1.0  0.76900  0.87920  0.58990  1.0000 0.1016921576
H   H190      1.0  0.73100  0.37920  0.41010  1.0000 0.1016921576
H   H191      1.0  0.26900  0.37920  0.91010  1.0000 0.1016921576
H   H192      1.0  0.23100  0.87920  0.08990  1.0000 0.1016921576
H   H193      1.0  0.62650  0.75300  0.56530  1.0000 0.0918986855
H   H194      1.0  0.87350  0.25300  0.43470  1.0000 0.0918986855
H   H195      1.0  0.12650  0.25300  0.93470  1.0000 0.0918986855
H   H196      1.0  0.37350  0.75300  0.06530  1.0000 0.0918986855
H   H197      1.0  0.55590  0.78550  0.50680  1.0000 0.1390507574
H   H198      1.0  0.94410  0.28550  0.49320  1.0000 0.1390507574
H   H199      1.0  0.05590  0.28550  0.99320  1.0000 0.1390507574
H   H200      1.0  0.44410  0.78550  0.00680  1.0000 0.1390507574
H   H201      1.0  0.27910  0.96540  0.83450  1.0000 0.1016921576
H   H202      1.0  0.22090  0.46540  0.16550  1.0000 0.1016921576
H   H203      1.0  0.77910  0.46540  0.66550  1.0000 0.1016921576
H   H204      1.0  0.72090  0.96540  0.33450  1.0000 0.1016921576
H   H205      1.0  0.26480  0.95300  0.76030  1.0000 0.1110196672
H   H206      1.0  0.23520  0.45300  0.23970  1.0000 0.1110196672
H   H207      1.0  0.76480  0.45300  0.73970  1.0000 0.1110196672
H   H208      1.0  0.73520  0.95300  0.26030  1.0000 0.1110196672
H   H209      1.0  0.43190  0.91190  0.73810  1.0000 0.119238435
H   H210      1.0  0.06810  0.41190  0.26190  1.0000 0.119238435
H   H211      1.0  0.93190  0.41190  0.76190  1.0000 0.119238435
H   H212      1.0  0.56810  0.91190  0.23810  1.0000 0.119238435
H   H213      1.0  0.75000  0.82340  0.82210  1.0000 0.119238435
H   H214      1.0  0.75000  0.32340  0.17790  1.0000 0.119238435
H   H215      1.0  0.25000  0.32340  0.67790  1.0000 0.119238435
H   H216      1.0  0.25000  0.82340  0.32210  1.0000 0.119238435
H   H217      1.0  0.79250  0.82200  0.89410  1.0000 0.119238435
H   H218      1.0  0.70750  0.32200  0.10590  1.0000 0.119238435
H   H219      1.0  0.29250  0.32200  0.60590  1.0000 0.119238435
H   H220      1.0  0.20750  0.82200  0.39410  1.0000 0.119238435
H   H221      1.0  0.65290  0.87270  0.92950  1.0000 0.1110196672
H   H222      1.0  0.84710  0.37270  0.07050  1.0000 0.1110196672
H   H223      1.0  0.15290  0.37270  0.57050  1.0000 0.1110196672
H   H224      1.0  0.34710  0.87270  0.42950  1.0000 0.1110196672
H   H225      1.0  0.74830  0.90380  0.76290  1.0000 0.1390507574
H   H226      1.0  0.75170  0.40380  0.23710  1.0000 0.1390507574
H   H227      1.0  0.24830  0.40380  0.73710  1.0000 0.1390507574
H   H228      1.0  0.25170  0.90380  0.26290  1.0000 0.1390507574
H   H229      1.0  0.81620  0.86570  0.70570  1.0000 0.1016921576
H   H230      1.0  0.68380  0.36570  0.29430  1.0000 0.1016921576
H   H231      1.0  0.31620  0.36570  0.79430  1.0000 0.1016921576
H   H232      1.0  0.18380  0.86570  0.20570  1.0000 0.1016921576
H   H233      1.0  0.56540  0.78100  0.69500  1.0000 0.0918986855
H   H234      1.0  0.93460  0.28100  0.30500  1.0000 0.0918986855
H   H235      1.0  0.06540  0.28100  0.80500  1.0000 0.0918986855
H   H236      1.0  0.43460  0.78100  0.19500  1.0000 0.0918986855
H   H237      1.0  0.48990  0.81630  0.75240  1.0000 0.1301065378
H   H238      1.0  0.01010  0.31630  0.24760  1.0000 0.1301065378
H   H239      1.0  0.98990  0.31630  0.74760  1.0000 0.1301065378
H   H240      1.0  0.51010  0.81630  0.25240  1.0000 0.1301065378
C   C1        1.0  0.33890  0.01276  0.14309  1.0000 0.0306687563
C   C2        1.0  0.16110  0.51276  0.85691  1.0000 0.0306687563
C   C3        1.0  0.83890  0.51276  0.35691  1.0000 0.0306687563
C   C4        1.0  0.66110  0.01276  0.64309  1.0000 0.0306687563
C   C5        1.0  0.30480  0.96593  0.15611  1.0000 -0.1816901551
C   C6        1.0  0.19520  0.46593  0.84389  1.0000 -0.1816901551
C   C7        1.0  0.80480  0.46593  0.34389  1.0000 -0.1816901551
C   C8        1.0  0.69520  0.96593  0.65611  1.0000 -0.1816901551
C   C9        1.0  0.38950  0.93445  0.15193  1.0000 -0.232743851
C   C10       1.0  0.11050  0.43445  0.84807  1.0000 -0.232743851
C   C11       1.0  0.88950  0.43445  0.34807  1.0000 -0.232743851
C   C12       1.0  0.61050  0.93445  0.65193  1.0000 -0.232743851
C   C13       1.0  0.47380  0.96282  0.13537  1.0000 0.1390507574
C   C14       1.0  0.02620  0.46282  0.86463  1.0000 0.1390507574
C   C15       1.0  0.97380  0.46282  0.36463  1.0000 0.1390507574
C   C16       1.0  0.52620  0.96282  0.63537  1.0000 0.1390507574
C   C17       1.0  0.57440  0.94596  0.12469  1.0000 -0.0884026358
C   C18       1.0  0.92560  0.44596  0.87531  1.0000 -0.0884026358
C   C19       1.0  0.07440  0.44596  0.37531  1.0000 -0.0884026358
C   C20       1.0  0.42560  0.94596  0.62469  1.0000 -0.0884026358
C   C21       1.0  0.65320  0.97476  0.10748  1.0000 0.1390507574
C   C22       1.0  0.84680  0.47476  0.89252  1.0000 0.1390507574
C   C23       1.0  0.15320  0.47476  0.39252  1.0000 0.1390507574
C   C24       1.0  0.34680  0.97476  0.60748  1.0000 0.1390507574
C   C25       1.0  0.75770  0.95867  0.09602  1.0000 -0.2091047866
C   C26       1.0  0.74230  0.45867  0.90398  1.0000 -0.2091047866
C   C27       1.0  0.25770  0.45867  0.40398  1.0000 -0.2091047866
C   C28       1.0  0.24230  0.95867  0.59602  1.0000 -0.2091047866
C   C29       1.0  0.80900  0.99933  0.08141  1.0000 -0.1620790584
C   C30       1.0  0.69100  0.49933  0.91859  1.0000 -0.1620790584
C   C31       1.0  0.30900  0.49933  0.41859  1.0000 -0.1620790584
C   C32       1.0  0.19100  0.99933  0.58141  1.0000 -0.1620790584
C   C33       1.0  0.73750  0.03939  0.08382  1.0000 0.0197141155
C   C34       1.0  0.76250  0.53939  0.91618  1.0000 0.0197141155
C   C35       1.0  0.23750  0.53939  0.41618  1.0000 0.0197141155
C   C36       1.0  0.26250  0.03939  0.58382  1.0000 0.0197141155
C   C37       1.0  0.59930  0.89268  0.13298  1.0000 0.1301065378
C   C38       1.0  0.90070  0.39268  0.86702  1.0000 0.1301065378
C   C39       1.0  0.09930  0.39268  0.36702  1.0000 0.1301065378
C   C40       1.0  0.40070  0.89268  0.63298  1.0000 0.1301065378
C   C41       1.0  0.66990  0.87927  0.16296  1.0000 -0.1990384609
C   C42       1.0  0.83010  0.37927  0.83704  1.0000 -0.1990384609
C   C43       1.0  0.16990  0.37927  0.33704  1.0000 -0.1990384609
C   C44       1.0  0.33010  0.87927  0.66296  1.0000 -0.1990384609
C   C45       1.0  0.69530  0.82964  0.16814  1.0000 0.0394776163
C   C46       1.0  0.80470  0.32964  0.83186  1.0000 0.0394776163
C   C47       1.0  0.19530  0.32964  0.33186  1.0000 0.0394776163
C   C48       1.0  0.30470  0.82964  0.66814  1.0000 0.0394776163
C   C49       1.0  0.58500  0.80616  0.11795  1.0000 0.0306687563
C   C50       1.0  0.91500  0.30616  0.88205  1.0000 0.0306687563
C   C51       1.0  0.08500  0.30616  0.38205  1.0000 0.0306687563
C   C52       1.0  0.41500  0.80616  0.61795  1.0000 0.0306687563
C   C53       1.0  0.55470  0.85476  0.11068  1.0000 -0.1923297938
C   C54       1.0  0.94530  0.35476  0.88932  1.0000 -0.1923297938
C   C55       1.0  0.05470  0.35476  0.38932  1.0000 -0.1923297938
C   C56       1.0  0.44530  0.85476  0.61068  1.0000 -0.1923297938
C   C57       1.0  0.09800  0.52940  0.95476  1.0000 0.0394776163
C   C58       1.0  0.40200  0.02940  0.04524  1.0000 0.0394776163
C   C59       1.0  0.59800  0.02940  0.54524  1.0000 0.0394776163
C   C60       1.0  0.90200  0.52940  0.45476  1.0000 0.0394776163
C   C61       1.0  0.11370  0.53357  0.99621  1.0000 -0.1401315149
C   C62       1.0  0.38630  0.03357  0.00379  1.0000 -0.1401315149
C   C63       1.0  0.61370  0.03357  0.50379  1.0000 -0.1401315149
C   C64       1.0  0.88630  0.53357  0.49621  1.0000 -0.1401315149
C   C65       1.0  0.04260  0.56837  0.00915  1.0000 -0.2091047866
C   C66       1.0  0.45740  0.06837  0.99085  1.0000 -0.2091047866
C   C67       1.0  0.54260  0.06837  0.49085  1.0000 -0.2091047866
C   C68       1.0  0.95740  0.56837  0.50915  1.0000 -0.2091047866
C   C69       1.0  0.98530  0.58564  0.97521  1.0000 0.1301065378
C   C70       1.0  0.51470  0.08564  0.02479  1.0000 0.1301065378
C   C71       1.0  0.48530  0.08564  0.52479  1.0000 0.1301065378
C   C72       1.0  0.01470  0.58564  0.47521  1.0000 0.1301065378
C   C73       1.0  0.91380  0.62392  0.97348  1.0000 -0.0802193419
C   C74       1.0  0.58620  0.12392  0.02652  1.0000 -0.0802193419
C   C75       1.0  0.41380  0.12392  0.52652  1.0000 -0.0802193419
C   C76       1.0  0.08620  0.62392  0.47348  1.0000 -0.0802193419
C   C77       1.0  0.87200  0.64479  0.93888  1.0000 0.1390507574
C   C78       1.0  0.62800  0.14479  0.06112  1.0000 0.1390507574
C   C79       1.0  0.37200  0.14479  0.56112  1.0000 0.1390507574
C   C80       1.0  0.12800  0.64479  0.43888  1.0000 0.1390507574
C   C81       1.0  0.80390  0.68638  0.93478  1.0000 -0.2194904028
C   C82       1.0  0.69610  0.18638  0.06522  1.0000 -0.2194904028
C   C83       1.0  0.30390  0.18638  0.56522  1.0000 -0.2194904028
C   C84       1.0  0.19610  0.68638  0.43478  1.0000 -0.2194904028
C   C85       1.0  0.78690  0.69427  0.89442  1.0000 -0.1620790584
C   C86       1.0  0.71310  0.19427  0.10558  1.0000 -0.1620790584
C   C87       1.0  0.28690  0.19427  0.60558  1.0000 -0.1620790584
C   C88       1.0  0.21310  0.69427  0.39442  1.0000 -0.1620790584
C   C89       1.0  0.84330  0.65605  0.87466  1.0000 0.0394776163
C   C90       1.0  0.65670  0.15605  0.12534  1.0000 0.0394776163
C   C91       1.0  0.34330  0.15605  0.62534  1.0000 0.0306687563
C   C92       1.0  0.15670  0.65605  0.37466  1.0000 0.0306687563
C   C93       1.0  0.87550  0.64623  0.01214  1.0000 0.1301065378
C   C94       1.0  0.62450  0.14623  0.98786  1.0000 0.1301065378
C   C95       1.0  0.37550  0.14623  0.48786  1.0000 0.1301065378
C   C96       1.0  0.12450  0.64623  0.51214  1.0000 0.1301065378
C   C97       1.0  0.81280  0.61839  0.03812  1.0000 -0.1990384609
C   C98       1.0  0.68720  0.11839  0.96188  1.0000 -0.1990384609
C   C99       1.0  0.31280  0.11839  0.46188  1.0000 -0.1990384609
C   C100      1.0  0.18720  0.61839  0.53812  1.0000 -0.1990384609
C   C101      1.0  0.77500  0.64002  0.07275  1.0000 0.0587169943
C   C102      1.0  0.72500  0.14002  0.92725  1.0000 0.0587169943
C   C103      1.0  0.27500  0.14002  0.42725  1.0000 0.0587169943
C   C104      1.0  0.22500  0.64002  0.57275  1.0000 0.0587169943
C   C105      1.0  0.85820  0.71342  0.05838  1.0000 0.0306687563
C   C106      1.0  0.64180  0.21342  0.94162  1.0000 0.0306687563
C   C107      1.0  0.35820  0.21342  0.44162  1.0000 0.0306687563
C   C108      1.0  0.14180  0.71342  0.55838  1.0000 0.0306687563
C   C109      1.0  0.89970  0.69453  0.02317  1.0000 -0.1990384609
C   C110      1.0  0.60030  0.19453  0.97683  1.0000 -0.1990384609
C   C111      1.0  0.39970  0.19453  0.47683  1.0000 -0.1990384609
C   C112      1.0  0.10030  0.69453  0.52317  1.0000 -0.1990384609
C   C113      1.0  0.16920  0.55054  0.31834  1.0000 0.0306687563
C   C114      1.0  0.33080  0.05054  0.68166  1.0000 0.0306687563
C   C115      1.0  0.66920  0.05054  0.18166  1.0000 0.0306687563
C   C116      1.0  0.83080  0.55054  0.81834  1.0000 0.0306687563
C   C117      1.0  0.17760  0.55685  0.27681  1.0000 -0.1672327932
C   C118      1.0  0.32240  0.05685  0.72319  1.0000 -0.1672327932
C   C119      1.0  0.67760  0.05685  0.22319  1.0000 -0.1672327932
C   C120      1.0  0.82240  0.55685  0.77681  1.0000 -0.1672327932
C   C121      1.0  0.08670  0.57986  0.26478  1.0000 -0.2194904028
C   C122      1.0  0.41330  0.07986  0.73522  1.0000 -0.2194904028
C   C123      1.0  0.58670  0.07986  0.23522  1.0000 -0.2194904028
C   C124      1.0  0.91330  0.57986  0.76478  1.0000 -0.2194904028
C   C125      1.0  0.02430  0.58944  0.29987  1.0000 0.1390507574
C   C126      1.0  0.47570  0.08944  0.70013  1.0000 0.1390507574
C   C127      1.0  0.52430  0.08944  0.20013  1.0000 0.1390507574
C   C128      1.0  0.97570  0.58944  0.79987  1.0000 0.1390507574
C   C129      1.0  0.93240  0.61671  0.30239  1.0000 -0.0802193419
C   C130      1.0  0.56760  0.11671  0.69761  1.0000 -0.0802193419
C   C131      1.0  0.43240  0.11671  0.19761  1.0000 -0.0802193419
C   C132      1.0  0.06760  0.61671  0.80239  1.0000 -0.0802193419
C   C133      1.0  0.87840  0.62881  0.33753  1.0000 0.1301065378
C   C134      1.0  0.62160  0.12881  0.66247  1.0000 0.1301065378
C   C135      1.0  0.37840  0.12881  0.16247  1.0000 0.1301065378
C   C136      1.0  0.12160  0.62881  0.83753  1.0000 0.1301065378
C   C137      1.0  0.78760  0.65984  0.34269  1.0000 -0.2091047866
C   C138      1.0  0.71240  0.15984  0.65731  1.0000 -0.2091047866
C   C139      1.0  0.28760  0.15984  0.15731  1.0000 -0.2091047866
C   C140      1.0  0.21240  0.65984  0.84269  1.0000 -0.2091047866
C   C141      1.0  0.76490  0.66102  0.38187  1.0000 -0.1620790584
C   C142      1.0  0.73510  0.16102  0.61813  1.0000 -0.1620790584
C   C143      1.0  0.26490  0.16102  0.11813  1.0000 -0.1620790584
C   C144      1.0  0.23510  0.66102  0.88187  1.0000 -0.1620790584
C   C145      1.0  0.84300  0.63197  0.40142  1.0000 0.0306687563
C   C146      1.0  0.65700  0.13197  0.59858  1.0000 0.0306687563
C   C147      1.0  0.34300  0.13197  0.09858  1.0000 0.0306687563
C   C148      1.0  0.15700  0.63197  0.90142  1.0000 0.0306687563
C   C149      1.0  0.88700  0.63791  0.26484  1.0000 0.1301065378
C   C150      1.0  0.61300  0.13791  0.73516  1.0000 0.1301065378
C   C151      1.0  0.38700  0.13791  0.23516  1.0000 0.1301065378
C   C152      1.0  0.11300  0.63791  0.76484  1.0000 0.1301065378
C   C153      1.0  0.79020  0.62202  0.24995  1.0000 -0.1990384609
C   C154      1.0  0.70980  0.12202  0.75005  1.0000 -0.1990384609
C   C155      1.0  0.29020  0.12202  0.25005  1.0000 -0.1990384609
C   C156      1.0  0.20980  0.62202  0.74995  1.0000 -0.1990384609
C   C157      1.0  0.75070  0.64476  0.21556  1.0000 0.0502529399
C   C158      1.0  0.74930  0.14476  0.78444  1.0000 0.0502529399
C   C159      1.0  0.25070  0.14476  0.28444  1.0000 0.0502529399
C   C160      1.0  0.24930  0.64476  0.71556  1.0000 0.0502529399
C   C161      1.0  0.89630  0.69416  0.20920  1.0000 0.0502529399
C   C162      1.0  0.60370  0.19416  0.79080  1.0000 0.0502529399
C   C163      1.0  0.39630  0.19416  0.29080  1.0000 0.0502529399
C   C164      1.0  0.10370  0.69416  0.70920  1.0000 0.0502529399
C   C165      1.0  0.94200  0.67333  0.24378  1.0000 -0.1990384609
C   C166      1.0  0.55800  0.17333  0.75622  1.0000 -0.1990384609
C   C167      1.0  0.44200  0.17333  0.25622  1.0000 -0.1990384609
C   C168      1.0  0.05800  0.67333  0.74378  1.0000 -0.1990384609
C   C169      1.0  0.16110  0.48724  0.64309  1.0000 0.0306687563
C   C170      1.0  0.33890  0.98724  0.35691  1.0000 0.0306687563
C   C171      1.0  0.66110  0.98724  0.85691  1.0000 0.0306687563
C   C172      1.0  0.83890  0.48724  0.14309  1.0000 0.0306687563
C   C173      1.0  0.19520  0.53407  0.65611  1.0000 -0.1816901551
C   C174      1.0  0.30480  0.03407  0.34389  1.0000 -0.1816901551
C   C175      1.0  0.69520  0.03407  0.84389  1.0000 -0.1816901551
C   C176      1.0  0.80480  0.53407  0.15611  1.0000 -0.1816901551
C   C177      1.0  0.11050  0.56555  0.65193  1.0000 -0.232743851
C   C178      1.0  0.38950  0.06555  0.34807  1.0000 -0.232743851
C   C179      1.0  0.61050  0.06555  0.84807  1.0000 -0.232743851
C   C180      1.0  0.88950  0.56555  0.15193  1.0000 -0.232743851
C   C181      1.0  0.02620  0.53718  0.63537  1.0000 0.1390507574
C   C182      1.0  0.47380  0.03718  0.36463  1.0000 0.1390507574
C   C183      1.0  0.52620  0.03718  0.86463  1.0000 0.1390507574
C   C184      1.0  0.97380  0.53718  0.13537  1.0000 0.1390507574
C   C185      1.0  0.92560  0.55404  0.62469  1.0000 -0.0884026358
C   C186      1.0  0.57440  0.05404  0.37531  1.0000 -0.0884026358
C   C187      1.0  0.42560  0.05404  0.87531  1.0000 -0.0884026358
C   C188      1.0  0.07440  0.55404  0.12469  1.0000 -0.0884026358
C   C189      1.0  0.84680  0.52524  0.60748  1.0000 0.1390507574
C   C190      1.0  0.65320  0.02524  0.39252  1.0000 0.1390507574
C   C191      1.0  0.34680  0.02524  0.89252  1.0000 0.1390507574
C   C192      1.0  0.15320  0.52524  0.10748  1.0000 0.1390507574
C   C193      1.0  0.74230  0.54133  0.59602  1.0000 -0.2091047866
C   C194      1.0  0.75770  0.04133  0.40398  1.0000 -0.2091047866
C   C195      1.0  0.24230  0.04133  0.90398  1.0000 -0.2091047866
C   C196      1.0  0.25770  0.54133  0.09602  1.0000 -0.2091047866
C   C197      1.0  0.69100  0.50067  0.58141  1.0000 -0.1620790584
C   C198      1.0  0.80900  0.00067  0.41859  1.0000 -0.1620790584
C   C199      1.0  0.19100  0.00067  0.91859  1.0000 -0.1620790584
C   C200      1.0  0.30900  0.50067  0.08141  1.0000 -0.1620790584
C   C201      1.0  0.76250  0.46061  0.58382  1.0000 0.0197141155
C   C202      1.0  0.73750  0.96061  0.41618  1.0000 0.0197141155
C   C203      1.0  0.26250  0.96061  0.91618  1.0000 0.0197141155
C   C204      1.0  0.23750  0.46061  0.08382  1.0000 0.0197141155
C   C205      1.0  0.90070  0.60732  0.63298  1.0000 0.1301065378
C   C206      1.0  0.59930  0.10732  0.36702  1.0000 0.1301065378
C   C207      1.0  0.40070  0.10732  0.86702  1.0000 0.1301065378
C   C208      1.0  0.09930  0.60732  0.13298  1.0000 0.1301065378
C   C209      1.0  0.83010  0.62073  0.66296  1.0000 -0.1990384609
C   C210      1.0  0.66990  0.12073  0.33704  1.0000 -0.1923297938
C   C211      1.0  0.33010  0.12073  0.83704  1.0000 -0.1990384609
C   C212      1.0  0.16990  0.62073  0.16296  1.0000 -0.1990384609
C   C213      1.0  0.80470  0.67036  0.66814  1.0000 0.0394776163
C   C214      1.0  0.69530  0.17036  0.33186  1.0000 0.0394776163
C   C215      1.0  0.30470  0.17036  0.83186  1.0000 0.0394776163
C   C216      1.0  0.19530  0.67036  0.16814  1.0000 0.0394776163
C   C217      1.0  0.91500  0.69384  0.61795  1.0000 0.0306687563
C   C218      1.0  0.58500  0.19384  0.38205  1.0000 0.0306687563
C   C219      1.0  0.41500  0.19384  0.88205  1.0000 0.0306687563
C   C220      1.0  0.08500  0.69384  0.11795  1.0000 0.0306687563
C   C221      1.0  0.94530  0.64524  0.61068  1.0000 -0.1923297938
C   C222      1.0  0.55470  0.14524  0.38932  1.0000 -0.1923297938
C   C223      1.0  0.44530  0.14524  0.88932  1.0000 -0.1923297938
C   C224      1.0  0.05470  0.64524  0.11068  1.0000 -0.1923297938
C   C225      1.0  0.40200  0.97060  0.45476  1.0000 0.0394776163
C   C226      1.0  0.09800  0.47060  0.54524  1.0000 0.0394776163
C   C227      1.0  0.90200  0.47060  0.04524  1.0000 0.0394776163
C   C228      1.0  0.59800  0.97060  0.95476  1.0000 0.0394776163
C   C229      1.0  0.38630  0.96643  0.49621  1.0000 -0.1401315149
C   C230      1.0  0.11370  0.46643  0.50379  1.0000 -0.1401315149
C   C231      1.0  0.88630  0.46643  0.00379  1.0000 -0.1401315149
C   C232      1.0  0.61370  0.96643  0.99621  1.0000 -0.1401315149
C   C233      1.0  0.45740  0.93163  0.50915  1.0000 -0.2091047866
C   C234      1.0  0.04260  0.43163  0.49085  1.0000 -0.2091047866
C   C235      1.0  0.95740  0.43163  0.99085  1.0000 -0.2091047866
C   C236      1.0  0.54260  0.93163  0.00915  1.0000 -0.2091047866
C   C237      1.0  0.51470  0.91436  0.47521  1.0000 0.1301065378
C   C238      1.0  0.98530  0.41436  0.52479  1.0000 0.1301065378
C   C239      1.0  0.01470  0.41436  0.02479  1.0000 0.1301065378
C   C240      1.0  0.48530  0.91436  0.97521  1.0000 0.1301065378
C   C241      1.0  0.58620  0.87608  0.47348  1.0000 -0.0802193419
C   C242      1.0  0.91380  0.37608  0.52652  1.0000 -0.0802193419
C   C243      1.0  0.08620  0.37608  0.02652  1.0000 -0.0802193419
C   C244      1.0  0.41380  0.87608  0.97348  1.0000 -0.0802193419
C   C245      1.0  0.62800  0.85521  0.43888  1.0000 0.1390507574
C   C246      1.0  0.87200  0.35521  0.56112  1.0000 0.1390507574
C   C247      1.0  0.12800  0.35521  0.06112  1.0000 0.1390507574
C   C248      1.0  0.37200  0.85521  0.93888  1.0000 0.1390507574
C   C249      1.0  0.69610  0.81362  0.43478  1.0000 -0.2194904028
C   C250      1.0  0.80390  0.31362  0.56522  1.0000 -0.2194904028
C   C251      1.0  0.19610  0.31362  0.06522  1.0000 -0.2194904028
C   C252      1.0  0.30390  0.81362  0.93478  1.0000 -0.2194904028
C   C253      1.0  0.71310  0.80573  0.39442  1.0000 -0.1620790584
C   C254      1.0  0.78690  0.30573  0.60558  1.0000 -0.1620790584
C   C255      1.0  0.21310  0.30573  0.10558  1.0000 -0.1620790584
C   C256      1.0  0.28690  0.80573  0.89442  1.0000 -0.1620790584
C   C257      1.0  0.65670  0.84395  0.37466  1.0000 0.0306687563
C   C258      1.0  0.84330  0.34395  0.62534  1.0000 0.0394776163
C   C259      1.0  0.15670  0.34395  0.12534  1.0000 0.0306687563
C   C260      1.0  0.34330  0.84395  0.87466  1.0000 0.0306687563
C   C261      1.0  0.62450  0.85377  0.51214  1.0000 0.1301065378
C   C262      1.0  0.87550  0.35377  0.48786  1.0000 0.1301065378
C   C263      1.0  0.12450  0.35377  0.98786  1.0000 0.1301065378
C   C264      1.0  0.37550  0.85377  0.01214  1.0000 0.1301065378
C   C265      1.0  0.68720  0.88161  0.53812  1.0000 -0.1990384609
C   C266      1.0  0.81280  0.38161  0.46188  1.0000 -0.1923297938
C   C267      1.0  0.18720  0.38161  0.96188  1.0000 -0.1990384609
C   C268      1.0  0.31280  0.88161  0.03812  1.0000 -0.1990384609
C   C269      1.0  0.72500  0.85998  0.57275  1.0000 0.0587169943
C   C270      1.0  0.77500  0.35998  0.42725  1.0000 0.0587169943
C   C271      1.0  0.22500  0.35998  0.92725  1.0000 0.0587169943
C   C272      1.0  0.27500  0.85998  0.07275  1.0000 0.0587169943
C   C273      1.0  0.64180  0.78658  0.55838  1.0000 0.0306687563
C   C274      1.0  0.85820  0.28658  0.44162  1.0000 0.0306687563
C   C275      1.0  0.14180  0.28658  0.94162  1.0000 0.0306687563
C   C276      1.0  0.35820  0.78658  0.05838  1.0000 0.0306687563
C   C277      1.0  0.60030  0.80547  0.52317  1.0000 -0.1990384609
C   C278      1.0  0.89970  0.30547  0.47683  1.0000 -0.1990384609
C   C279      1.0  0.10030  0.30547  0.97683  1.0000 -0.1990384609
C   C280      1.0  0.39970  0.80547  0.02317  1.0000 -0.1990384609
C   C281      1.0  0.33080  0.94946  0.81834  1.0000 0.0306687563
C   C282      1.0  0.16920  0.44946  0.18166  1.0000 0.0306687563
C   C283      1.0  0.83080  0.44946  0.68166  1.0000 0.0306687563
C   C284      1.0  0.66920  0.94946  0.31834  1.0000 0.0306687563
C   C285      1.0  0.32240  0.94315  0.77681  1.0000 -0.1672327932
C   C286      1.0  0.17760  0.44315  0.22319  1.0000 -0.1672327932
C   C287      1.0  0.82240  0.44315  0.72319  1.0000 -0.1672327932
C   C288      1.0  0.67760  0.94315  0.27681  1.0000 -0.1672327932
C   C289      1.0  0.41330  0.92014  0.76478  1.0000 -0.2194904028
C   C290      1.0  0.08670  0.42014  0.23522  1.0000 -0.2194904028
C   C291      1.0  0.91330  0.42014  0.73522  1.0000 -0.2194904028
C   C292      1.0  0.58670  0.92014  0.26478  1.0000 -0.2194904028
C   C293      1.0  0.47570  0.91056  0.79987  1.0000 0.1390507574
C   C294      1.0  0.02430  0.41056  0.20013  1.0000 0.1390507574
C   C295      1.0  0.97570  0.41056  0.70013  1.0000 0.1390507574
C   C296      1.0  0.52430  0.91056  0.29987  1.0000 0.1390507574
C   C297      1.0  0.56760  0.88329  0.80239  1.0000 -0.0802193419
C   C298      1.0  0.93240  0.38329  0.19761  1.0000 -0.0802193419
C   C299      1.0  0.06760  0.38329  0.69761  1.0000 -0.0802193419
C   C300      1.0  0.43240  0.88329  0.30239  1.0000 -0.0802193419
C   C301      1.0  0.62160  0.87119  0.83753  1.0000 0.1301065378
C   C302      1.0  0.87840  0.37119  0.16247  1.0000 0.1301065378
C   C303      1.0  0.12160  0.37119  0.66247  1.0000 0.1301065378
C   C304      1.0  0.37840  0.87119  0.33753  1.0000 0.1301065378
C   C305      1.0  0.71240  0.84016  0.84269  1.0000 -0.2091047866
C   C306      1.0  0.78760  0.34016  0.15731  1.0000 -0.2091047866
C   C307      1.0  0.21240  0.34016  0.65731  1.0000 -0.2091047866
C   C308      1.0  0.28760  0.84016  0.34269  1.0000 -0.2091047866
C   C309      1.0  0.73510  0.83898  0.88187  1.0000 -0.1620790584
C   C310      1.0  0.76490  0.33898  0.11813  1.0000 -0.1620790584
C   C311      1.0  0.23510  0.33898  0.61813  1.0000 -0.1620790584
C   C312      1.0  0.26490  0.83898  0.38187  1.0000 -0.1620790584
C   C313      1.0  0.65700  0.86803  0.90142  1.0000 0.0306687563
C   C314      1.0  0.84300  0.36803  0.09858  1.0000 0.0306687563
C   C315      1.0  0.15700  0.36803  0.59858  1.0000 0.0306687563
C   C316      1.0  0.34300  0.86803  0.40142  1.0000 0.0306687563
C   C317      1.0  0.61300  0.86209  0.76484  1.0000 0.1301065378
C   C318      1.0  0.88700  0.36209  0.23516  1.0000 0.1301065378
C   C319      1.0  0.11300  0.36209  0.73516  1.0000 0.1301065378
C   C320      1.0  0.38700  0.86209  0.26484  1.0000 0.1301065378
C   C321      1.0  0.70980  0.87798  0.74995  1.0000 -0.1990384609
C   C322      1.0  0.79020  0.37798  0.25005  1.0000 -0.1990384609
C   C323      1.0  0.20980  0.37798  0.75005  1.0000 -0.1990384609
C   C324      1.0  0.29020  0.87798  0.24995  1.0000 -0.1990384609
C   C325      1.0  0.74930  0.85524  0.71556  1.0000 0.0502529399
C   C326      1.0  0.75070  0.35524  0.28444  1.0000 0.0502529399
C   C327      1.0  0.24930  0.35524  0.78444  1.0000 0.0502529399
C   C328      1.0  0.25070  0.85524  0.21556  1.0000 0.0502529399
C   C329      1.0  0.60370  0.80584  0.70920  1.0000 0.0502529399
C   C330      1.0  0.89630  0.30584  0.29080  1.0000 0.0502529399
C   C331      1.0  0.10370  0.30584  0.79080  1.0000 0.0502529399
C   C332      1.0  0.39630  0.80584  0.20920  1.0000 0.0502529399
C   C333      1.0  0.55800  0.82667  0.74378  1.0000 -0.1990384609
C   C334      1.0  0.94200  0.32667  0.25622  1.0000 -0.1990384609
C   C335      1.0  0.05800  0.32667  0.75622  1.0000 -0.1990384609
C   C336      1.0  0.44200  0.82667  0.24378  1.0000 -0.1990384609
N   N1        1.0  0.43950  0.01165  0.13033  1.0000 -0.2394147777
N   N2        1.0  0.06050  0.51165  0.86967  1.0000 -0.2394147777
N   N3        1.0  0.93950  0.51165  0.36967  1.0000 -0.2394147777
N   N4        1.0  0.56050  0.01165  0.63033  1.0000 -0.2394147777
N   N5        1.0  0.64480  0.02535  0.09927  1.0000 -0.2394147777
N   N6        1.0  0.85520  0.52535  0.90073  1.0000 -0.2394147777
N   N7        1.0  0.14480  0.52535  0.40073  1.0000 -0.2394147777
N   N8        1.0  0.35520  0.02535  0.59927  1.0000 -0.2394147777
N   N9        1.0  0.65610  0.79311  0.14539  1.0000 -0.1990384609
N   N10       1.0  0.84390  0.29311  0.85461  1.0000 -0.1990384609
N   N11       1.0  0.15610  0.29311  0.35461  1.0000 -0.1990384609
N   N12       1.0  0.34390  0.79311  0.64539  1.0000 -0.1990384609
N   N13       1.0  0.02390  0.55998  0.94182  1.0000 -0.2394147777
N   N14       1.0  0.47610  0.05998  0.05818  1.0000 -0.2394147777
N   N15       1.0  0.52390  0.05998  0.55818  1.0000 -0.2394147777
N   N16       1.0  0.97610  0.55998  0.44182  1.0000 -0.2394147777
N   N17       1.0  0.89330  0.62644  0.90050  1.0000 -0.2394147777
N   N18       1.0  0.60670  0.12644  0.09950  1.0000 -0.2394147777
N   N19       1.0  0.39330  0.12644  0.59950  1.0000 -0.232743851
N   N20       1.0  0.10670  0.62644  0.40050  1.0000 -0.2394147777
N   N21       1.0  0.79760  0.68648  0.08314  1.0000 -0.2091047866
N   N22       1.0  0.70240  0.18648  0.91686  1.0000 -0.2091047866
N   N23       1.0  0.29760  0.18648  0.41686  1.0000 -0.2091047866
N   N24       1.0  0.20240  0.68648  0.58314  1.0000 -0.2091047866
N   N25       1.0  0.07780  0.57019  0.33237  1.0000 -0.2394147777
N   N26       1.0  0.42220  0.07019  0.66763  1.0000 -0.2394147777
N   N27       1.0  0.57780  0.07019  0.16763  1.0000 -0.2394147777
N   N28       1.0  0.92220  0.57019  0.83237  1.0000 -0.2394147777
N   N29       1.0  0.90940  0.61221  0.37525  1.0000 -0.232743851
N   N30       1.0  0.59060  0.11221  0.62475  1.0000 -0.2394147777
N   N31       1.0  0.40940  0.11221  0.12475  1.0000 -0.232743851
N   N32       1.0  0.09060  0.61221  0.87525  1.0000 -0.2394147777
N   N33       1.0  0.80210  0.68043  0.19577  1.0000 -0.1990384609
N   N34       1.0  0.69790  0.18043  0.80423  1.0000 -0.1990384609
N   N35       1.0  0.30210  0.18043  0.30423  1.0000 -0.1990384609
N   N36       1.0  0.19790  0.68043  0.69577  1.0000 -0.1990384609
N   N37       1.0  0.06050  0.48835  0.63033  1.0000 -0.2394147777
N   N38       1.0  0.43950  0.98835  0.36967  1.0000 -0.2394147777
N   N39       1.0  0.56050  0.98835  0.86967  1.0000 -0.2394147777
N   N40       1.0  0.93950  0.48835  0.13033  1.0000 -0.2394147777
N   N41       1.0  0.85520  0.47465  0.59927  1.0000 -0.2394147777
N   N42       1.0  0.64480  0.97465  0.40073  1.0000 -0.2394147777
N   N43       1.0  0.35520  0.97465  0.90073  1.0000 -0.2394147777
N   N44       1.0  0.14480  0.47465  0.09927  1.0000 -0.2394147777
N   N45       1.0  0.84390  0.70689  0.64539  1.0000 -0.1990384609
N   N46       1.0  0.65610  0.20689  0.35461  1.0000 -0.1990384609
N   N47       1.0  0.34390  0.20689  0.85461  1.0000 -0.1990384609
N   N48       1.0  0.15610  0.70689  0.14539  1.0000 -0.1990384609
N   N49       1.0  0.47610  0.94002  0.44182  1.0000 -0.2394147777
N   N50       1.0  0.02390  0.44002  0.55818  1.0000 -0.2394147777
N   N51       1.0  0.97610  0.44002  0.05818  1.0000 -0.2394147777
N   N52       1.0  0.52390  0.94002  0.94182  1.0000 -0.2394147777
N   N53       1.0  0.60670  0.87356  0.40050  1.0000 -0.2394147777
N   N54       1.0  0.89330  0.37356  0.59950  1.0000 -0.2394147777
N   N55       1.0  0.10670  0.37356  0.09950  1.0000 -0.2394147777
N   N56       1.0  0.39330  0.87356  0.90050  1.0000 -0.2394147777
N   N57       1.0  0.70240  0.81352  0.58314  1.0000 -0.2091047866
N   N58       1.0  0.79760  0.31352  0.41686  1.0000 -0.2091047866
N   N59       1.0  0.20240  0.31352  0.91686  1.0000 -0.2091047866
N   N60       1.0  0.29760  0.81352  0.08314  1.0000 -0.2091047866
N   N61       1.0  0.42220  0.92981  0.83237  1.0000 -0.2394147777
N   N62       1.0  0.07780  0.42981  0.16763  1.0000 -0.2394147777
N   N63       1.0  0.92220  0.42981  0.66763  1.0000 -0.2394147777
N   N64       1.0  0.57780  0.92981  0.33237  1.0000 -0.2394147777
N   N65       1.0  0.59060  0.88779  0.87525  1.0000 -0.2394147777
N   N66       1.0  0.90940  0.38779  0.12475  1.0000 -0.232743851
N   N67       1.0  0.09060  0.38779  0.62475  1.0000 -0.2394147777
N   N68       1.0  0.40940  0.88779  0.37525  1.0000 -0.2394147777
N   N69       1.0  0.69790  0.81957  0.69577  1.0000 -0.1990384609
N   N70       1.0  0.80210  0.31957  0.30423  1.0000 -0.1990384609
N   N71       1.0  0.19790  0.31957  0.80423  1.0000 -0.1990384609
N   N72       1.0  0.30210  0.81957  0.19577  1.0000 -0.1990384609
