# DDEC6 charges by PACMAN v1.1 (https://github.com/mtap-research/PACMAN-charge/)
data_2006[Zn][nan]3[ASR]7
_chemical_formula_sum              "Zn12 P8 H128 C168 S8 N24 O52"
_cell_length_a       13.5396
_cell_length_b       30.438
_cell_length_c       15.7217
_cell_angle_alpha    90
_cell_angle_beta     110.535
_cell_angle_gamma    90

_symmetry_space_group_name_H-M    "P 1"
_symmetry_Int_Tables_number       1

loop_
  _symmetry_equiv_pos_as_xyz
  'x, y, z'

loop_
  _atom_site_type_symbol
  _atom_site_label
  _atom_site_symmetry_multiplicity
  _atom_site_fract_x
  _atom_site_fract_y
  _atom_site_fract_z
  _atom_site_occupancy
  _atom_site_charge
Zn  Zn1       1.0  0.52430  0.94928  0.14052  1.0000 0.6133025623
Zn  Zn2       1.0  0.47570  0.44928  0.35948  1.0000 0.6133025623
Zn  Zn3       1.0  0.47570  0.05072  0.85948  1.0000 0.6133025623
Zn  Zn4       1.0  0.52430  0.55072  0.64052  1.0000 0.6133025623
Zn  Zn5       1.0  0.66667  0.91706  0.70811  1.0000 0.8168224431
Zn  Zn6       1.0  0.33333  0.41706  0.79189  1.0000 0.8168224431
Zn  Zn7       1.0  0.33333  0.08294  0.29189  1.0000 0.8168224431
Zn  Zn8       1.0  0.66667  0.58294  0.20811  1.0000 0.8168224431
Zn  Zn9       1.0  0.38628  0.97676  0.56956  1.0000 0.9540989137
Zn  Zn10      1.0  0.61372  0.47676  0.93044  1.0000 0.9556342399
Zn  Zn11      1.0  0.61372  0.02324  0.43044  1.0000 0.9556342399
Zn  Zn12      1.0  0.38628  0.52324  0.06956  1.0000 0.9540989137
P   P1        1.0  0.50608  0.04820  0.21738  1.0000 1.2417076564
P   P2        1.0  0.49392  0.54820  0.28262  1.0000 1.2417076564
P   P3        1.0  0.49392  0.95180  0.78262  1.0000 1.2417076564
P   P4        1.0  0.50608  0.45180  0.71738  1.0000 1.2417076564
P   P5        1.0  0.55694  0.93248  0.50061  1.0000 1.2499306834
P   P6        1.0  0.44306  0.43248  0.99939  1.0000 1.2499306834
P   P7        1.0  0.44306  0.06752  0.49939  1.0000 1.2499306834
P   P8        1.0  0.55694  0.56752  0.00061  1.0000 1.2499306834
H   H1        1.0  0.58920  0.21700  0.13050  1.0000 0.1199505686
H   H2        1.0  0.41080  0.71700  0.36950  1.0000 0.1199505686
H   H3        1.0  0.41080  0.78300  0.86950  1.0000 0.1199505686
H   H4        1.0  0.58920  0.28300  0.63050  1.0000 0.1199505686
H   H5        1.0  0.42620  0.18560  0.05520  1.0000 0.1011706316
H   H6        1.0  0.57380  0.68560  0.44480  1.0000 0.1011706316
H   H7        1.0  0.57380  0.81440  0.94480  1.0000 0.1011706316
H   H8        1.0  0.42620  0.31440  0.55520  1.0000 0.1011706316
H   H9        1.0  0.39000  0.11530  0.09260  1.0000 0.1079465217
H   H10       1.0  0.61000  0.61530  0.40740  1.0000 0.1079465217
H   H11       1.0  0.61000  0.88470  0.90740  1.0000 0.1079465217
H   H12       1.0  0.39000  0.38470  0.59260  1.0000 0.1079465217
H   H13       1.0  0.68210  0.10710  0.27790  1.0000 0.1294492743
H   H14       1.0  0.31790  0.60710  0.22210  1.0000 0.1294492743
H   H15       1.0  0.31790  0.89290  0.72210  1.0000 0.1294492743
H   H16       1.0  0.68210  0.39290  0.77790  1.0000 0.1294492743
H   H17       1.0  0.40820  0.86890  0.39320  1.0000 0.1199505686
H   H18       1.0  0.59180  0.36890  0.10680  1.0000 0.1199505686
H   H19       1.0  0.59180  0.13110  0.60680  1.0000 0.1199505686
H   H20       1.0  0.40820  0.63110  0.89320  1.0000 0.1199505686
H   H21       1.0  0.41900  0.79920  0.33850  1.0000 0.1199505686
H   H22       1.0  0.58100  0.29920  0.16150  1.0000 0.1199505686
H   H23       1.0  0.58100  0.20080  0.66150  1.0000 0.1199505686
H   H24       1.0  0.41900  0.70080  0.83850  1.0000 0.1199505686
H   H25       1.0  0.58000  0.76380  0.38000  1.0000 0.1011706316
H   H26       1.0  0.42000  0.26380  0.12000  1.0000 0.1011706316
H   H27       1.0  0.42000  0.23620  0.62000  1.0000 0.1011706316
H   H28       1.0  0.58000  0.73620  0.88000  1.0000 0.1011706316
H   H29       1.0  0.72140  0.86950  0.52110  1.0000 0.1199505686
H   H30       1.0  0.27860  0.36950  0.97890  1.0000 0.1199505686
H   H31       1.0  0.27860  0.13050  0.47890  1.0000 0.1199505686
H   H32       1.0  0.72140  0.63050  0.02110  1.0000 0.1199505686
H   H33       1.0  0.22210  0.90770  0.50010  1.0000 0.1294492743
H   H34       1.0  0.77790  0.40770  0.99990  1.0000 0.1294492743
H   H35       1.0  0.77790  0.09230  0.49990  1.0000 0.1294492743
H   H36       1.0  0.22210  0.59230  0.00010  1.0000 0.1294492743
H   H37       1.0  0.04480  0.89980  0.42010  1.0000 0.1504847853
H   H38       1.0  0.95520  0.39980  0.07990  1.0000 0.1504847853
H   H39       1.0  0.95520  0.10020  0.57990  1.0000 0.1504847853
H   H40       1.0  0.04480  0.60020  0.92010  1.0000 0.1504847853
H   H41       1.0  0.02410  0.03080  0.39550  1.0000 0.1294492743
H   H42       1.0  0.97590  0.53080  0.10450  1.0000 0.1294492743
H   H43       1.0  0.97590  0.96920  0.60450  1.0000 0.1294492743
H   H44       1.0  0.02410  0.46920  0.89550  1.0000 0.1294492743
H   H45       1.0  0.20120  0.03510  0.47720  1.0000 0.1079465217
H   H46       1.0  0.79880  0.53510  0.02280  1.0000 0.1079465217
H   H47       1.0  0.79880  0.96490  0.52280  1.0000 0.1079465217
H   H48       1.0  0.20120  0.46490  0.97720  1.0000 0.1079465217
H   H49       1.0  0.86590  0.90680  0.40270  1.0000 0.139838113
H   H50       1.0  0.13410  0.40680  0.09730  1.0000 0.139838113
H   H51       1.0  0.13410  0.09320  0.59730  1.0000 0.139838113
H   H52       1.0  0.86590  0.59320  0.90270  1.0000 0.139838113
H   H53       1.0  0.68980  0.90320  0.31430  1.0000 0.1079465217
H   H54       1.0  0.31020  0.40320  0.18570  1.0000 0.1079465217
H   H55       1.0  0.31020  0.09680  0.68570  1.0000 0.1079465217
H   H56       1.0  0.68980  0.59680  0.81430  1.0000 0.1079465217
H   H57       1.0  0.71380  0.00680  0.17730  1.0000 0.1079465217
H   H58       1.0  0.28620  0.50680  0.32270  1.0000 0.1079465217
H   H59       1.0  0.28620  0.99320  0.82270  1.0000 0.1079465217
H   H60       1.0  0.71380  0.49320  0.67730  1.0000 0.1079465217
H   H61       1.0  0.88980  0.01390  0.26230  1.0000 0.1294492743
H   H62       1.0  0.11020  0.51390  0.23770  1.0000 0.1294492743
H   H63       1.0  0.11020  0.98610  0.73770  1.0000 0.1294492743
H   H64       1.0  0.88980  0.48610  0.76230  1.0000 0.1294492743
H   H65       1.0  0.30900  0.98890  0.10720  1.0000 0.1199505686
H   H66       1.0  0.69100  0.48890  0.39280  1.0000 0.1199505686
H   H67       1.0  0.69100  0.01110  0.89280  1.0000 0.1199505686
H   H68       1.0  0.30900  0.51110  0.60720  1.0000 0.1199505686
H   H69       1.0  0.13390  0.98080  0.02200  1.0000 0.1199505686
H   H70       1.0  0.86610  0.48080  0.47800  1.0000 0.1199505686
H   H71       1.0  0.86610  0.01920  0.97800  1.0000 0.1199505686
H   H72       1.0  0.13390  0.51920  0.52200  1.0000 0.1199505686
H   H73       1.0  0.21320  0.88850  0.87520  1.0000 0.1504847853
H   H74       1.0  0.78680  0.38850  0.62480  1.0000 0.1504847853
H   H75       1.0  0.78680  0.11150  0.12480  1.0000 0.1504847853
H   H76       1.0  0.21320  0.61150  0.37520  1.0000 0.1504847853
H   H77       1.0  0.38640  0.89940  0.96480  1.0000 0.1079465217
H   H78       1.0  0.61360  0.39940  0.53520  1.0000 0.1079465217
H   H79       1.0  0.61360  0.10060  0.03520  1.0000 0.1079465217
H   H80       1.0  0.38640  0.60060  0.46480  1.0000 0.1079465217
H   H81       1.0  0.97940  0.94500  0.98170  1.0000 0.1294492743
H   H82       1.0  0.02060  0.44500  0.51830  1.0000 0.1294492743
H   H83       1.0  0.02060  0.05500  0.01830  1.0000 0.1294492743
H   H84       1.0  0.97940  0.55500  0.48170  1.0000 0.1294492743
H   H85       1.0  0.80460  0.93890  0.89300  1.0000 0.1079465217
H   H86       1.0  0.19540  0.43890  0.60700  1.0000 0.1079465217
H   H87       1.0  0.19540  0.06110  0.10700  1.0000 0.1079465217
H   H88       1.0  0.80460  0.56110  0.39300  1.0000 0.1079465217
H   H89       1.0  0.87680  0.89990  0.68570  1.0000 0.1199505686
H   H90       1.0  0.12320  0.39990  0.81430  1.0000 0.1199505686
H   H91       1.0  0.12320  0.10010  0.31430  1.0000 0.1199505686
H   H92       1.0  0.87680  0.60010  0.18570  1.0000 0.1199505686
H   H93       1.0  0.05420  0.90480  0.76900  1.0000 0.1504847853
H   H94       1.0  0.94580  0.40480  0.73100  1.0000 0.1504847853
H   H95       1.0  0.94580  0.09520  0.23100  1.0000 0.1504847853
H   H96       1.0  0.05420  0.59520  0.26900  1.0000 0.1504847853
H   H97       1.0  0.40130  0.86250  0.14620  1.0000 0.1079465217
H   H98       1.0  0.59870  0.36250  0.35380  1.0000 0.1079465217
H   H99       1.0  0.59870  0.13750  0.85380  1.0000 0.1079465217
H   H100      1.0  0.40130  0.63750  0.64620  1.0000 0.1079465217
H   H101      1.0  0.41900  0.78740  0.15710  1.0000 0.1581029034
H   H102      1.0  0.58100  0.28740  0.34290  1.0000 0.1581029034
H   H103      1.0  0.58100  0.21260  0.84290  1.0000 0.1581029034
H   H104      1.0  0.41900  0.71260  0.65710  1.0000 0.1581029034
H   H105      1.0  0.71080  0.80170  0.14870  1.0000 0.139838113
H   H106      1.0  0.28920  0.30170  0.35130  1.0000 0.139838113
H   H107      1.0  0.28920  0.19830  0.85130  1.0000 0.139838113
H   H108      1.0  0.71080  0.69830  0.64870  1.0000 0.139838113
H   H109      1.0  0.68030  0.87570  0.13070  1.0000 0.1011706316
H   H110      1.0  0.31970  0.37570  0.36930  1.0000 0.1011706316
H   H111      1.0  0.31970  0.12430  0.86930  1.0000 0.1011706316
H   H112      1.0  0.68030  0.62430  0.63070  1.0000 0.1011706316
H   H113      1.0  0.44090  0.71580  0.09790  1.0000 0.1504847853
H   H114      1.0  0.55910  0.21580  0.40210  1.0000 0.1504847853
H   H115      1.0  0.55910  0.28420  0.90210  1.0000 0.1504847853
H   H116      1.0  0.44090  0.78420  0.59790  1.0000 0.1504847853
H   H117      1.0  0.47870  0.64240  0.12200  1.0000 0.1199505686
H   H118      1.0  0.52130  0.14240  0.37800  1.0000 0.1199505686
H   H119      1.0  0.52130  0.35760  0.87800  1.0000 0.1199505686
H   H120      1.0  0.47870  0.85760  0.62200  1.0000 0.1199505686
H   H121      1.0  0.77030  0.66780  0.26910  1.0000 0.1011706316
H   H122      1.0  0.22970  0.16780  0.23090  1.0000 0.1011706316
H   H123      1.0  0.22970  0.33220  0.73090  1.0000 0.1011706316
H   H124      1.0  0.77030  0.83220  0.76910  1.0000 0.1011706316
H   H125      1.0  0.74200  0.74200  0.25070  1.0000 0.139838113
H   H126      1.0  0.25800  0.24200  0.24930  1.0000 0.139838113
H   H127      1.0  0.25800  0.25800  0.74930  1.0000 0.139838113
H   H128      1.0  0.74200  0.75800  0.75070  1.0000 0.139838113
C   C1        1.0  0.64980  0.16572  0.21270  1.0000 -0.0906589363
C   C2        1.0  0.35020  0.66572  0.28730  1.0000 -0.0906589363
C   C3        1.0  0.35020  0.83428  0.78730  1.0000 -0.0906589363
C   C4        1.0  0.64980  0.33428  0.71270  1.0000 -0.0906589363
C   C5        1.0  0.57460  0.18882  0.14550  1.0000 -0.0906589363
C   C6        1.0  0.42540  0.68882  0.35450  1.0000 -0.0906589363
C   C7        1.0  0.42540  0.81118  0.85450  1.0000 -0.0906589363
C   C8        1.0  0.57460  0.31118  0.64550  1.0000 -0.0906589363
C   C9        1.0  0.47740  0.16998  0.10030  1.0000 -0.1118032803
C   C10       1.0  0.52260  0.66998  0.39970  1.0000 -0.1118032803
C   C11       1.0  0.52260  0.83002  0.89970  1.0000 -0.1118032803
C   C12       1.0  0.47740  0.33002  0.60030  1.0000 -0.1118032803
C   C13       1.0  0.45610  0.12756  0.12220  1.0000 -0.0987919253
C   C14       1.0  0.54390  0.62756  0.37780  1.0000 -0.0987919253
C   C15       1.0  0.54390  0.87244  0.87780  1.0000 -0.0987919253
C   C16       1.0  0.45610  0.37244  0.62220  1.0000 -0.0987919253
C   C17       1.0  0.53290  0.10340  0.18800  1.0000 -0.1894376763
C   C18       1.0  0.46710  0.60340  0.31200  1.0000 -0.1894376763
C   C19       1.0  0.46710  0.89660  0.81200  1.0000 -0.1894376763
C   C20       1.0  0.53290  0.39660  0.68800  1.0000 -0.1894376763
C   C21       1.0  0.63010  0.12281  0.23350  1.0000 -0.0906589363
C   C22       1.0  0.36990  0.62281  0.26650  1.0000 -0.0906589363
C   C23       1.0  0.36990  0.87719  0.76650  1.0000 -0.0906589363
C   C24       1.0  0.63010  0.37719  0.73350  1.0000 -0.0906589363
C   C25       1.0  0.56420  0.87720  0.46150  1.0000 -0.1794314825
C   C26       1.0  0.43580  0.37720  0.03850  1.0000 -0.1794314825
C   C27       1.0  0.43580  0.12280  0.53850  1.0000 -0.1794314825
C   C28       1.0  0.56420  0.62280  0.96150  1.0000 -0.1794314825
C   C29       1.0  0.47350  0.85521  0.40790  1.0000 -0.066203952
C   C30       1.0  0.52650  0.35521  0.09210  1.0000 -0.066203952
C   C31       1.0  0.52650  0.14479  0.59210  1.0000 -0.066203952
C   C32       1.0  0.47350  0.64479  0.90790  1.0000 -0.066203952
C   C33       1.0  0.47960  0.81317  0.37610  1.0000 -0.0987919253
C   C34       1.0  0.52040  0.31317  0.12390  1.0000 -0.0987919253
C   C35       1.0  0.52040  0.18683  0.62390  1.0000 -0.0987919253
C   C36       1.0  0.47960  0.68683  0.87610  1.0000 -0.0987919253
C   C37       1.0  0.57590  0.79218  0.40040  1.0000 -0.1118032803
C   C38       1.0  0.42410  0.29218  0.09960  1.0000 -0.1118032803
C   C39       1.0  0.42410  0.20782  0.59960  1.0000 -0.1118032803
C   C40       1.0  0.57590  0.70782  0.90040  1.0000 -0.1118032803
C   C41       1.0  0.66390  0.81278  0.45370  1.0000 -0.1354152003
C   C42       1.0  0.33610  0.31278  0.04630  1.0000 -0.1354152003
C   C43       1.0  0.33610  0.18722  0.54630  1.0000 -0.1354152003
C   C44       1.0  0.66390  0.68722  0.95370  1.0000 -0.1354152003
C   C45       1.0  0.65980  0.85564  0.48480  1.0000 -0.0906589363
C   C46       1.0  0.34020  0.35564  0.01520  1.0000 -0.0906589363
C   C47       1.0  0.34020  0.14436  0.51520  1.0000 -0.0906589363
C   C48       1.0  0.65980  0.64436  0.98480  1.0000 -0.0906589363
C   C49       1.0  0.18160  0.93273  0.47900  1.0000 0.1011706316
C   C50       1.0  0.81840  0.43273  0.02100  1.0000 0.1011706316
C   C51       1.0  0.81840  0.06727  0.52100  1.0000 0.1011706316
C   C52       1.0  0.18160  0.56727  0.97900  1.0000 0.1011706316
C   C53       1.0  0.07510  0.92767  0.43010  1.0000 -0.1894376763
C   C54       1.0  0.92490  0.42767  0.06990  1.0000 -0.1894376763
C   C55       1.0  0.92490  0.07233  0.56990  1.0000 -0.1894376763
C   C56       1.0  0.07510  0.57233  0.93010  1.0000 -0.1894376763
C   C57       1.0  0.01420  0.96464  0.39640  1.0000 0.1011706316
C   C58       1.0  0.98580  0.46464  0.10360  1.0000 0.1011706316
C   C59       1.0  0.98580  0.03536  0.60360  1.0000 0.1011706316
C   C60       1.0  0.01420  0.53536  0.89640  1.0000 0.1011706316
C   C61       1.0  0.06290  0.00520  0.41580  1.0000 -0.2014624943
C   C62       1.0  0.93710  0.50520  0.08420  1.0000 -0.2014624943
C   C63       1.0  0.93710  0.99480  0.58420  1.0000 -0.2014624943
C   C64       1.0  0.06290  0.49480  0.91580  1.0000 -0.2014624943
C   C65       1.0  0.16940  0.00755  0.46540  1.0000 0.0879685952
C   C66       1.0  0.83060  0.50755  0.03460  1.0000 0.0879685952
C   C67       1.0  0.83060  0.99245  0.53460  1.0000 0.0879685952
C   C68       1.0  0.16940  0.49245  0.96540  1.0000 0.0879685952
C   C69       1.0  0.89940  0.96122  0.34270  1.0000 0.1079465217
C   C70       1.0  0.10060  0.46122  0.15730  1.0000 0.1079465217
C   C71       1.0  0.10060  0.03878  0.65730  1.0000 0.1079465217
C   C72       1.0  0.89940  0.53878  0.84270  1.0000 0.1079465217
C   C73       1.0  0.83690  0.92746  0.35730  1.0000 -0.2101805522
C   C74       1.0  0.16310  0.42746  0.14270  1.0000 -0.2101805522
C   C75       1.0  0.16310  0.07254  0.64270  1.0000 -0.2101805522
C   C76       1.0  0.83690  0.57254  0.85730  1.0000 -0.2101805522
C   C77       1.0  0.73090  0.92536  0.30300  1.0000 0.0879685952
C   C78       1.0  0.26910  0.42536  0.19700  1.0000 0.0879685952
C   C79       1.0  0.26910  0.07464  0.69700  1.0000 0.0879685952
C   C80       1.0  0.73090  0.57464  0.80300  1.0000 0.0879685952
C   C81       1.0  0.74500  0.98630  0.22260  1.0000 0.0879685952
C   C82       1.0  0.25500  0.48630  0.27740  1.0000 0.0879685952
C   C83       1.0  0.25500  0.01370  0.77740  1.0000 0.0879685952
C   C84       1.0  0.74500  0.51370  0.72260  1.0000 0.0879685952
C   C85       1.0  0.85110  0.99090  0.27400  1.0000 -0.2014624943
C   C86       1.0  0.14890  0.49090  0.22600  1.0000 -0.2014624943
C   C87       1.0  0.14890  0.00910  0.72600  1.0000 -0.2014624943
C   C88       1.0  0.85110  0.50910  0.77400  1.0000 -0.2014624943
C   C89       1.0  0.28950  0.96823  0.06070  1.0000 0.0879685952
C   C90       1.0  0.71050  0.46823  0.43930  1.0000 0.0879685952
C   C91       1.0  0.71050  0.03177  0.93930  1.0000 0.0879685952
C   C92       1.0  0.28950  0.53177  0.56070  1.0000 0.0879685952
C   C93       1.0  0.18370  0.96350  0.00950  1.0000 -0.2213500627
C   C94       1.0  0.81630  0.46350  0.49050  1.0000 -0.2213500627
C   C95       1.0  0.81630  0.03650  0.99050  1.0000 -0.2213500627
C   C96       1.0  0.18370  0.53650  0.50950  1.0000 -0.2213500627
C   C97       1.0  0.15170  0.93305  0.93950  1.0000 0.1079465217
C   C98       1.0  0.84830  0.43305  0.56050  1.0000 0.1079465217
C   C99       1.0  0.84830  0.06695  0.06050  1.0000 0.1079465217
C   C100      1.0  0.15170  0.56695  0.43950  1.0000 0.1079465217
C   C101      1.0  0.23050  0.90884  0.92240  1.0000 -0.1894376763
C   C102      1.0  0.76950  0.40884  0.57760  1.0000 -0.1894376763
C   C103      1.0  0.76950  0.09116  0.07760  1.0000 -0.1894376763
C   C104      1.0  0.23050  0.59116  0.42240  1.0000 -0.1894376763
C   C105      1.0  0.33460  0.91560  0.97690  1.0000 0.0779093192
C   C106      1.0  0.66540  0.41560  0.52310  1.0000 0.0779093192
C   C107      1.0  0.66540  0.08440  0.02310  1.0000 0.0779093192
C   C108      1.0  0.33460  0.58440  0.47690  1.0000 0.0779093192
C   C109      1.0  0.03790  0.92715  0.88440  1.0000 0.1079465217
C   C110      1.0  0.96210  0.42715  0.61560  1.0000 0.1079465217
C   C111      1.0  0.96210  0.07285  0.11560  1.0000 0.1079465217
C   C112      1.0  0.03790  0.57285  0.38440  1.0000 0.1079465217
C   C113      1.0  0.96050  0.93632  0.92140  1.0000 -0.2101805522
C   C114      1.0  0.03950  0.43632  0.57860  1.0000 -0.2101805522
C   C115      1.0  0.03950  0.06368  0.07860  1.0000 -0.2101805522
C   C116      1.0  0.96050  0.56368  0.42140  1.0000 -0.2101805522
C   C117      1.0  0.85550  0.93241  0.86770  1.0000 0.0599255747
C   C118      1.0  0.14450  0.43241  0.63230  1.0000 0.0599255747
C   C119      1.0  0.14450  0.06759  0.13230  1.0000 0.0599255747
C   C120      1.0  0.85550  0.56759  0.36770  1.0000 0.0599255747
C   C121      1.0  0.89790  0.90948  0.74570  1.0000 0.0779093192
C   C122      1.0  0.10210  0.40948  0.75430  1.0000 0.0779093192
C   C123      1.0  0.10210  0.09052  0.25430  1.0000 0.0779093192
C   C124      1.0  0.89790  0.59052  0.24570  1.0000 0.0779093192
C   C125      1.0  0.00500  0.91253  0.79530  1.0000 -0.1794314825
C   C126      1.0  0.99500  0.41253  0.70470  1.0000 -0.1794314825
C   C127      1.0  0.99500  0.08747  0.20470  1.0000 -0.1794314825
C   C128      1.0  0.00500  0.58747  0.29530  1.0000 -0.1794314825
C   C129      1.0  0.46410  0.85003  0.14650  1.0000 0.0779093192
C   C130      1.0  0.53590  0.35003  0.35350  1.0000 0.0779093192
C   C131      1.0  0.53590  0.14997  0.85350  1.0000 0.0779093192
C   C132      1.0  0.46410  0.64997  0.64650  1.0000 0.0779093192
C   C133      1.0  0.47410  0.80474  0.15380  1.0000 -0.1794314825
C   C134      1.0  0.52590  0.30474  0.34620  1.0000 -0.1794314825
C   C135      1.0  0.52590  0.19526  0.84620  1.0000 -0.1794314825
C   C136      1.0  0.47410  0.69526  0.65380  1.0000 -0.1794314825
C   C137      1.0  0.56840  0.78578  0.15620  1.0000 0.1199505686
C   C138      1.0  0.43160  0.28578  0.34380  1.0000 0.1199505686
C   C139      1.0  0.43160  0.21422  0.84380  1.0000 0.1199505686
C   C140      1.0  0.56840  0.71422  0.65620  1.0000 0.1199505686
C   C141      1.0  0.64690  0.81330  0.14790  1.0000 -0.1794314825
C   C142      1.0  0.35310  0.31330  0.35210  1.0000 -0.1794314825
C   C143      1.0  0.35310  0.18670  0.85210  1.0000 -0.1794314825
C   C144      1.0  0.64690  0.68670  0.64790  1.0000 -0.1794314825
C   C145      1.0  0.62840  0.85786  0.13850  1.0000 0.0689727998
C   C146      1.0  0.37160  0.35786  0.36150  1.0000 0.0689727998
C   C147      1.0  0.37160  0.14214  0.86150  1.0000 0.0689727998
C   C148      1.0  0.62840  0.64214  0.63850  1.0000 0.0689727998
C   C149      1.0  0.58760  0.73789  0.17070  1.0000 0.1079465217
C   C150      1.0  0.41240  0.23789  0.32930  1.0000 0.1079465217
C   C151      1.0  0.41240  0.26211  0.82930  1.0000 0.1079465217
C   C152      1.0  0.58760  0.76211  0.67070  1.0000 0.1079465217
C   C153      1.0  0.50870  0.70685  0.13280  1.0000 -0.1738990695
C   C154      1.0  0.49130  0.20685  0.36720  1.0000 -0.1738990695
C   C155      1.0  0.49130  0.29315  0.86720  1.0000 -0.1738990695
C   C156      1.0  0.50870  0.79315  0.63280  1.0000 -0.1738990695
C   C157      1.0  0.53220  0.66273  0.14770  1.0000 0.1079465217
C   C158      1.0  0.46780  0.16273  0.35230  1.0000 0.1079465217
C   C159      1.0  0.46780  0.33727  0.85230  1.0000 0.1079465217
C   C160      1.0  0.53220  0.83727  0.64770  1.0000 0.1079465217
C   C161      1.0  0.70340  0.67771  0.23420  1.0000 0.0689727998
C   C162      1.0  0.29660  0.17771  0.26580  1.0000 0.0689727998
C   C163      1.0  0.29660  0.32229  0.76580  1.0000 0.0689727998
C   C164      1.0  0.70340  0.82229  0.73420  1.0000 0.0689727998
C   C165      1.0  0.68720  0.72243  0.22330  1.0000 -0.1794314825
C   C166      1.0  0.31280  0.22243  0.27670  1.0000 -0.1794314825
C   C167      1.0  0.31280  0.27757  0.77670  1.0000 -0.1794314825
C   C168      1.0  0.68720  0.77757  0.72330  1.0000 -0.1794314825
S   S1        1.0  0.77319  0.19025  0.27424  1.0000 1.1542251444
S   S2        1.0  0.22681  0.69025  0.22576  1.0000 1.1542251444
S   S3        1.0  0.22681  0.80975  0.72576  1.0000 1.1542251444
S   S4        1.0  0.77319  0.30975  0.77424  1.0000 1.1542251444
S   S5        1.0  0.78571  0.78431  0.48879  1.0000 0.9167751855
S   S6        1.0  0.21429  0.28431  0.01121  1.0000 0.9167751855
S   S7        1.0  0.21429  0.21569  0.51121  1.0000 0.9167751855
S   S8        1.0  0.78571  0.71569  0.98879  1.0000 0.9167751855
N   N1        1.0  0.22900  0.97180  0.49730  1.0000 -0.2385615373
N   N2        1.0  0.77100  0.47180  0.00270  1.0000 -0.2385615373
N   N3        1.0  0.77100  0.02820  0.50270  1.0000 -0.2385615373
N   N4        1.0  0.22900  0.52820  0.99730  1.0000 -0.2385615373
N   N5        1.0  0.68500  0.95354  0.23540  1.0000 -0.2287393921
N   N6        1.0  0.31500  0.45354  0.26460  1.0000 -0.2287393921
N   N7        1.0  0.31500  0.04646  0.76460  1.0000 -0.2287393921
N   N8        1.0  0.68500  0.54646  0.73540  1.0000 -0.2287393921
N   N9        1.0  0.36500  0.94426  0.04610  1.0000 -0.2213500627
N   N10       1.0  0.63500  0.44426  0.45390  1.0000 -0.2213500627
N   N11       1.0  0.63500  0.05574  0.95390  1.0000 -0.2213500627
N   N12       1.0  0.36500  0.55574  0.54610  1.0000 -0.2213500627
N   N13       1.0  0.82380  0.91972  0.78050  1.0000 -0.2287393921
N   N14       1.0  0.17620  0.41972  0.71950  1.0000 -0.2287393921
N   N15       1.0  0.17620  0.08028  0.21950  1.0000 -0.2287393921
N   N16       1.0  0.82380  0.58028  0.28050  1.0000 -0.2287393921
N   N17       1.0  0.53970  0.87702  0.13980  1.0000 -0.2505287864
N   N18       1.0  0.46030  0.37702  0.36020  1.0000 -0.2505287864
N   N19       1.0  0.46030  0.12298  0.86020  1.0000 -0.2505287864
N   N20       1.0  0.53970  0.62298  0.63980  1.0000 -0.2505287864
N   N21       1.0  0.62790  0.64792  0.19710  1.0000 -0.2505287864
N   N22       1.0  0.37210  0.14792  0.30290  1.0000 -0.2505287864
N   N23       1.0  0.37210  0.35208  0.80290  1.0000 -0.2505287864
N   N24       1.0  0.62790  0.85208  0.69710  1.0000 -0.2505287864
O   O1        1.0  0.59240  0.03838  0.30760  1.0000 -0.7794510388
O   O2        1.0  0.40760  0.53838  0.19240  1.0000 -0.7794510388
O   O3        1.0  0.40760  0.96162  0.69240  1.0000 -0.7794510388
O   O4        1.0  0.59240  0.46162  0.80760  1.0000 -0.7794510388
O   O5        1.0  0.39524  0.04885  0.22256  1.0000 -0.7794510388
O   O6        1.0  0.60476  0.54885  0.27744  1.0000 -0.7794510388
O   O7        1.0  0.60476  0.95115  0.77744  1.0000 -0.7794510388
O   O8        1.0  0.39524  0.45115  0.72256  1.0000 -0.7794510388
O   O9        1.0  0.50987  0.01759  0.14173  1.0000 -0.7397089117
O   O10       1.0  0.49013  0.51759  0.35827  1.0000 -0.7397089117
O   O11       1.0  0.49013  0.98241  0.85827  1.0000 -0.7397089117
O   O12       1.0  0.50987  0.48241  0.64173  1.0000 -0.7397089117
O   O13       1.0  0.83510  0.18560  0.21980  1.0000 -0.5890086356
O   O14       1.0  0.16490  0.68560  0.28020  1.0000 -0.5890086356
O   O15       1.0  0.16490  0.81440  0.78020  1.0000 -0.5890086356
O   O16       1.0  0.83510  0.31440  0.71980  1.0000 -0.5890086356
O   O17       1.0  0.81380  0.16860  0.35790  1.0000 -0.5890086356
O   O18       1.0  0.18620  0.66860  0.14210  1.0000 -0.5890086356
O   O19       1.0  0.18620  0.83140  0.64210  1.0000 -0.5890086356
O   O20       1.0  0.81380  0.33140  0.85790  1.0000 -0.5890086356
O   O21       1.0  0.75020  0.23470  0.28700  1.0000 -0.5890086356
O   O22       1.0  0.24980  0.73470  0.21300  1.0000 -0.5890086356
O   O23       1.0  0.24980  0.76530  0.71300  1.0000 -0.5890086356
O   O24       1.0  0.75020  0.26530  0.78700  1.0000 -0.5890086356
O   O25       1.0  0.45020  0.93582  0.51080  1.0000 -0.773841601
O   O26       1.0  0.54980  0.43582  0.98920  1.0000 -0.773841601
O   O27       1.0  0.54980  0.06418  0.48920  1.0000 -0.773841601
O   O28       1.0  0.45020  0.56418  0.01080  1.0000 -0.773841601
O   O29       1.0  0.64880  0.93978  0.58918  1.0000 -0.773841601
O   O30       1.0  0.35120  0.43978  0.91082  1.0000 -0.773841601
O   O31       1.0  0.35120  0.06022  0.41082  1.0000 -0.773841601
O   O32       1.0  0.64880  0.56022  0.08918  1.0000 -0.773841601
O   O33       1.0  0.56890  0.96269  0.42747  1.0000 -0.7549224758
O   O34       1.0  0.43110  0.46269  0.07253  1.0000 -0.7564091149
O   O35       1.0  0.43110  0.03731  0.57253  1.0000 -0.7564091149
O   O36       1.0  0.56890  0.53731  0.92747  1.0000 -0.7564091149
O   O37       1.0  0.82840  0.79460  0.42620  1.0000 -0.3925991916
O   O38       1.0  0.17160  0.29460  0.07380  1.0000 -0.3925991916
O   O39       1.0  0.17160  0.20540  0.57380  1.0000 -0.3925991916
O   O40       1.0  0.82840  0.70540  0.92620  1.0000 -0.3925991916
O   O41       1.0  0.84850  0.80180  0.57050  1.0000 -0.4931250327
O   O42       1.0  0.15150  0.30180  0.92950  1.0000 -0.4931250327
O   O43       1.0  0.15150  0.19820  0.42950  1.0000 -0.4931250327
O   O44       1.0  0.84850  0.69820  0.07050  1.0000 -0.4931250327
O   O45       1.0  0.77100  0.74390  0.44900  1.0000 0.0181843898
O   O46       1.0  0.22900  0.24390  0.05100  1.0000 0.0084507585
O   O47       1.0  0.22900  0.25610  0.55100  1.0000 0.0084507585
O   O48       1.0  0.77100  0.75610  0.94900  1.0000 0.0181843898
O   O49       1.0  0.75980  0.74020  0.52120  1.0000 -0.2101805522
O   O50       1.0  0.24020  0.24020  0.97880  1.0000 -0.2101805522
O   O51       1.0  0.24020  0.25980  0.47880  1.0000 -0.2101805522
O   O52       1.0  0.75980  0.75980  0.02120  1.0000 -0.2101805522
