# DDEC6 charges by PACMAN v1.1 (https://github.com/mtap-research/PACMAN-charge/)
data_2006[Y][dia]3[ASR]1
_chemical_formula_sum              "Y4 P4 H28 C20 N4 O28"
_cell_length_a       8.9108
_cell_length_b       9.0223
_cell_length_c       15.6837
_cell_angle_alpha    90
_cell_angle_beta     90
_cell_angle_gamma    90

_symmetry_space_group_name_H-M    "P 1"
_symmetry_Int_Tables_number       1

loop_
  _symmetry_equiv_pos_as_xyz
  'x, y, z'

loop_
  _atom_site_type_symbol
  _atom_site_label
  _atom_site_symmetry_multiplicity
  _atom_site_fract_x
  _atom_site_fract_y
  _atom_site_fract_z
  _atom_site_occupancy
  _atom_site_charge
Y   Y1        1.0  0.64073  0.71867  0.85391  1.0000 1.7584844258
Y   Y2        1.0  0.85927  0.28133  0.35391  1.0000 1.7584844258
Y   Y3        1.0  0.14073  0.78133  0.14609  1.0000 1.7584844258
Y   Y4        1.0  0.35927  0.21867  0.64609  1.0000 1.7584844258
P   P1        1.0  0.31799  0.62249  0.95601  1.0000 1.3102666464
P   P2        1.0  0.18201  0.37751  0.45601  1.0000 1.3102666464
P   P3        1.0  0.81799  0.87751  0.04399  1.0000 1.3102666464
P   P4        1.0  0.68201  0.12249  0.54399  1.0000 1.3102666464
H   H1        1.0  0.50240  0.60590  0.06040  1.0000 0.161172538
H   H2        1.0  0.99760  0.39410  0.56040  1.0000 0.161172538
H   H3        1.0  0.00240  0.89410  0.93960  1.0000 0.161172538
H   H4        1.0  0.49760  0.10590  0.43960  1.0000 0.161172538
H   H5        1.0  0.42750  0.45000  0.04680  1.0000 0.1483898587
H   H6        1.0  0.07250  0.55000  0.54680  1.0000 0.1483898587
H   H7        1.0  0.92750  0.05000  0.95320  1.0000 0.1483898587
H   H8        1.0  0.57250  0.95000  0.45320  1.0000 0.1483898587
H   H9        1.0  0.47120  0.30930  0.93720  1.0000 0.1483898587
H   H10       1.0  0.02880  0.69070  0.43720  1.0000 0.1483898587
H   H11       1.0  0.97120  0.19070  0.06280  1.0000 0.1483898587
H   H12       1.0  0.52880  0.80930  0.56280  1.0000 0.1483898587
H   H13       1.0  0.64140  0.29010  0.91540  1.0000 0.1483898587
H   H14       1.0  0.85860  0.70990  0.41540  1.0000 0.1483898587
H   H15       1.0  0.14140  0.20990  0.08460  1.0000 0.1483898587
H   H16       1.0  0.35860  0.79010  0.58460  1.0000 0.1483898587
H   H17       1.0  0.73070  0.37350  0.03370  1.0000 0.1428127316
H   H18       1.0  0.76930  0.62650  0.53370  1.0000 0.1428127316
H   H19       1.0  0.23070  0.12650  0.96630  1.0000 0.1428127316
H   H20       1.0  0.26930  0.87350  0.46630  1.0000 0.1428127316
H   H21       1.0  0.73810  0.54430  0.05280  1.0000 0.161172538
H   H22       1.0  0.76190  0.45570  0.55280  1.0000 0.161172538
H   H23       1.0  0.23810  0.95570  0.94720  1.0000 0.161172538
H   H24       1.0  0.26190  0.04430  0.44720  1.0000 0.161172538
H   H25       1.0  0.15390  0.48080  0.92760  1.0000 0.3814998594
H   H26       1.0  0.34610  0.51920  0.42760  1.0000 0.3814998594
H   H27       1.0  0.65390  0.01920  0.07240  1.0000 0.3814998594
H   H28       1.0  0.84610  0.98080  0.57240  1.0000 0.3814998594
C   C1        1.0  0.46620  0.53680  0.01770  1.0000 -0.4526077184
C   C2        1.0  0.03380  0.46320  0.51770  1.0000 -0.4526077184
C   C3        1.0  0.96620  0.96320  0.98230  1.0000 -0.4526077184
C   C4        1.0  0.53380  0.03680  0.48230  1.0000 -0.4526077184
C   C5        1.0  0.55690  0.35750  0.91100  1.0000 -0.3067954156
C   C6        1.0  0.94310  0.64250  0.41100  1.0000 -0.3067954156
C   C7        1.0  0.05690  0.14250  0.08900  1.0000 -0.3067954156
C   C8        1.0  0.44310  0.85750  0.58900  1.0000 -0.3067954156
C   C9        1.0  0.52330  0.38130  0.81950  1.0000 0.6646985439
C   C10       1.0  0.97670  0.61870  0.31950  1.0000 0.6646985439
C   C11       1.0  0.02330  0.11870  0.18050  1.0000 0.6646985439
C   C12       1.0  0.47670  0.88130  0.68050  1.0000 0.6646985439
C   C13       1.0  0.73080  0.47110  0.00770  1.0000 -0.2728466365
C   C14       1.0  0.76920  0.52890  0.50770  1.0000 -0.2728466365
C   C15       1.0  0.23080  0.02890  0.99230  1.0000 -0.2728466365
C   C16       1.0  0.26920  0.97110  0.49230  1.0000 -0.2728466365
C   C17       1.0  0.86500  0.48560  0.94780  1.0000 0.6440976289
C   C18       1.0  0.63500  0.51440  0.44780  1.0000 0.6440976289
C   C19       1.0  0.36500  0.01440  0.05220  1.0000 0.6440976289
C   C20       1.0  0.13500  0.98560  0.55220  1.0000 0.6440976289
N   N1        1.0  0.59210  0.49300  0.96020  1.0000 -0.0432634848
N   N2        1.0  0.90790  0.50700  0.46020  1.0000 -0.0432634848
N   N3        1.0  0.09210  0.00700  0.03980  1.0000 -0.0432634848
N   N4        1.0  0.40790  0.99300  0.53980  1.0000 -0.0432634848
O   O1        1.0  0.56370  0.50510  0.78479  1.0000 -0.620541853
O   O2        1.0  0.93630  0.49490  0.28479  1.0000 -0.620541853
O   O3        1.0  0.06370  0.99490  0.21521  1.0000 -0.620541853
O   O4        1.0  0.43630  0.00510  0.71521  1.0000 -0.620541853
O   O5        1.0  0.45800  0.28160  0.77929  1.0000 -0.5697943541
O   O6        1.0  0.04200  0.71840  0.27929  1.0000 -0.5697943541
O   O7        1.0  0.95800  0.21840  0.22071  1.0000 -0.5697943541
O   O8        1.0  0.54200  0.78160  0.72071  1.0000 -0.5697943541
O   O9        1.0  0.98940  0.43350  0.97360  1.0000 -0.5697943541
O   O10       1.0  0.51060  0.56650  0.47360  1.0000 -0.5697943541
O   O11       1.0  0.48940  0.06650  0.02640  1.0000 -0.5697943541
O   O12       1.0  0.01060  0.93350  0.52640  1.0000 -0.5697943541
O   O13       1.0  0.84920  0.56210  0.87982  1.0000 -0.620541853
O   O14       1.0  0.65080  0.43790  0.37982  1.0000 -0.620541853
O   O15       1.0  0.34920  0.93790  0.12018  1.0000 -0.620541853
O   O16       1.0  0.15080  0.06210  0.62018  1.0000 -0.620541853
O   O17       1.0  0.23320  0.50100  0.90370  1.0000 -0.58866891
O   O18       1.0  0.26680  0.49900  0.40370  1.0000 -0.58866891
O   O19       1.0  0.73320  0.99900  0.09630  1.0000 -0.58866891
O   O20       1.0  0.76680  0.00100  0.59630  1.0000 -0.58866891
O   O21       1.0  0.21490  0.69900  0.01735  1.0000 -0.8413601193
O   O22       1.0  0.28510  0.30100  0.51735  1.0000 -0.8413601193
O   O23       1.0  0.71490  0.80100  0.98265  1.0000 -0.8413601193
O   O24       1.0  0.78510  0.19900  0.48265  1.0000 -0.8413601193
O   O25       1.0  0.39580  0.72430  0.89469  1.0000 -0.7831597897
O   O26       1.0  0.10420  0.27570  0.39469  1.0000 -0.7831597897
O   O27       1.0  0.89580  0.77570  0.10531  1.0000 -0.7831597897
O   O28       1.0  0.60420  0.22430  0.60531  1.0000 -0.7831597897
