# DDEC6 charges by PACMAN v1.1 (https://github.com/mtap-research/PACMAN-charge/)
data_2006[V][bpq]3[ASR]5
_chemical_formula_sum              "V4 H16 C32 O20"
_cell_length_a       6.796
_cell_length_b       10.214
_cell_length_c       18.41
_cell_angle_alpha    90
_cell_angle_beta     90
_cell_angle_gamma    90

_symmetry_space_group_name_H-M    "P 1"
_symmetry_Int_Tables_number       1

loop_
  _symmetry_equiv_pos_as_xyz
  'x, y, z'

loop_
  _atom_site_type_symbol
  _atom_site_label
  _atom_site_symmetry_multiplicity
  _atom_site_fract_x
  _atom_site_fract_y
  _atom_site_fract_z
  _atom_site_occupancy
  _atom_site_charge
V   V1        1.0  0.19930  0.73230  0.75000  1.0000 1.798933407
V   V2        1.0  0.30070  0.23230  0.25000  1.0000 1.798933407
V   V3        1.0  0.80070  0.26770  0.25000  1.0000 1.798933407
V   V4        1.0  0.69930  0.76770  0.75000  1.0000 1.798933407
H   H1        1.0  0.70260  0.97600  0.55790  1.0000 0.1288809755
H   H2        1.0  0.79740  0.47600  0.44210  1.0000 0.1288809755
H   H3        1.0  0.29740  0.02400  0.05790  1.0000 0.1288809755
H   H4        1.0  0.20260  0.52400  0.94210  1.0000 0.1288809755
H   H5        1.0  0.29740  0.02400  0.44210  1.0000 0.1288809755
H   H6        1.0  0.20260  0.52400  0.55790  1.0000 0.1288809755
H   H7        1.0  0.70260  0.97600  0.94210  1.0000 0.1288809755
H   H8        1.0  0.79740  0.47600  0.05790  1.0000 0.1288809755
H   H9        1.0  0.28590  0.94010  0.55840  1.0000 0.1288809755
H   H10       1.0  0.21410  0.44010  0.44160  1.0000 0.1288809755
H   H11       1.0  0.71410  0.05990  0.05840  1.0000 0.1288809755
H   H12       1.0  0.78590  0.55990  0.94160  1.0000 0.1288809755
H   H13       1.0  0.71410  0.05990  0.44160  1.0000 0.1288809755
H   H14       1.0  0.78590  0.55990  0.55840  1.0000 0.1288809755
H   H15       1.0  0.28590  0.94010  0.94160  1.0000 0.1288809755
H   H16       1.0  0.21410  0.44010  0.05840  1.0000 0.1288809755
C   C1        1.0  0.98620  0.89160  0.64370  1.0000 0.6224135661
C   C2        1.0  0.51380  0.39160  0.35630  1.0000 0.6224135661
C   C3        1.0  0.01380  0.10840  0.14370  1.0000 0.6224135661
C   C4        1.0  0.48620  0.60840  0.85630  1.0000 0.6224135661
C   C5        1.0  0.01380  0.10840  0.35630  1.0000 0.6224135661
C   C6        1.0  0.48620  0.60840  0.64370  1.0000 0.6224135661
C   C7        1.0  0.98620  0.89160  0.85630  1.0000 0.6224135661
C   C8        1.0  0.51380  0.39160  0.14370  1.0000 0.6224135661
C   C9        1.0  0.99280  0.95230  0.56970  1.0000 -0.0175072268
C   C10       1.0  0.50720  0.45230  0.43030  1.0000 -0.0175072268
C   C11       1.0  0.00720  0.04770  0.06970  1.0000 -0.0175072268
C   C12       1.0  0.49280  0.54770  0.93030  1.0000 -0.0175072268
C   C13       1.0  0.00720  0.04770  0.43030  1.0000 -0.0175072268
C   C14       1.0  0.49280  0.54770  0.56970  1.0000 -0.0175072268
C   C15       1.0  0.99280  0.95230  0.93030  1.0000 -0.0175072268
C   C16       1.0  0.50720  0.45230  0.06970  1.0000 -0.0175072268
C   C17       1.0  0.82300  0.98610  0.53460  1.0000 -0.1063781149
C   C18       1.0  0.67700  0.48610  0.46540  1.0000 -0.1048854387
C   C19       1.0  0.17700  0.01390  0.03460  1.0000 -0.1063781149
C   C20       1.0  0.32300  0.51390  0.96540  1.0000 -0.1048854387
C   C21       1.0  0.17700  0.01390  0.46540  1.0000 -0.1048854387
C   C22       1.0  0.32300  0.51390  0.53460  1.0000 -0.1048854387
C   C23       1.0  0.82300  0.98610  0.96540  1.0000 -0.1048854387
C   C24       1.0  0.67700  0.48610  0.03460  1.0000 -0.1048854387
C   C25       1.0  0.17000  0.96480  0.53500  1.0000 -0.1063781149
C   C26       1.0  0.33000  0.46480  0.46500  1.0000 -0.1063781149
C   C27       1.0  0.83000  0.03520  0.03500  1.0000 -0.1063781149
C   C28       1.0  0.67000  0.53520  0.96500  1.0000 -0.1063781149
C   C29       1.0  0.83000  0.03520  0.46500  1.0000 -0.1063781149
C   C30       1.0  0.67000  0.53520  0.53500  1.0000 -0.1063781149
C   C31       1.0  0.17000  0.96480  0.96500  1.0000 -0.1063781149
C   C32       1.0  0.33000  0.46480  0.03500  1.0000 -0.1063781149
O   O1        1.0  0.14830  0.86030  0.67250  1.0000 -0.5808832742
O   O2        1.0  0.35170  0.36030  0.32750  1.0000 -0.5808832742
O   O3        1.0  0.85170  0.13970  0.17250  1.0000 -0.5808832742
O   O4        1.0  0.64830  0.63970  0.82750  1.0000 -0.5808832742
O   O5        1.0  0.85170  0.13970  0.32750  1.0000 -0.5808832742
O   O6        1.0  0.64830  0.63970  0.67250  1.0000 -0.5808832742
O   O7        1.0  0.14830  0.86030  0.82750  1.0000 -0.5808832742
O   O8        1.0  0.35170  0.36030  0.17250  1.0000 -0.5808832742
O   O9        1.0  0.98400  0.67160  0.75000  1.0000 -0.7469613648
O   O10       1.0  0.51600  0.17160  0.25000  1.0000 -0.7469613648
O   O11       1.0  0.01600  0.32840  0.25000  1.0000 -0.7469613648
O   O12       1.0  0.48400  0.82840  0.75000  1.0000 -0.7469613648
O   O13       1.0  0.81930  0.87580  0.67170  1.0000 -0.5961343146
O   O14       1.0  0.68070  0.37580  0.32830  1.0000 -0.5961343146
O   O15       1.0  0.18070  0.12420  0.17170  1.0000 -0.5961343146
O   O16       1.0  0.31930  0.62420  0.82830  1.0000 -0.5961343146
O   O17       1.0  0.18070  0.12420  0.32830  1.0000 -0.5961343146
O   O18       1.0  0.31930  0.62420  0.67170  1.0000 -0.5961343146
O   O19       1.0  0.81930  0.87580  0.82830  1.0000 -0.5961343146
O   O20       1.0  0.68070  0.37580  0.17170  1.0000 -0.5961343146
