# DDEC6 charges by PACMAN v1.1 (https://github.com/mtap-research/PACMAN-charge/)
data_2006[Er][nan]3[ASR]2
_chemical_formula_sum              "Er8 H36 C84 N12 O48"
_cell_length_a       8.438
_cell_length_b       15.934
_cell_length_c       27.795
_cell_angle_alpha    90
_cell_angle_beta     90
_cell_angle_gamma    90

_symmetry_space_group_name_H-M    "P 1"
_symmetry_Int_Tables_number       1

loop_
  _symmetry_equiv_pos_as_xyz
  'x, y, z'

loop_
  _atom_site_type_symbol
  _atom_site_label
  _atom_site_symmetry_multiplicity
  _atom_site_fract_x
  _atom_site_fract_y
  _atom_site_fract_z
  _atom_site_occupancy
  _atom_site_charge
Er  Er1       1.0  0.47688  0.30111  0.08132  1.0000 2.0922612439
Er  Er2       1.0  0.02312  0.80111  0.91868  1.0000 2.0922612439
Er  Er3       1.0  0.97688  0.19889  0.41868  1.0000 2.0922612439
Er  Er4       1.0  0.52312  0.69889  0.58132  1.0000 2.0922612439
Er  Er5       1.0  0.52312  0.69889  0.91868  1.0000 2.0922612439
Er  Er6       1.0  0.97688  0.19889  0.08132  1.0000 2.0922612439
Er  Er7       1.0  0.02312  0.80111  0.58132  1.0000 2.0922612439
Er  Er8       1.0  0.47688  0.30111  0.41868  1.0000 2.0922612439
H   H1        1.0  0.40480  0.18300  0.95600  1.0000 0.117464939
H   H2        1.0  0.09520  0.68300  0.04400  1.0000 0.117464939
H   H3        1.0  0.90480  0.31700  0.54400  1.0000 0.117464939
H   H4        1.0  0.59520  0.81700  0.45600  1.0000 0.117464939
H   H5        1.0  0.59520  0.81700  0.04400  1.0000 0.117464939
H   H6        1.0  0.90480  0.31700  0.95600  1.0000 0.117464939
H   H7        1.0  0.09520  0.68300  0.45600  1.0000 0.117464939
H   H8        1.0  0.40480  0.18300  0.54400  1.0000 0.117464939
H   H9        1.0  0.77330  0.02520  0.97700  1.0000 0.1330269876
H   H10       1.0  0.72670  0.52520  0.02300  1.0000 0.1330269876
H   H11       1.0  0.27330  0.47480  0.52300  1.0000 0.1330269876
H   H12       1.0  0.22670  0.97480  0.47700  1.0000 0.1330269876
H   H13       1.0  0.22670  0.97480  0.02300  1.0000 0.1330269876
H   H14       1.0  0.27330  0.47480  0.97700  1.0000 0.1330269876
H   H15       1.0  0.72670  0.52520  0.47700  1.0000 0.1330269876
H   H16       1.0  0.77330  0.02520  0.52300  1.0000 0.1330269876
H   H17       1.0  0.39970  0.96170  0.89420  1.0000 0.1085190143
H   H18       1.0  0.10030  0.46170  0.10580  1.0000 0.1085190143
H   H19       1.0  0.89970  0.53830  0.60580  1.0000 0.1085190143
H   H20       1.0  0.60030  0.03830  0.39420  1.0000 0.1085190143
H   H21       1.0  0.60030  0.03830  0.10580  1.0000 0.1085190143
H   H22       1.0  0.89970  0.53830  0.89420  1.0000 0.1085190143
H   H23       1.0  0.10030  0.46170  0.39420  1.0000 0.1085190143
H   H24       1.0  0.39970  0.96170  0.60580  1.0000 0.1085190143
H   H25       1.0  0.81600  0.09370  0.17920  1.0000 0.117464939
H   H26       1.0  0.68400  0.59370  0.82080  1.0000 0.117464939
H   H27       1.0  0.31600  0.40630  0.32080  1.0000 0.117464939
H   H28       1.0  0.18400  0.90630  0.67920  1.0000 0.117464939
H   H29       1.0  0.18400  0.90630  0.82080  1.0000 0.117464939
H   H30       1.0  0.31600  0.40630  0.17920  1.0000 0.117464939
H   H31       1.0  0.68400  0.59370  0.67920  1.0000 0.117464939
H   H32       1.0  0.81600  0.09370  0.32080  1.0000 0.117464939
H   H33       1.0  0.61080  0.28430  0.25000  1.0000 0.1330269876
H   H34       1.0  0.88920  0.78430  0.75000  1.0000 0.1330269876
H   H35       1.0  0.11080  0.21570  0.25000  1.0000 0.1330269876
H   H36       1.0  0.38920  0.71570  0.75000  1.0000 0.1330269876
C   C1        1.0  0.45430  0.13040  0.95030  1.0000 0.0794307922
C   C2        1.0  0.04570  0.63040  0.04970  1.0000 0.0794307922
C   C3        1.0  0.95430  0.36960  0.54970  1.0000 0.0794307922
C   C4        1.0  0.54570  0.86960  0.45030  1.0000 0.0794307922
C   C5        1.0  0.54570  0.86960  0.04970  1.0000 0.0794307922
C   C6        1.0  0.95430  0.36960  0.95030  1.0000 0.0794307922
C   C7        1.0  0.04570  0.63040  0.45030  1.0000 0.0794307922
C   C8        1.0  0.45430  0.13040  0.54970  1.0000 0.0794307922
C   C9        1.0  0.60000  0.11380  0.97240  1.0000 -0.1094377308
C   C10       1.0  0.90000  0.61380  0.02760  1.0000 -0.1094377308
C   C11       1.0  0.10000  0.38620  0.52760  1.0000 -0.1094377308
C   C12       1.0  0.40000  0.88620  0.47240  1.0000 -0.1094377308
C   C13       1.0  0.40000  0.88620  0.02760  1.0000 -0.1094377308
C   C14       1.0  0.10000  0.38620  0.97240  1.0000 -0.1094377308
C   C15       1.0  0.90000  0.61380  0.47240  1.0000 -0.1094377308
C   C16       1.0  0.60000  0.11380  0.52760  1.0000 -0.1094377308
C   C17       1.0  0.67280  0.03760  0.96340  1.0000 -0.0574695375
C   C18       1.0  0.82720  0.53760  0.03660  1.0000 -0.0574695375
C   C19       1.0  0.17280  0.46240  0.53660  1.0000 -0.0574695375
C   C20       1.0  0.32720  0.96240  0.46340  1.0000 -0.0574695375
C   C21       1.0  0.32720  0.96240  0.03660  1.0000 -0.0574695375
C   C22       1.0  0.17280  0.46240  0.96340  1.0000 -0.0574695375
C   C23       1.0  0.82720  0.53760  0.46340  1.0000 -0.0574695375
C   C24       1.0  0.67280  0.03760  0.53660  1.0000 -0.0574695375
C   C25       1.0  0.59700  0.97940  0.93400  1.0000 -0.093899287
C   C26       1.0  0.90300  0.47940  0.06600  1.0000 -0.093899287
C   C27       1.0  0.09700  0.52060  0.56600  1.0000 -0.093899287
C   C28       1.0  0.40300  0.02060  0.43400  1.0000 -0.093899287
C   C29       1.0  0.40300  0.02060  0.06600  1.0000 -0.093899287
C   C30       1.0  0.09700  0.52060  0.93400  1.0000 -0.093899287
C   C31       1.0  0.90300  0.47940  0.43400  1.0000 -0.093899287
C   C32       1.0  0.59700  0.97940  0.56600  1.0000 -0.093899287
C   C33       1.0  0.45200  0.00150  0.91410  1.0000 0.0794307922
C   C34       1.0  0.04800  0.50150  0.08590  1.0000 0.0794307922
C   C35       1.0  0.95200  0.49850  0.58590  1.0000 0.0794307922
C   C36       1.0  0.54800  0.99850  0.41410  1.0000 0.0794307922
C   C37       1.0  0.54800  0.99850  0.08590  1.0000 0.0794307922
C   C38       1.0  0.95200  0.49850  0.91410  1.0000 0.0794307922
C   C39       1.0  0.04800  0.50150  0.41410  1.0000 0.0794307922
C   C40       1.0  0.45200  0.00150  0.58590  1.0000 0.0794307922
C   C41       1.0  0.67210  0.17580  0.00520  1.0000 0.6531495939
C   C42       1.0  0.82790  0.67580  0.99480  1.0000 0.6531495939
C   C43       1.0  0.17210  0.32420  0.49480  1.0000 0.6531495939
C   C44       1.0  0.32790  0.82420  0.50520  1.0000 0.6531495939
C   C45       1.0  0.32790  0.82420  0.99480  1.0000 0.6531495939
C   C46       1.0  0.17210  0.32420  0.00520  1.0000 0.6531495939
C   C47       1.0  0.82790  0.67580  0.50520  1.0000 0.6531495939
C   C48       1.0  0.67210  0.17580  0.49480  1.0000 0.6531495939
C   C49       1.0  0.66690  0.89410  0.92590  1.0000 0.6531495939
C   C50       1.0  0.83310  0.39410  0.07410  1.0000 0.6531495939
C   C51       1.0  0.16690  0.60590  0.57410  1.0000 0.6531495939
C   C52       1.0  0.33310  0.10590  0.42590  1.0000 0.6531495939
C   C53       1.0  0.33310  0.10590  0.07410  1.0000 0.6531495939
C   C54       1.0  0.16690  0.60590  0.92590  1.0000 0.6531495939
C   C55       1.0  0.83310  0.39410  0.42590  1.0000 0.6531495939
C   C56       1.0  0.66690  0.89410  0.57410  1.0000 0.6531495939
C   C57       1.0  0.78840  0.11980  0.20880  1.0000 0.0794307922
C   C58       1.0  0.71160  0.61980  0.79120  1.0000 0.0794307922
C   C59       1.0  0.28840  0.38020  0.29120  1.0000 0.0794307922
C   C60       1.0  0.21160  0.88020  0.70880  1.0000 0.0794307922
C   C61       1.0  0.21160  0.88020  0.79120  1.0000 0.0794307922
C   C62       1.0  0.28840  0.38020  0.20880  1.0000 0.0794307922
C   C63       1.0  0.71160  0.61980  0.70880  1.0000 0.0794307922
C   C64       1.0  0.78840  0.11980  0.29120  1.0000 0.0794307922
C   C65       1.0  0.71040  0.19680  0.20720  1.0000 -0.0817439106
C   C66       1.0  0.78960  0.69680  0.79280  1.0000 -0.0817439106
C   C67       1.0  0.21040  0.30320  0.29280  1.0000 -0.0817439106
C   C68       1.0  0.28960  0.80320  0.70720  1.0000 -0.0817439106
C   C69       1.0  0.28960  0.80320  0.79280  1.0000 -0.0817439106
C   C70       1.0  0.21040  0.30320  0.20720  1.0000 -0.0817439106
C   C71       1.0  0.78960  0.69680  0.70720  1.0000 -0.0817439106
C   C72       1.0  0.71040  0.19680  0.29280  1.0000 -0.0817439106
C   C73       1.0  0.66890  0.23320  0.25000  1.0000 -0.0574695375
C   C74       1.0  0.83110  0.73320  0.75000  1.0000 -0.0574695375
C   C75       1.0  0.16890  0.26680  0.25000  1.0000 -0.0574695375
C   C76       1.0  0.33110  0.76680  0.75000  1.0000 -0.0574695375
C   C77       1.0  0.66900  0.23420  0.16020  1.0000 0.6362194906
C   C78       1.0  0.83100  0.73420  0.83980  1.0000 0.6362194906
C   C79       1.0  0.16900  0.26580  0.33980  1.0000 0.6362194906
C   C80       1.0  0.33100  0.76580  0.66020  1.0000 0.6362194906
C   C81       1.0  0.33100  0.76580  0.83980  1.0000 0.6362194906
C   C82       1.0  0.16900  0.26580  0.16020  1.0000 0.6362194906
C   C83       1.0  0.83100  0.73420  0.66020  1.0000 0.6362194906
C   C84       1.0  0.66900  0.23420  0.33980  1.0000 0.6362194906
N   N1        1.0  0.38200  0.07530  0.92150  1.0000 -0.2655416836
N   N2        1.0  0.11800  0.57530  0.07850  1.0000 -0.2645505537
N   N3        1.0  0.88200  0.42470  0.57850  1.0000 -0.2645505537
N   N4        1.0  0.61800  0.92470  0.42150  1.0000 -0.2645505537
N   N5        1.0  0.61800  0.92470  0.07850  1.0000 -0.2645505537
N   N6        1.0  0.88200  0.42470  0.92150  1.0000 -0.2645505537
N   N7        1.0  0.11800  0.57530  0.42150  1.0000 -0.2655416836
N   N8        1.0  0.38200  0.07530  0.57850  1.0000 -0.2655416836
N   N9        1.0  0.82700  0.08020  0.25000  1.0000 -0.2268794884
N   N10       1.0  0.67300  0.58020  0.75000  1.0000 -0.2268794884
N   N11       1.0  0.32700  0.41980  0.25000  1.0000 -0.2268794884
N   N12       1.0  0.17300  0.91980  0.75000  1.0000 -0.2268794884
O   O1        1.0  0.59200  0.24040  0.01540  1.0000 -0.670093279
O   O2        1.0  0.90800  0.74040  0.98460  1.0000 -0.670093279
O   O3        1.0  0.09200  0.25960  0.48460  1.0000 -0.670093279
O   O4        1.0  0.40800  0.75960  0.51540  1.0000 -0.670093279
O   O5        1.0  0.40800  0.75960  0.98460  1.0000 -0.670093279
O   O6        1.0  0.09200  0.25960  0.01540  1.0000 -0.670093279
O   O7        1.0  0.90800  0.74040  0.51540  1.0000 -0.670093279
O   O8        1.0  0.59200  0.24040  0.48460  1.0000 -0.670093279
O   O9        1.0  0.80760  0.16120  0.02180  1.0000 -0.670093279
O   O10       1.0  0.69240  0.66120  0.97820  1.0000 -0.670093279
O   O11       1.0  0.30760  0.33880  0.47820  1.0000 -0.670093279
O   O12       1.0  0.19240  0.83880  0.52180  1.0000 -0.670093279
O   O13       1.0  0.19240  0.83880  0.97820  1.0000 -0.670093279
O   O14       1.0  0.30760  0.33880  0.02180  1.0000 -0.670093279
O   O15       1.0  0.69240  0.66120  0.52180  1.0000 -0.670093279
O   O16       1.0  0.80760  0.16120  0.47820  1.0000 -0.670093279
O   O17       1.0  0.57620  0.83800  0.91000  1.0000 -0.6626411546
O   O18       1.0  0.92380  0.33800  0.09000  1.0000 -0.6626411546
O   O19       1.0  0.07620  0.66200  0.59000  1.0000 -0.6626411546
O   O20       1.0  0.42380  0.16200  0.41000  1.0000 -0.6626411546
O   O21       1.0  0.42380  0.16200  0.09000  1.0000 -0.6626411546
O   O22       1.0  0.07620  0.66200  0.91000  1.0000 -0.6626411546
O   O23       1.0  0.92380  0.33800  0.41000  1.0000 -0.6626411546
O   O24       1.0  0.57620  0.83800  0.59000  1.0000 -0.6626411546
O   O25       1.0  0.81010  0.88470  0.93620  1.0000 -0.670093279
O   O26       1.0  0.68990  0.38470  0.06380  1.0000 -0.670093279
O   O27       1.0  0.31010  0.61530  0.56380  1.0000 -0.670093279
O   O28       1.0  0.18990  0.11530  0.43620  1.0000 -0.670093279
O   O29       1.0  0.18990  0.11530  0.06380  1.0000 -0.670093279
O   O30       1.0  0.31010  0.61530  0.93620  1.0000 -0.670093279
O   O31       1.0  0.68990  0.38470  0.43620  1.0000 -0.670093279
O   O32       1.0  0.81010  0.88470  0.56380  1.0000 -0.670093279
O   O33       1.0  0.56490  0.29150  0.15910  1.0000 -0.6626411546
O   O34       1.0  0.93510  0.79150  0.84090  1.0000 -0.6547793855
O   O35       1.0  0.06490  0.20850  0.34090  1.0000 -0.6547793855
O   O36       1.0  0.43510  0.70850  0.65910  1.0000 -0.6547793855
O   O37       1.0  0.43510  0.70850  0.84090  1.0000 -0.6547793855
O   O38       1.0  0.06490  0.20850  0.15910  1.0000 -0.6547793855
O   O39       1.0  0.93510  0.79150  0.65910  1.0000 -0.6547793855
O   O40       1.0  0.56490  0.29150  0.34090  1.0000 -0.6626411546
O   O41       1.0  0.73250  0.20790  0.12155  1.0000 -0.7367486466
O   O42       1.0  0.76750  0.70790  0.87845  1.0000 -0.7367486466
O   O43       1.0  0.23250  0.29210  0.37845  1.0000 -0.7367486466
O   O44       1.0  0.26750  0.79210  0.62155  1.0000 -0.7367486466
O   O45       1.0  0.26750  0.79210  0.87845  1.0000 -0.7367486466
O   O46       1.0  0.23250  0.29210  0.12155  1.0000 -0.7367486466
O   O47       1.0  0.76750  0.70790  0.62155  1.0000 -0.7367486466
O   O48       1.0  0.73250  0.20790  0.37845  1.0000 -0.7367486466
