# DDEC6 charges by PACMAN v1.1 (https://github.com/mtap-research/PACMAN-charge/)
data_2006[Co][acs]3[ASR]1
_chemical_formula_sum              "Co2 H6 C6 O12"
_cell_length_a       7.297
_cell_length_b       7.297
_cell_length_c       8.179
_cell_angle_alpha    90
_cell_angle_beta     90
_cell_angle_gamma    120

_symmetry_space_group_name_H-M    "P 1"
_symmetry_Int_Tables_number       1

loop_
  _symmetry_equiv_pos_as_xyz
  'x, y, z'

loop_
  _atom_site_type_symbol
  _atom_site_label
  _atom_site_symmetry_multiplicity
  _atom_site_fract_x
  _atom_site_fract_y
  _atom_site_fract_z
  _atom_site_occupancy
  _atom_site_charge
Co  Co1       1.0  0.66667  0.33333  0.75000  1.0000 1.028173955
Co  Co2       1.0  0.33333  0.66667  0.25000  1.0000 1.028173955
H   H1        1.0  0.00000  0.58700  0.00000  1.0000 0.071952382
H   H2        1.0  0.41300  0.41300  0.00000  1.0000 0.071952382
H   H3        1.0  0.58700  0.00000  0.00000  1.0000 0.071952382
H   H4        1.0  0.00000  0.41300  0.50000  1.0000 0.071952382
H   H5        1.0  0.58700  0.58700  0.50000  1.0000 0.071952382
H   H6        1.0  0.41300  0.00000  0.50000  1.0000 0.071952382
C   C1        1.0  0.00000  0.43930  0.00000  1.0000 0.5033833402
C   C2        1.0  0.56070  0.56070  0.00000  1.0000 0.5033833402
C   C3        1.0  0.43930  0.00000  0.00000  1.0000 0.5033833402
C   C4        1.0  0.00000  0.56070  0.50000  1.0000 0.5033833402
C   C5        1.0  0.43930  0.43930  0.50000  1.0000 0.5033833402
C   C6        1.0  0.56070  0.00000  0.50000  1.0000 0.5033833402
O   O1        1.0  0.89071  0.30745  0.89455  1.0000 -0.4590301869
O   O2        1.0  0.69255  0.58326  0.89455  1.0000 -0.4590301869
O   O3        1.0  0.41674  0.10929  0.89455  1.0000 -0.4590301869
O   O4        1.0  0.10929  0.69255  0.39455  1.0000 -0.4590301869
O   O5        1.0  0.30745  0.41674  0.39455  1.0000 -0.4590301869
O   O6        1.0  0.58326  0.89071  0.39455  1.0000 -0.4590301869
O   O7        1.0  0.30745  0.89071  0.10545  1.0000 -0.4590301869
O   O8        1.0  0.58326  0.69255  0.10545  1.0000 -0.4590301869
O   O9        1.0  0.10929  0.41674  0.10545  1.0000 -0.4590301869
O   O10       1.0  0.69255  0.10929  0.60545  1.0000 -0.4590301869
O   O11       1.0  0.41674  0.30745  0.60545  1.0000 -0.4590301869
O   O12       1.0  0.89071  0.58326  0.60545  1.0000 -0.4590301869
