# DDEC6 charges by PACMAN v1.1 (https://github.com/mtap-research/PACMAN-charge/)
data_2006[Cd][nan]3[ASR]6
_chemical_formula_sum              "Cd20 H16 C80 N32 O64"
_cell_length_a       14.268
_cell_length_b       15.721
_cell_length_c       16.017
_cell_angle_alpha    90
_cell_angle_beta     90
_cell_angle_gamma    90

_symmetry_space_group_name_H-M    "P 1"
_symmetry_Int_Tables_number       1

loop_
  _symmetry_equiv_pos_as_xyz
  'x, y, z'

loop_
  _atom_site_type_symbol
  _atom_site_label
  _atom_site_symmetry_multiplicity
  _atom_site_fract_x
  _atom_site_fract_y
  _atom_site_fract_z
  _atom_site_occupancy
  _atom_site_charge
Cd  Cd1       1.0  0.87482  0.98069  0.45636  1.0000 0.9376845065
Cd  Cd2       1.0  0.62518  0.48069  0.54364  1.0000 0.9376845065
Cd  Cd3       1.0  0.12518  0.01931  0.95636  1.0000 0.9376845065
Cd  Cd4       1.0  0.37482  0.51931  0.04364  1.0000 0.9376845065
Cd  Cd5       1.0  0.12518  0.01931  0.54364  1.0000 0.9376845065
Cd  Cd6       1.0  0.37482  0.51931  0.45636  1.0000 0.9376845065
Cd  Cd7       1.0  0.87482  0.98069  0.04364  1.0000 0.9376845065
Cd  Cd8       1.0  0.62518  0.48069  0.95636  1.0000 0.9376845065
Cd  Cd9       1.0  0.60584  0.06515  0.45913  1.0000 0.9620424065
Cd  Cd10      1.0  0.89416  0.56515  0.54087  1.0000 0.9620424065
Cd  Cd11      1.0  0.39416  0.93485  0.95913  1.0000 0.9620424065
Cd  Cd12      1.0  0.10584  0.43485  0.04087  1.0000 0.9620424065
Cd  Cd13      1.0  0.39416  0.93485  0.54087  1.0000 0.9620424065
Cd  Cd14      1.0  0.10584  0.43485  0.45913  1.0000 0.9620424065
Cd  Cd15      1.0  0.60584  0.06515  0.04087  1.0000 0.9620424065
Cd  Cd16      1.0  0.89416  0.56515  0.95913  1.0000 0.9620424065
Cd  Cd17      1.0  0.26358  0.96315  0.25000  1.0000 1.1182013232
Cd  Cd18      1.0  0.23642  0.46315  0.75000  1.0000 1.1182013232
Cd  Cd19      1.0  0.73642  0.03685  0.75000  1.0000 1.1182013232
Cd  Cd20      1.0  0.76358  0.53685  0.25000  1.0000 1.1182013232
H   H1        1.0  0.97310  0.77700  0.48370  1.0000 0.1187577375
H   H2        1.0  0.52690  0.27700  0.51630  1.0000 0.1187577375
H   H3        1.0  0.02690  0.22300  0.98370  1.0000 0.1187577375
H   H4        1.0  0.47310  0.72300  0.01630  1.0000 0.1187577375
H   H5        1.0  0.02690  0.22300  0.51630  1.0000 0.1187577375
H   H6        1.0  0.47310  0.72300  0.48370  1.0000 0.1187577375
H   H7        1.0  0.97310  0.77700  0.01630  1.0000 0.1187577375
H   H8        1.0  0.52690  0.27700  0.98370  1.0000 0.1187577375
H   H9        1.0  0.67560  0.11450  0.25000  1.0000 0.1187577375
H   H10       1.0  0.82440  0.61450  0.75000  1.0000 0.1187577375
H   H11       1.0  0.32440  0.88550  0.75000  1.0000 0.1187577375
H   H12       1.0  0.17560  0.38550  0.25000  1.0000 0.1187577375
H   H13       1.0  0.79480  0.98120  0.25000  1.0000 0.1130708385
H   H14       1.0  0.70520  0.48120  0.75000  1.0000 0.1130708385
H   H15       1.0  0.20520  0.01880  0.75000  1.0000 0.1130708385
H   H16       1.0  0.29480  0.51880  0.25000  1.0000 0.1130708385
C   C1        1.0  0.90950  0.77580  0.49610  1.0000 0.2109963077
C   C2        1.0  0.59050  0.27580  0.50390  1.0000 0.2109963077
C   C3        1.0  0.09050  0.22420  0.99610  1.0000 0.2109963077
C   C4        1.0  0.40950  0.72420  0.00390  1.0000 0.2109963077
C   C5        1.0  0.09050  0.22420  0.50390  1.0000 0.2109963077
C   C6        1.0  0.40950  0.72420  0.49610  1.0000 0.2109963077
C   C7        1.0  0.90950  0.77580  0.00390  1.0000 0.2109963077
C   C8        1.0  0.59050  0.27580  0.99610  1.0000 0.2109963077
C   C9        1.0  0.76750  0.81640  0.51480  1.0000 0.0066452113
C   C10       1.0  0.73250  0.31640  0.48520  1.0000 0.0066452113
C   C11       1.0  0.23250  0.18360  0.01480  1.0000 0.0066452113
C   C12       1.0  0.26750  0.68360  0.98520  1.0000 0.0066452113
C   C13       1.0  0.23250  0.18360  0.48520  1.0000 0.0066452113
C   C14       1.0  0.26750  0.68360  0.51480  1.0000 0.0066452113
C   C15       1.0  0.76750  0.81640  0.98520  1.0000 0.0066452113
C   C16       1.0  0.73250  0.31640  0.01480  1.0000 0.0066452113
C   C17       1.0  0.77360  0.73050  0.53380  1.0000 0.0173693629
C   C18       1.0  0.72640  0.23050  0.46620  1.0000 0.0173693629
C   C19       1.0  0.22640  0.26950  0.03380  1.0000 0.0173693629
C   C20       1.0  0.27360  0.76950  0.96620  1.0000 0.0173693629
C   C21       1.0  0.22640  0.26950  0.46620  1.0000 0.0173693629
C   C22       1.0  0.27360  0.76950  0.53380  1.0000 0.0173693629
C   C23       1.0  0.77360  0.73050  0.96620  1.0000 0.0173693629
C   C24       1.0  0.72640  0.23050  0.03380  1.0000 0.0173693629
C   C25       1.0  0.68780  0.87560  0.51550  1.0000 0.576549806
C   C26       1.0  0.81220  0.37560  0.48450  1.0000 0.576549806
C   C27       1.0  0.31220  0.12440  0.01550  1.0000 0.576549806
C   C28       1.0  0.18780  0.62440  0.98450  1.0000 0.576549806
C   C29       1.0  0.31220  0.12440  0.48450  1.0000 0.576549806
C   C30       1.0  0.18780  0.62440  0.51550  1.0000 0.576549806
C   C31       1.0  0.68780  0.87560  0.98450  1.0000 0.576549806
C   C32       1.0  0.81220  0.37560  0.01550  1.0000 0.576549806
C   C33       1.0  0.70130  0.66800  0.55750  1.0000 0.5601666945
C   C34       1.0  0.79870  0.16800  0.44250  1.0000 0.5601666945
C   C35       1.0  0.29870  0.33200  0.05750  1.0000 0.5601666945
C   C36       1.0  0.20130  0.83200  0.94250  1.0000 0.5601666945
C   C37       1.0  0.29870  0.33200  0.44250  1.0000 0.5601666945
C   C38       1.0  0.20130  0.83200  0.55750  1.0000 0.5601666945
C   C39       1.0  0.70130  0.66800  0.94250  1.0000 0.5601666945
C   C40       1.0  0.79870  0.16800  0.05750  1.0000 0.5601666945
C   C41       1.0  0.62310  0.07940  0.25000  1.0000 0.1837578047
C   C42       1.0  0.87690  0.57940  0.75000  1.0000 0.1837578047
C   C43       1.0  0.37690  0.92060  0.75000  1.0000 0.1837578047
C   C44       1.0  0.12310  0.42060  0.25000  1.0000 0.1837578047
C   C45       1.0  0.50830  0.00380  0.29350  1.0000 0.0016112798
C   C46       1.0  0.99170  0.50380  0.70650  1.0000 0.0016112798
C   C47       1.0  0.49170  0.99620  0.79350  1.0000 0.0016112798
C   C48       1.0  0.00830  0.49620  0.20650  1.0000 0.0016112798
C   C49       1.0  0.49170  0.99620  0.70650  1.0000 0.0016112798
C   C50       1.0  0.00830  0.49620  0.29350  1.0000 0.0016112798
C   C51       1.0  0.50830  0.00380  0.20650  1.0000 0.0016112798
C   C52       1.0  0.99170  0.50380  0.79350  1.0000 0.0016112798
C   C53       1.0  0.44860  0.96100  0.35750  1.0000 0.5906468559
C   C54       1.0  0.05140  0.46100  0.64250  1.0000 0.5906468559
C   C55       1.0  0.55140  0.03900  0.85750  1.0000 0.5906468559
C   C56       1.0  0.94860  0.53900  0.14250  1.0000 0.5906468559
C   C57       1.0  0.55140  0.03900  0.64250  1.0000 0.5906468559
C   C58       1.0  0.94860  0.53900  0.35750  1.0000 0.5906468559
C   C59       1.0  0.44860  0.96100  0.14250  1.0000 0.5906468559
C   C60       1.0  0.05140  0.46100  0.85750  1.0000 0.5906468559
C   C61       1.0  0.00060  0.97830  0.29370  1.0000 0.0066452113
C   C62       1.0  0.49940  0.47830  0.70630  1.0000 0.0066452113
C   C63       1.0  0.99940  0.02170  0.79370  1.0000 0.0066452113
C   C64       1.0  0.50060  0.52170  0.20630  1.0000 0.0066452113
C   C65       1.0  0.99940  0.02170  0.70630  1.0000 0.0066452113
C   C66       1.0  0.50060  0.52170  0.29370  1.0000 0.0066452113
C   C67       1.0  0.00060  0.97830  0.20630  1.0000 0.0066452113
C   C68       1.0  0.49940  0.47830  0.79370  1.0000 0.0066452113
C   C69       1.0  0.86000  0.97950  0.25000  1.0000 0.2027124468
C   C70       1.0  0.64000  0.47950  0.75000  1.0000 0.2027124468
C   C71       1.0  0.14000  0.02050  0.75000  1.0000 0.2027124468
C   C72       1.0  0.36000  0.52050  0.25000  1.0000 0.2027124468
C   C73       1.0  0.07470  0.97920  0.35930  1.0000 0.5906468559
C   C74       1.0  0.42530  0.47920  0.64070  1.0000 0.5906468559
C   C75       1.0  0.92530  0.02080  0.85930  1.0000 0.5906468559
C   C76       1.0  0.57470  0.52080  0.14070  1.0000 0.5906468559
C   C77       1.0  0.92530  0.02080  0.64070  1.0000 0.5906468559
C   C78       1.0  0.57470  0.52080  0.35930  1.0000 0.5906468559
C   C79       1.0  0.07470  0.97920  0.14070  1.0000 0.5906468559
C   C80       1.0  0.42530  0.47920  0.85930  1.0000 0.5906468559
N   N1        1.0  0.86390  0.70510  0.52070  1.0000 -0.3408466388
N   N2        1.0  0.63610  0.20510  0.47930  1.0000 -0.3408466388
N   N3        1.0  0.13610  0.29490  0.02070  1.0000 -0.3408466388
N   N4        1.0  0.36390  0.79490  0.97930  1.0000 -0.3408466388
N   N5        1.0  0.13610  0.29490  0.47930  1.0000 -0.3408466388
N   N6        1.0  0.36390  0.79490  0.52070  1.0000 -0.3408466388
N   N7        1.0  0.86390  0.70510  0.97930  1.0000 -0.3408466388
N   N8        1.0  0.63610  0.20510  0.02070  1.0000 -0.3408466388
N   N9        1.0  0.85430  0.84420  0.49150  1.0000 -0.3475130868
N   N10       1.0  0.64570  0.34420  0.50850  1.0000 -0.3475130868
N   N11       1.0  0.14570  0.15580  0.99150  1.0000 -0.3475130868
N   N12       1.0  0.35430  0.65580  0.00850  1.0000 -0.3475130868
N   N13       1.0  0.14570  0.15580  0.50850  1.0000 -0.3475130868
N   N14       1.0  0.35430  0.65580  0.49150  1.0000 -0.3475130868
N   N15       1.0  0.85430  0.84420  0.00850  1.0000 -0.3475130868
N   N16       1.0  0.64570  0.34420  0.99150  1.0000 -0.3475130868
N   N17       1.0  0.90960  0.97820  0.31960  1.0000 -0.3188169093
N   N18       1.0  0.59040  0.47820  0.68040  1.0000 -0.3188169093
N   N19       1.0  0.09040  0.02180  0.81960  1.0000 -0.3188169093
N   N20       1.0  0.40960  0.52180  0.18040  1.0000 -0.3188169093
N   N21       1.0  0.09040  0.02180  0.68040  1.0000 -0.3188169093
N   N22       1.0  0.40960  0.52180  0.31960  1.0000 -0.3188169093
N   N23       1.0  0.90960  0.97820  0.18040  1.0000 -0.3188169093
N   N24       1.0  0.59040  0.47820  0.81960  1.0000 -0.3188169093
N   N25       1.0  0.58240  0.05220  0.32020  1.0000 -0.3188169093
N   N26       1.0  0.91760  0.55220  0.67980  1.0000 -0.3188169093
N   N27       1.0  0.41760  0.94780  0.82020  1.0000 -0.3188169093
N   N28       1.0  0.08240  0.44780  0.17980  1.0000 -0.3188169093
N   N29       1.0  0.41760  0.94780  0.67980  1.0000 -0.3188169093
N   N30       1.0  0.08240  0.44780  0.32020  1.0000 -0.3188169093
N   N31       1.0  0.58240  0.05220  0.17980  1.0000 -0.3188169093
N   N32       1.0  0.91760  0.55220  0.82020  1.0000 -0.3188169093
O   O1        1.0  0.72550  0.59290  0.56320  1.0000 -0.545768283
O   O2        1.0  0.77450  0.09290  0.43680  1.0000 -0.5401025635
O   O3        1.0  0.27450  0.40710  0.06320  1.0000 -0.5401025635
O   O4        1.0  0.22550  0.90710  0.93680  1.0000 -0.5401025635
O   O5        1.0  0.27450  0.40710  0.43680  1.0000 -0.5401025635
O   O6        1.0  0.22550  0.90710  0.56320  1.0000 -0.5401025635
O   O7        1.0  0.72550  0.59290  0.93680  1.0000 -0.545768283
O   O8        1.0  0.77450  0.09290  0.06320  1.0000 -0.5401025635
O   O9        1.0  0.61840  0.69430  0.56910  1.0000 -0.4801111181
O   O10       1.0  0.88160  0.19430  0.43090  1.0000 -0.4801111181
O   O11       1.0  0.38160  0.30570  0.06910  1.0000 -0.4801111181
O   O12       1.0  0.11840  0.80570  0.93090  1.0000 -0.4801111181
O   O13       1.0  0.38160  0.30570  0.43090  1.0000 -0.4801111181
O   O14       1.0  0.11840  0.80570  0.56910  1.0000 -0.4801111181
O   O15       1.0  0.61840  0.69430  0.93090  1.0000 -0.4801111181
O   O16       1.0  0.88160  0.19430  0.06910  1.0000 -0.4801111181
O   O17       1.0  0.60790  0.84930  0.54360  1.0000 -0.5154834014
O   O18       1.0  0.89210  0.34930  0.45640  1.0000 -0.5107492046
O   O19       1.0  0.39210  0.15070  0.04360  1.0000 -0.5107492046
O   O20       1.0  0.10790  0.65070  0.95640  1.0000 -0.5107492046
O   O21       1.0  0.39210  0.15070  0.45640  1.0000 -0.5107492046
O   O22       1.0  0.10790  0.65070  0.54360  1.0000 -0.5107492046
O   O23       1.0  0.60790  0.84930  0.95640  1.0000 -0.5154834014
O   O24       1.0  0.89210  0.34930  0.04360  1.0000 -0.5107492046
O   O25       1.0  0.70130  0.94810  0.48870  1.0000 -0.5287465077
O   O26       1.0  0.79870  0.44810  0.51130  1.0000 -0.5287465077
O   O27       1.0  0.29870  0.05190  0.98870  1.0000 -0.5287465077
O   O28       1.0  0.20130  0.55190  0.01130  1.0000 -0.5287465077
O   O29       1.0  0.29870  0.05190  0.51130  1.0000 -0.5287465077
O   O30       1.0  0.20130  0.55190  0.48870  1.0000 -0.5287465077
O   O31       1.0  0.70130  0.94810  0.01130  1.0000 -0.5287465077
O   O32       1.0  0.79870  0.44810  0.98870  1.0000 -0.5287465077
O   O33       1.0  0.15800  0.99140  0.34440  1.0000 -0.5287465077
O   O34       1.0  0.34200  0.49140  0.65560  1.0000 -0.5287465077
O   O35       1.0  0.84200  0.00860  0.84440  1.0000 -0.5287465077
O   O36       1.0  0.65800  0.50860  0.15560  1.0000 -0.5287465077
O   O37       1.0  0.84200  0.00860  0.65560  1.0000 -0.5287465077
O   O38       1.0  0.65800  0.50860  0.34440  1.0000 -0.5287465077
O   O39       1.0  0.15800  0.99140  0.15560  1.0000 -0.5287465077
O   O40       1.0  0.34200  0.49140  0.84440  1.0000 -0.5287465077
O   O41       1.0  0.04470  0.97080  0.43290  1.0000 -0.5107492046
O   O42       1.0  0.45530  0.47080  0.56710  1.0000 -0.5107492046
O   O43       1.0  0.95530  0.02920  0.93290  1.0000 -0.5107492046
O   O44       1.0  0.54470  0.52920  0.06710  1.0000 -0.5107492046
O   O45       1.0  0.95530  0.02920  0.56710  1.0000 -0.5107492046
O   O46       1.0  0.54470  0.52920  0.43290  1.0000 -0.5107492046
O   O47       1.0  0.04470  0.97080  0.06710  1.0000 -0.5107492046
O   O48       1.0  0.45530  0.47080  0.93290  1.0000 -0.5107492046
O   O49       1.0  0.48440  0.96000  0.42910  1.0000 -0.4801111181
O   O50       1.0  0.01560  0.46000  0.57090  1.0000 -0.4801111181
O   O51       1.0  0.51560  0.04000  0.92910  1.0000 -0.4801111181
O   O52       1.0  0.98440  0.54000  0.07090  1.0000 -0.4801111181
O   O53       1.0  0.51560  0.04000  0.57090  1.0000 -0.4801111181
O   O54       1.0  0.98440  0.54000  0.42910  1.0000 -0.4801111181
O   O55       1.0  0.48440  0.96000  0.07090  1.0000 -0.4801111181
O   O56       1.0  0.01560  0.46000  0.92910  1.0000 -0.4801111181
O   O57       1.0  0.37130  0.93000  0.34270  1.0000 -0.5401025635
O   O58       1.0  0.12870  0.43000  0.65730  1.0000 -0.5401025635
O   O59       1.0  0.62870  0.07000  0.84270  1.0000 -0.5401025635
O   O60       1.0  0.87130  0.57000  0.15730  1.0000 -0.5401025635
O   O61       1.0  0.62870  0.07000  0.65730  1.0000 -0.5401025635
O   O62       1.0  0.87130  0.57000  0.34270  1.0000 -0.5401025635
O   O63       1.0  0.37130  0.93000  0.15730  1.0000 -0.5401025635
O   O64       1.0  0.12870  0.43000  0.84270  1.0000 -0.5401025635
