# DDEC6 charges by PACMAN v1.1 (https://github.com/mtap-research/PACMAN-charge/)
data_2006[Zn][pcu]3[ASR]9
_chemical_formula_sum              "Zn8 H12 C48 S12 O26"
_cell_length_a       20.6362
_cell_length_b       20.6362
_cell_length_c       20.6362
_cell_angle_alpha    120
_cell_angle_beta     120
_cell_angle_gamma    60

_symmetry_space_group_name_H-M    "P 1"
_symmetry_Int_Tables_number       1

loop_
  _symmetry_equiv_pos_as_xyz
  'x, y, z'

loop_
  _atom_site_type_symbol
  _atom_site_label
  _atom_site_symmetry_multiplicity
  _atom_site_fract_x
  _atom_site_fract_y
  _atom_site_fract_z
  _atom_site_occupancy
  _atom_site_charge
Zn  Zn1       1.0  0.21161  0.21160  0.78839  1.0000 0.9605316317
Zn  Zn2       1.0  0.21161  0.36517  0.78839  1.0000 0.9605316317
Zn  Zn3       1.0  0.21161  0.21160  0.63482  1.0000 0.9605316317
Zn  Zn4       1.0  0.36518  0.21160  0.78839  1.0000 0.9605316317
Zn  Zn5       1.0  0.78839  0.78840  0.21161  1.0000 0.9605316317
Zn  Zn6       1.0  0.78839  0.63483  0.21161  1.0000 0.9605316317
Zn  Zn7       1.0  0.78839  0.78840  0.36518  1.0000 0.9662751948
Zn  Zn8       1.0  0.63482  0.78840  0.21161  1.0000 0.9605316317
H   H1        1.0  0.53740  0.34860  0.94300  1.0000 0.1562610972
H   H2        1.0  0.05700  0.05700  0.65140  1.0000 0.1562610972
H   H3        1.0  0.34860  0.05700  0.46260  1.0000 0.1562610972
H   H4        1.0  0.05700  0.53740  0.94300  1.0000 0.1562610972
H   H5        1.0  0.53740  0.05700  0.94300  1.0000 0.1562610972
H   H6        1.0  0.05700  0.53740  0.65140  1.0000 0.1562610972
H   H7        1.0  0.46260  0.65140  0.05700  1.0000 0.1562610972
H   H8        1.0  0.94300  0.94300  0.34860  1.0000 0.1562610972
H   H9        1.0  0.65140  0.94300  0.53740  1.0000 0.1562610972
H   H10       1.0  0.94300  0.46260  0.05700  1.0000 0.1562610972
H   H11       1.0  0.46260  0.94300  0.05700  1.0000 0.1562610972
H   H12       1.0  0.94300  0.46260  0.34860  1.0000 0.1562610972
C   C1        1.0  0.50400  0.40120  0.95260  1.0000 -0.139416861
C   C2        1.0  0.04740  0.04740  0.59880  1.0000 -0.139416861
C   C3        1.0  0.40120  0.04740  0.49600  1.0000 -0.139416861
C   C4        1.0  0.04740  0.50400  0.95260  1.0000 -0.139416861
C   C5        1.0  0.50400  0.04740  0.95260  1.0000 -0.139416861
C   C6        1.0  0.04740  0.50400  0.59880  1.0000 -0.128998732
C   C7        1.0  0.12824  0.12824  0.62824  1.0000 0.6170082137
C   C8        1.0  0.07711  0.07711  0.57711  1.0000 -0.0987140789
C   C9        1.0  0.37176  0.37176  0.87176  1.0000 0.6170082137
C   C10       1.0  0.42289  0.42289  0.92289  1.0000 -0.0920819893
C   C11       1.0  0.37176  0.12824  0.62824  1.0000 0.6170082137
C   C12       1.0  0.42289  0.07711  0.57711  1.0000 -0.0987140789
C   C13       1.0  0.12824  0.37176  0.87176  1.0000 0.6170082137
C   C14       1.0  0.07711  0.42289  0.92289  1.0000 -0.0987140789
C   C15       1.0  0.37176  0.12824  0.87176  1.0000 0.6170082137
C   C16       1.0  0.42289  0.07711  0.92289  1.0000 -0.0920819893
C   C17       1.0  0.12824  0.37176  0.62824  1.0000 0.6170082137
C   C18       1.0  0.07711  0.42289  0.57711  1.0000 -0.0987140789
C   C19       1.0  0.00000  0.00000  0.46688  1.0000 -0.0291378319
C   C20       1.0  0.53312  0.46688  0.00000  1.0000 -0.0010647316
C   C21       1.0  0.53312  0.00000  0.53312  1.0000 -0.0104570103
C   C22       1.0  0.00000  0.46688  0.00000  1.0000 -0.0222980155
C   C23       1.0  0.46688  0.00000  0.00000  1.0000 -0.0104570103
C   C24       1.0  0.00000  0.46688  0.46688  1.0000 -0.0010647316
C   C25       1.0  0.49600  0.59880  0.04740  1.0000 -0.128998732
C   C26       1.0  0.95260  0.95260  0.40120  1.0000 -0.139416861
C   C27       1.0  0.59880  0.95260  0.50400  1.0000 -0.139416861
C   C28       1.0  0.95260  0.49600  0.04740  1.0000 -0.139416861
C   C29       1.0  0.49600  0.95260  0.04740  1.0000 -0.139416861
C   C30       1.0  0.95260  0.49600  0.40120  1.0000 -0.139416861
C   C31       1.0  0.87176  0.87176  0.37176  1.0000 0.6170082137
C   C32       1.0  0.92289  0.92289  0.42289  1.0000 -0.0920819893
C   C33       1.0  0.62824  0.62824  0.12824  1.0000 0.6170082137
C   C34       1.0  0.57711  0.57711  0.07711  1.0000 -0.0987140789
C   C35       1.0  0.62824  0.87176  0.37176  1.0000 0.6170082137
C   C36       1.0  0.57711  0.92289  0.42289  1.0000 -0.0920819893
C   C37       1.0  0.87176  0.62824  0.12824  1.0000 0.6170082137
C   C38       1.0  0.92289  0.57711  0.07711  1.0000 -0.0920819893
C   C39       1.0  0.62824  0.87176  0.12824  1.0000 0.6170082137
C   C40       1.0  0.57711  0.92289  0.07711  1.0000 -0.0987140789
C   C41       1.0  0.87176  0.62824  0.37176  1.0000 0.6170082137
C   C42       1.0  0.92289  0.57711  0.42289  1.0000 -0.0920819893
C   C43       1.0  0.00000  0.00000  0.53312  1.0000 -0.0222980155
C   C44       1.0  0.46688  0.53312  0.00000  1.0000 -0.0291378319
C   C45       1.0  0.46688  0.00000  0.46688  1.0000 -0.0104570103
C   C46       1.0  0.00000  0.53312  0.00000  1.0000 -0.0291378319
C   C47       1.0  0.53312  0.00000  0.00000  1.0000 -0.0104570103
C   C48       1.0  0.00000  0.53312  0.53312  1.0000 -0.0291378319
S   S1        1.0  0.04740  0.04740  0.49600  1.0000 0.0989267698
S   S2        1.0  0.40120  0.50400  0.95260  1.0000 0.0687040353
S   S3        1.0  0.50400  0.04740  0.59880  1.0000 0.0628672685
S   S4        1.0  0.04740  0.40120  0.95260  1.0000 0.0785474326
S   S5        1.0  0.40120  0.04740  0.95260  1.0000 0.0785474326
S   S6        1.0  0.04740  0.40120  0.49600  1.0000 0.0687040353
S   S7        1.0  0.95260  0.95260  0.50400  1.0000 0.0785474326
S   S8        1.0  0.59880  0.49600  0.04740  1.0000 0.0687040353
S   S9        1.0  0.49600  0.95260  0.40120  1.0000 0.0628672685
S   S10       1.0  0.95260  0.59880  0.04740  1.0000 0.0989267698
S   S11       1.0  0.59880  0.95260  0.04740  1.0000 0.0628672685
S   S12       1.0  0.95260  0.59880  0.50400  1.0000 0.0687040353
O   O1        1.0  0.25000  0.25000  0.75000  1.0000 -1.0401489937
O   O2        1.0  0.14684  0.14684  0.70284  1.0000 -0.513542583
O   O3        1.0  0.29716  0.40916  0.85316  1.0000 -0.5486650223
O   O4        1.0  0.14684  0.14684  0.59084  1.0000 -0.5486650223
O   O5        1.0  0.40916  0.29716  0.85316  1.0000 -0.5182057748
O   O6        1.0  0.29716  0.14684  0.59084  1.0000 -0.513542583
O   O7        1.0  0.14684  0.40916  0.85316  1.0000 -0.5182057748
O   O8        1.0  0.40916  0.14684  0.70284  1.0000 -0.5486650223
O   O9        1.0  0.14684  0.29716  0.85316  1.0000 -0.5486650223
O   O10       1.0  0.40916  0.14684  0.85316  1.0000 -0.5182057748
O   O11       1.0  0.14684  0.40916  0.70284  1.0000 -0.5182057748
O   O12       1.0  0.29716  0.14684  0.85316  1.0000 -0.5486650223
O   O13       1.0  0.14684  0.29716  0.59084  1.0000 -0.5486650223
O   O14       1.0  0.75000  0.75000  0.25000  1.0000 -1.0401489937
O   O15       1.0  0.85316  0.85316  0.29716  1.0000 -0.513542583
O   O16       1.0  0.70284  0.59084  0.14684  1.0000 -0.5486650223
O   O17       1.0  0.85316  0.85316  0.40916  1.0000 -0.5486650223
O   O18       1.0  0.59084  0.70284  0.14684  1.0000 -0.5182057748
O   O19       1.0  0.70284  0.85316  0.40916  1.0000 -0.513542583
O   O20       1.0  0.85316  0.59084  0.14684  1.0000 -0.5182057748
O   O21       1.0  0.59084  0.85316  0.29716  1.0000 -0.5486650223
O   O22       1.0  0.85316  0.70284  0.14684  1.0000 -0.5486650223
O   O23       1.0  0.59084  0.85316  0.14684  1.0000 -0.5182057748
O   O24       1.0  0.85316  0.59084  0.29716  1.0000 -0.5182057748
O   O25       1.0  0.70284  0.85316  0.14684  1.0000 -0.5486650223
O   O26       1.0  0.85316  0.70284  0.40916  1.0000 -0.5486650223
