# DDEC6 charges by PACMAN v1.1 (https://github.com/mtap-research/PACMAN-charge/)
data_2006[Zn][nan]3[ASR]3
_chemical_formula_sum              "Zn32 H448 C720 O112"
_cell_length_a       45.9222
_cell_length_b       15.0763
_cell_length_c       34.6215
_cell_angle_alpha    90
_cell_angle_beta     117.31
_cell_angle_gamma    90

_symmetry_space_group_name_H-M    "P 1"
_symmetry_Int_Tables_number       1

loop_
  _symmetry_equiv_pos_as_xyz
  'x, y, z'

loop_
  _atom_site_type_symbol
  _atom_site_label
  _atom_site_symmetry_multiplicity
  _atom_site_fract_x
  _atom_site_fract_y
  _atom_site_fract_z
  _atom_site_occupancy
  _atom_site_charge
Zn  Zn1       1.0  0.20720  0.61749  0.00819  1.0000 0.9547330133
Zn  Zn2       1.0  0.72020  0.78598  0.35055  1.0000 0.9153020002
Zn  Zn3       1.0  0.28583  0.19708  0.39469  1.0000 0.974686145
Zn  Zn4       1.0  0.26878  0.75012  0.05050  1.0000 0.9858114711
Zn  Zn5       1.0  0.70720  0.11749  0.00819  1.0000 0.9547330133
Zn  Zn6       1.0  0.22020  0.28598  0.35055  1.0000 0.9153020002
Zn  Zn7       1.0  0.78583  0.69708  0.39469  1.0000 0.974686145
Zn  Zn8       1.0  0.76878  0.25012  0.05050  1.0000 0.9858114711
Zn  Zn9       1.0  0.79280  0.61749  0.49181  1.0000 0.9547330133
Zn  Zn10      1.0  0.27980  0.78598  0.14945  1.0000 0.9153020002
Zn  Zn11      1.0  0.71417  0.19708  0.10531  1.0000 0.974686145
Zn  Zn12      1.0  0.73122  0.75012  0.44950  1.0000 0.9858114711
Zn  Zn13      1.0  0.29280  0.11749  0.49181  1.0000 0.9547330133
Zn  Zn14      1.0  0.77980  0.28598  0.14945  1.0000 0.9153020002
Zn  Zn15      1.0  0.21417  0.69708  0.10531  1.0000 0.974686145
Zn  Zn16      1.0  0.23122  0.25012  0.44950  1.0000 0.9858114711
Zn  Zn17      1.0  0.79280  0.38251  0.99181  1.0000 0.9547330133
Zn  Zn18      1.0  0.27980  0.21402  0.64945  1.0000 0.9153020002
Zn  Zn19      1.0  0.71417  0.80292  0.60531  1.0000 0.974686145
Zn  Zn20      1.0  0.73122  0.24988  0.94950  1.0000 0.9858114711
Zn  Zn21      1.0  0.29280  0.88251  0.99181  1.0000 0.9555431596
Zn  Zn22      1.0  0.77980  0.71402  0.64945  1.0000 0.9153020002
Zn  Zn23      1.0  0.21417  0.30292  0.60531  1.0000 0.974686145
Zn  Zn24      1.0  0.23122  0.74988  0.94950  1.0000 0.9858114711
Zn  Zn25      1.0  0.20720  0.38251  0.50819  1.0000 0.9547330133
Zn  Zn26      1.0  0.72020  0.21402  0.85055  1.0000 0.9153020002
Zn  Zn27      1.0  0.28583  0.80292  0.89469  1.0000 0.974686145
Zn  Zn28      1.0  0.26878  0.24988  0.55050  1.0000 0.9858114711
Zn  Zn29      1.0  0.70720  0.88251  0.50819  1.0000 0.9547330133
Zn  Zn30      1.0  0.22020  0.71402  0.85055  1.0000 0.9153020002
Zn  Zn31      1.0  0.78583  0.30292  0.89469  1.0000 0.974686145
Zn  Zn32      1.0  0.76878  0.74988  0.55050  1.0000 0.9858114711
H   H1        1.0  0.34480  0.98020  0.25650  1.0000 0.1109362458
H   H2        1.0  0.42840  0.84310  0.32480  1.0000 0.1109362458
H   H3        1.0  0.40410  0.20800  0.26080  1.0000 0.1109362458
H   H4        1.0  0.37750  0.32640  0.21460  1.0000 0.1109362458
H   H5        1.0  0.30010  0.16770  0.14310  1.0000 0.1109362458
H   H6        1.0  0.32690  0.04960  0.18850  1.0000 0.1193878503
H   H7        1.0  0.35730  0.40050  0.14680  1.0000 0.1109362458
H   H8        1.0  0.32850  0.52450  0.10740  1.0000 0.1272845819
H   H9        1.0  0.24440  0.42230  0.09940  1.0000 0.1193878503
H   H10       1.0  0.27320  0.29870  0.13890  1.0000 0.1025957383
H   H11       1.0  0.32230  0.84140  0.24530  1.0000 0.1193878503
H   H12       1.0  0.29580  0.71840  0.25620  1.0000 0.1109362458
H   H13       1.0  0.37460  0.67280  0.37180  1.0000 0.1109362458
H   H14       1.0  0.40100  0.79460  0.36080  1.0000 0.1109362458
H   H15       1.0  0.26950  0.63680  0.28380  1.0000 0.1109362458
H   H16       1.0  0.24550  0.50990  0.29560  1.0000 0.1193878503
H   H17       1.0  0.33560  0.40770  0.37000  1.0000 0.1193878503
H   H18       1.0  0.35930  0.53480  0.35960  1.0000 0.1109362458
H   H19       1.0  0.47930  0.84950  0.35820  1.0000 0.1109362458
H   H20       1.0  0.53310  0.82000  0.37500  1.0000 0.1109362458
H   H21       1.0  0.53250  0.02040  0.30130  1.0000 0.1109362458
H   H22       1.0  0.47820  0.04830  0.28350  1.0000 0.1109362458
H   H23       1.0  0.58730  0.83900  0.40490  1.0000 0.1109362458
H   H24       1.0  0.63960  0.80100  0.41760  1.0000 0.1272845819
H   H25       1.0  0.62130  0.90070  0.30060  1.0000 0.1109362458
H   H26       1.0  0.56830  0.93640  0.28760  1.0000 0.1025957383
H   H27       1.0  0.43140  0.07690  0.27080  1.0000 0.1109362458
H   H28       1.0  0.32120  0.97220  0.85810  1.0000 0.1272845819
H   H29       1.0  0.39950  0.11410  0.94110  1.0000 0.1109362458
H   H30       1.0  0.41090  0.91640  0.87030  1.0000 0.1109362458
H   H31       1.0  0.38910  0.77170  0.86190  1.0000 0.1109362458
H   H32       1.0  0.36710  0.64980  0.81740  1.0000 0.1109362458
H   H33       1.0  0.28530  0.79000  0.74370  1.0000 0.1109362458
H   H34       1.0  0.30700  0.91140  0.78840  1.0000 0.1109362458
H   H35       1.0  0.35150  0.57000  0.75700  1.0000 0.1109362458
H   H36       1.0  0.32920  0.44360  0.71670  1.0000 0.1193878503
H   H37       1.0  0.23850  0.52770  0.69070  1.0000 0.1109362458
H   H38       1.0  0.26090  0.65470  0.73180  1.0000 0.1109362458
H   H39       1.0  0.30940  0.15330  0.84530  1.0000 0.1109362458
H   H40       1.0  0.27820  0.26060  0.85710  1.0000 0.1109362458
H   H41       1.0  0.31970  0.19600  0.98440  1.0000 0.1193878503
H   H42       1.0  0.35230  0.09280  0.97310  1.0000 0.1193878503
H   H43       1.0  0.26700  0.25230  0.97400  1.0000 0.1193878503
H   H44       1.0  0.24010  0.37130  0.98660  1.0000 0.1193878503
H   H45       1.0  0.25460  0.51860  0.89970  1.0000 0.1193878503
H   H46       1.0  0.28080  0.39980  0.88640  1.0000 0.1109362458
H   H47       1.0  0.44440  0.16960  0.93970  1.0000 0.1109362458
H   H48       1.0  0.50010  0.19860  0.96930  1.0000 0.1109362458
H   H49       1.0  0.51680  0.94390  0.95120  1.0000 0.1109362458
H   H50       1.0  0.46140  0.91330  0.92300  1.0000 0.1109362458
H   H51       1.0  0.55460  0.18280  0.02630  1.0000 0.1109362458
H   H52       1.0  0.61120  0.20270  0.05570  1.0000 0.1193878503
H   H53       1.0  0.61320  0.03060  0.96750  1.0000 0.1193878503
H   H54       1.0  0.55730  0.00390  0.94100  1.0000 0.1193878503
H   H55       1.0  0.25515  0.67078  0.90990  1.0000 0.3549112372
H   H56       1.0  0.21990  0.20000  0.49892  1.0000 0.3768153443
H   H57       1.0  0.84480  0.48020  0.25650  1.0000 0.1109362458
H   H58       1.0  0.92840  0.34310  0.32480  1.0000 0.1109362458
H   H59       1.0  0.90410  0.70800  0.26080  1.0000 0.1109362458
H   H60       1.0  0.87750  0.82640  0.21460  1.0000 0.1109362458
H   H61       1.0  0.80010  0.66770  0.14310  1.0000 0.1109362458
H   H62       1.0  0.82690  0.54960  0.18850  1.0000 0.1193878503
H   H63       1.0  0.85730  0.90050  0.14680  1.0000 0.1109362458
H   H64       1.0  0.82850  0.02450  0.10740  1.0000 0.1272845819
H   H65       1.0  0.74440  0.92230  0.09940  1.0000 0.1193878503
H   H66       1.0  0.77320  0.79870  0.13890  1.0000 0.1025957383
H   H67       1.0  0.82230  0.34140  0.24530  1.0000 0.1193878503
H   H68       1.0  0.79580  0.21840  0.25620  1.0000 0.1109362458
H   H69       1.0  0.87460  0.17280  0.37180  1.0000 0.1109362458
H   H70       1.0  0.90100  0.29460  0.36080  1.0000 0.1025957383
H   H71       1.0  0.76950  0.13680  0.28380  1.0000 0.1109362458
H   H72       1.0  0.74550  0.00990  0.29560  1.0000 0.1193878503
H   H73       1.0  0.83560  0.90770  0.37000  1.0000 0.1193878503
H   H74       1.0  0.85930  0.03480  0.35960  1.0000 0.1109362458
H   H75       1.0  0.97930  0.34950  0.35820  1.0000 0.1109362458
H   H76       1.0  0.03310  0.32000  0.37500  1.0000 0.1109362458
H   H77       1.0  0.03250  0.52040  0.30130  1.0000 0.1109362458
H   H78       1.0  0.97820  0.54830  0.28350  1.0000 0.1109362458
H   H79       1.0  0.08730  0.33900  0.40490  1.0000 0.1109362458
H   H80       1.0  0.13960  0.30100  0.41760  1.0000 0.1272845819
H   H81       1.0  0.12130  0.40070  0.30060  1.0000 0.1109362458
H   H82       1.0  0.06830  0.43640  0.28760  1.0000 0.1025957383
H   H83       1.0  0.93140  0.57690  0.27080  1.0000 0.1109362458
H   H84       1.0  0.82120  0.47220  0.85810  1.0000 0.1272845819
H   H85       1.0  0.89950  0.61410  0.94110  1.0000 0.1109362458
H   H86       1.0  0.91090  0.41640  0.87030  1.0000 0.1109362458
H   H87       1.0  0.88910  0.27170  0.86190  1.0000 0.1109362458
H   H88       1.0  0.86710  0.14980  0.81740  1.0000 0.1109362458
H   H89       1.0  0.78530  0.29000  0.74370  1.0000 0.1109362458
H   H90       1.0  0.80700  0.41140  0.78840  1.0000 0.1109362458
H   H91       1.0  0.85150  0.07000  0.75700  1.0000 0.1109362458
H   H92       1.0  0.82920  0.94360  0.71670  1.0000 0.1193878503
H   H93       1.0  0.73850  0.02770  0.69070  1.0000 0.1109362458
H   H94       1.0  0.76090  0.15470  0.73180  1.0000 0.1109362458
H   H95       1.0  0.80940  0.65330  0.84530  1.0000 0.1109362458
H   H96       1.0  0.77820  0.76060  0.85710  1.0000 0.1109362458
H   H97       1.0  0.81970  0.69600  0.98440  1.0000 0.1193878503
H   H98       1.0  0.85230  0.59280  0.97310  1.0000 0.1193878503
H   H99       1.0  0.76700  0.75230  0.97400  1.0000 0.1193878503
H   H100      1.0  0.74010  0.87130  0.98660  1.0000 0.1193878503
H   H101      1.0  0.75460  0.01860  0.89970  1.0000 0.1193878503
H   H102      1.0  0.78080  0.89980  0.88640  1.0000 0.1109362458
H   H103      1.0  0.94440  0.66960  0.93970  1.0000 0.1109362458
H   H104      1.0  0.00010  0.69860  0.96930  1.0000 0.1109362458
H   H105      1.0  0.01680  0.44390  0.95120  1.0000 0.1109362458
H   H106      1.0  0.96140  0.41330  0.92300  1.0000 0.1109362458
H   H107      1.0  0.05460  0.68280  0.02630  1.0000 0.1109362458
H   H108      1.0  0.11120  0.70270  0.05570  1.0000 0.1193878503
H   H109      1.0  0.11320  0.53060  0.96750  1.0000 0.1193878503
H   H110      1.0  0.05730  0.50390  0.94100  1.0000 0.1193878503
H   H111      1.0  0.75515  0.17078  0.90990  1.0000 0.3549112372
H   H112      1.0  0.71990  0.70000  0.49892  1.0000 0.3768153443
H   H113      1.0  0.65520  0.98020  0.24350  1.0000 0.1109362458
H   H114      1.0  0.57160  0.84310  0.17520  1.0000 0.1109362458
H   H115      1.0  0.59590  0.20800  0.23920  1.0000 0.1109362458
H   H116      1.0  0.62250  0.32640  0.28540  1.0000 0.1109362458
H   H117      1.0  0.69990  0.16770  0.35690  1.0000 0.1109362458
H   H118      1.0  0.67310  0.04960  0.31150  1.0000 0.1193878503
H   H119      1.0  0.64270  0.40050  0.35320  1.0000 0.1109362458
H   H120      1.0  0.67150  0.52450  0.39260  1.0000 0.1272845819
H   H121      1.0  0.75560  0.42230  0.40060  1.0000 0.1193878503
H   H122      1.0  0.72680  0.29870  0.36110  1.0000 0.1025957383
H   H123      1.0  0.67770  0.84140  0.25470  1.0000 0.1193878503
H   H124      1.0  0.70420  0.71840  0.24380  1.0000 0.1109362458
H   H125      1.0  0.62540  0.67280  0.12820  1.0000 0.1109362458
H   H126      1.0  0.59900  0.79460  0.13920  1.0000 0.1109362458
H   H127      1.0  0.73050  0.63680  0.21620  1.0000 0.1109362458
H   H128      1.0  0.75450  0.50990  0.20440  1.0000 0.1193878503
H   H129      1.0  0.66440  0.40770  0.13000  1.0000 0.1193878503
H   H130      1.0  0.64070  0.53480  0.14040  1.0000 0.1109362458
H   H131      1.0  0.52070  0.84950  0.14180  1.0000 0.1109362458
H   H132      1.0  0.46690  0.82000  0.12500  1.0000 0.1109362458
H   H133      1.0  0.46750  0.02040  0.19870  1.0000 0.1109362458
H   H134      1.0  0.52180  0.04830  0.21650  1.0000 0.1109362458
H   H135      1.0  0.41270  0.83900  0.09510  1.0000 0.1109362458
H   H136      1.0  0.36040  0.80100  0.08240  1.0000 0.1272845819
H   H137      1.0  0.37870  0.90070  0.19940  1.0000 0.1109362458
H   H138      1.0  0.43170  0.93640  0.21240  1.0000 0.1025957383
H   H139      1.0  0.56860  0.07690  0.22920  1.0000 0.1109362458
H   H140      1.0  0.67880  0.97220  0.64190  1.0000 0.1272845819
H   H141      1.0  0.60050  0.11410  0.55890  1.0000 0.1109362458
H   H142      1.0  0.58910  0.91640  0.62970  1.0000 0.1109362458
H   H143      1.0  0.61090  0.77170  0.63810  1.0000 0.1109362458
H   H144      1.0  0.63290  0.64980  0.68260  1.0000 0.1109362458
H   H145      1.0  0.71470  0.79000  0.75630  1.0000 0.1109362458
H   H146      1.0  0.69300  0.91140  0.71160  1.0000 0.1109362458
H   H147      1.0  0.64850  0.57000  0.74300  1.0000 0.1109362458
H   H148      1.0  0.67080  0.44360  0.78330  1.0000 0.1193878503
H   H149      1.0  0.76150  0.52770  0.80930  1.0000 0.1109362458
H   H150      1.0  0.73910  0.65470  0.76820  1.0000 0.1109362458
H   H151      1.0  0.69060  0.15330  0.65470  1.0000 0.1109362458
H   H152      1.0  0.72180  0.26060  0.64290  1.0000 0.1109362458
H   H153      1.0  0.68030  0.19600  0.51560  1.0000 0.1193878503
H   H154      1.0  0.64770  0.09280  0.52690  1.0000 0.1193878503
H   H155      1.0  0.73300  0.25230  0.52600  1.0000 0.1193878503
H   H156      1.0  0.75990  0.37130  0.51340  1.0000 0.1193878503
H   H157      1.0  0.74540  0.51860  0.60030  1.0000 0.1193878503
H   H158      1.0  0.71920  0.39980  0.61360  1.0000 0.1109362458
H   H159      1.0  0.55560  0.16960  0.56030  1.0000 0.1109362458
H   H160      1.0  0.49990  0.19860  0.53070  1.0000 0.1109362458
H   H161      1.0  0.48320  0.94390  0.54880  1.0000 0.1109362458
H   H162      1.0  0.53860  0.91330  0.57700  1.0000 0.1109362458
H   H163      1.0  0.44540  0.18280  0.47370  1.0000 0.1109362458
H   H164      1.0  0.38880  0.20270  0.44430  1.0000 0.1193878503
H   H165      1.0  0.38680  0.03060  0.53250  1.0000 0.1193878503
H   H166      1.0  0.44270  0.00390  0.55900  1.0000 0.1193878503
H   H167      1.0  0.74485  0.67078  0.59010  1.0000 0.3549112372
H   H168      1.0  0.78010  0.20000  0.00108  1.0000 0.3768153443
H   H169      1.0  0.15520  0.48020  0.24350  1.0000 0.1109362458
H   H170      1.0  0.07160  0.34310  0.17520  1.0000 0.1109362458
H   H171      1.0  0.09590  0.70800  0.23920  1.0000 0.1109362458
H   H172      1.0  0.12250  0.82640  0.28540  1.0000 0.1109362458
H   H173      1.0  0.19990  0.66770  0.35690  1.0000 0.1109362458
H   H174      1.0  0.17310  0.54960  0.31150  1.0000 0.1193878503
H   H175      1.0  0.14270  0.90050  0.35320  1.0000 0.1109362458
H   H176      1.0  0.17150  0.02450  0.39260  1.0000 0.1272845819
H   H177      1.0  0.25560  0.92230  0.40060  1.0000 0.1193878503
H   H178      1.0  0.22680  0.79870  0.36110  1.0000 0.1025957383
H   H179      1.0  0.17770  0.34140  0.25470  1.0000 0.1193878503
H   H180      1.0  0.20420  0.21840  0.24380  1.0000 0.1109362458
H   H181      1.0  0.12540  0.17280  0.12820  1.0000 0.1109362458
H   H182      1.0  0.09900  0.29460  0.13920  1.0000 0.1025957383
H   H183      1.0  0.23050  0.13680  0.21620  1.0000 0.1109362458
H   H184      1.0  0.25450  0.00990  0.20440  1.0000 0.1193878503
H   H185      1.0  0.16440  0.90770  0.13000  1.0000 0.1193878503
H   H186      1.0  0.14070  0.03480  0.14040  1.0000 0.1109362458
H   H187      1.0  0.02070  0.34950  0.14180  1.0000 0.1109362458
H   H188      1.0  0.96690  0.32000  0.12500  1.0000 0.1109362458
H   H189      1.0  0.96750  0.52040  0.19870  1.0000 0.1109362458
H   H190      1.0  0.02180  0.54830  0.21650  1.0000 0.1109362458
H   H191      1.0  0.91270  0.33900  0.09510  1.0000 0.1109362458
H   H192      1.0  0.86040  0.30100  0.08240  1.0000 0.1272845819
H   H193      1.0  0.87870  0.40070  0.19940  1.0000 0.1109362458
H   H194      1.0  0.93170  0.43640  0.21240  1.0000 0.1025957383
H   H195      1.0  0.06860  0.57690  0.22920  1.0000 0.1109362458
H   H196      1.0  0.17880  0.47220  0.64190  1.0000 0.1272845819
H   H197      1.0  0.10050  0.61410  0.55890  1.0000 0.1109362458
H   H198      1.0  0.08910  0.41640  0.62970  1.0000 0.1109362458
H   H199      1.0  0.11090  0.27170  0.63810  1.0000 0.1109362458
H   H200      1.0  0.13290  0.14980  0.68260  1.0000 0.1109362458
H   H201      1.0  0.21470  0.29000  0.75630  1.0000 0.1109362458
H   H202      1.0  0.19300  0.41140  0.71160  1.0000 0.1109362458
H   H203      1.0  0.14850  0.07000  0.74300  1.0000 0.1109362458
H   H204      1.0  0.17080  0.94360  0.78330  1.0000 0.1193878503
H   H205      1.0  0.26150  0.02770  0.80930  1.0000 0.1109362458
H   H206      1.0  0.23910  0.15470  0.76820  1.0000 0.1109362458
H   H207      1.0  0.19060  0.65330  0.65470  1.0000 0.1109362458
H   H208      1.0  0.22180  0.76060  0.64290  1.0000 0.1109362458
H   H209      1.0  0.18030  0.69600  0.51560  1.0000 0.1193878503
H   H210      1.0  0.14770  0.59280  0.52690  1.0000 0.1193878503
H   H211      1.0  0.23300  0.75230  0.52600  1.0000 0.1193878503
H   H212      1.0  0.25990  0.87130  0.51340  1.0000 0.1193878503
H   H213      1.0  0.24540  0.01860  0.60030  1.0000 0.1193878503
H   H214      1.0  0.21920  0.89980  0.61360  1.0000 0.1109362458
H   H215      1.0  0.05560  0.66960  0.56030  1.0000 0.1109362458
H   H216      1.0  0.99990  0.69860  0.53070  1.0000 0.1109362458
H   H217      1.0  0.98320  0.44390  0.54880  1.0000 0.1109362458
H   H218      1.0  0.03860  0.41330  0.57700  1.0000 0.1109362458
H   H219      1.0  0.94540  0.68280  0.47370  1.0000 0.1109362458
H   H220      1.0  0.88880  0.70270  0.44430  1.0000 0.1193878503
H   H221      1.0  0.88680  0.53060  0.53250  1.0000 0.1193878503
H   H222      1.0  0.94270  0.50390  0.55900  1.0000 0.1193878503
H   H223      1.0  0.24485  0.17078  0.59010  1.0000 0.3549112372
H   H224      1.0  0.28010  0.70000  0.00108  1.0000 0.3768153443
H   H225      1.0  0.65520  0.01980  0.74350  1.0000 0.1109362458
H   H226      1.0  0.57160  0.15690  0.67520  1.0000 0.1109362458
H   H227      1.0  0.59590  0.79200  0.73920  1.0000 0.1109362458
H   H228      1.0  0.62250  0.67360  0.78540  1.0000 0.1109362458
H   H229      1.0  0.69990  0.83230  0.85690  1.0000 0.1109362458
H   H230      1.0  0.67310  0.95040  0.81150  1.0000 0.1193878503
H   H231      1.0  0.64270  0.59950  0.85320  1.0000 0.1109362458
H   H232      1.0  0.67150  0.47550  0.89260  1.0000 0.1272845819
H   H233      1.0  0.75560  0.57770  0.90060  1.0000 0.1193878503
H   H234      1.0  0.72680  0.70130  0.86110  1.0000 0.1025957383
H   H235      1.0  0.67770  0.15860  0.75470  1.0000 0.1193878503
H   H236      1.0  0.70420  0.28160  0.74380  1.0000 0.1109362458
H   H237      1.0  0.62540  0.32720  0.62820  1.0000 0.1109362458
H   H238      1.0  0.59900  0.20540  0.63920  1.0000 0.1025957383
H   H239      1.0  0.73050  0.36320  0.71620  1.0000 0.1109362458
H   H240      1.0  0.75450  0.49010  0.70440  1.0000 0.1193878503
H   H241      1.0  0.66440  0.59230  0.63000  1.0000 0.1193878503
H   H242      1.0  0.64070  0.46520  0.64040  1.0000 0.1109362458
H   H243      1.0  0.52070  0.15050  0.64180  1.0000 0.1109362458
H   H244      1.0  0.46690  0.18000  0.62500  1.0000 0.1109362458
H   H245      1.0  0.46750  0.97960  0.69870  1.0000 0.1109362458
H   H246      1.0  0.52180  0.95170  0.71650  1.0000 0.1109362458
H   H247      1.0  0.41270  0.16100  0.59510  1.0000 0.1109362458
H   H248      1.0  0.36040  0.19900  0.58240  1.0000 0.1272845819
H   H249      1.0  0.37870  0.09930  0.69940  1.0000 0.1109362458
H   H250      1.0  0.43170  0.06360  0.71240  1.0000 0.1025957383
H   H251      1.0  0.56860  0.92310  0.72920  1.0000 0.1109362458
H   H252      1.0  0.67880  0.02780  0.14190  1.0000 0.1272845819
H   H253      1.0  0.60050  0.88590  0.05890  1.0000 0.1109362458
H   H254      1.0  0.58910  0.08360  0.12970  1.0000 0.1109362458
H   H255      1.0  0.61090  0.22830  0.13810  1.0000 0.1109362458
H   H256      1.0  0.63290  0.35020  0.18260  1.0000 0.1109362458
H   H257      1.0  0.71470  0.21000  0.25630  1.0000 0.1109362458
H   H258      1.0  0.69300  0.08860  0.21160  1.0000 0.1109362458
H   H259      1.0  0.64850  0.43000  0.24300  1.0000 0.1109362458
H   H260      1.0  0.67080  0.55640  0.28330  1.0000 0.1193878503
H   H261      1.0  0.76150  0.47230  0.30930  1.0000 0.1109362458
H   H262      1.0  0.73910  0.34530  0.26820  1.0000 0.1109362458
H   H263      1.0  0.69060  0.84670  0.15470  1.0000 0.1109362458
H   H264      1.0  0.72180  0.73940  0.14290  1.0000 0.1109362458
H   H265      1.0  0.68030  0.80400  0.01560  1.0000 0.1193878503
H   H266      1.0  0.64770  0.90720  0.02690  1.0000 0.1193878503
H   H267      1.0  0.73300  0.74770  0.02600  1.0000 0.1193878503
H   H268      1.0  0.75990  0.62870  0.01340  1.0000 0.1193878503
H   H269      1.0  0.74540  0.48140  0.10030  1.0000 0.1193878503
H   H270      1.0  0.71920  0.60020  0.11360  1.0000 0.1109362458
H   H271      1.0  0.55560  0.83040  0.06030  1.0000 0.1109362458
H   H272      1.0  0.49990  0.80140  0.03070  1.0000 0.1109362458
H   H273      1.0  0.48320  0.05610  0.04880  1.0000 0.1109362458
H   H274      1.0  0.53860  0.08670  0.07700  1.0000 0.1109362458
H   H275      1.0  0.44540  0.81720  0.97370  1.0000 0.1109362458
H   H276      1.0  0.38880  0.79730  0.94430  1.0000 0.1193878503
H   H277      1.0  0.38680  0.96940  0.03250  1.0000 0.1193878503
H   H278      1.0  0.44270  0.99610  0.05900  1.0000 0.1193878503
H   H279      1.0  0.74485  0.32922  0.09010  1.0000 0.3549112372
H   H280      1.0  0.78010  0.80000  0.50108  1.0000 0.3768153443
H   H281      1.0  0.15520  0.51980  0.74350  1.0000 0.1109362458
H   H282      1.0  0.07160  0.65690  0.67520  1.0000 0.1109362458
H   H283      1.0  0.09590  0.29200  0.73920  1.0000 0.1109362458
H   H284      1.0  0.12250  0.17360  0.78540  1.0000 0.1109362458
H   H285      1.0  0.19990  0.33230  0.85690  1.0000 0.1109362458
H   H286      1.0  0.17310  0.45040  0.81150  1.0000 0.1193878503
H   H287      1.0  0.14270  0.09950  0.85320  1.0000 0.1109362458
H   H288      1.0  0.17150  0.97550  0.89260  1.0000 0.1272845819
H   H289      1.0  0.25560  0.07770  0.90060  1.0000 0.1193878503
H   H290      1.0  0.22680  0.20130  0.86110  1.0000 0.1025957383
H   H291      1.0  0.17770  0.65860  0.75470  1.0000 0.1193878503
H   H292      1.0  0.20420  0.78160  0.74380  1.0000 0.1109362458
H   H293      1.0  0.12540  0.82720  0.62820  1.0000 0.1109362458
H   H294      1.0  0.09900  0.70540  0.63920  1.0000 0.1025957383
H   H295      1.0  0.23050  0.86320  0.71620  1.0000 0.1109362458
H   H296      1.0  0.25450  0.99010  0.70440  1.0000 0.1193878503
H   H297      1.0  0.16440  0.09230  0.63000  1.0000 0.1193878503
H   H298      1.0  0.14070  0.96520  0.64040  1.0000 0.1109362458
H   H299      1.0  0.02070  0.65050  0.64180  1.0000 0.1109362458
H   H300      1.0  0.96690  0.68000  0.62500  1.0000 0.1109362458
H   H301      1.0  0.96750  0.47960  0.69870  1.0000 0.1109362458
H   H302      1.0  0.02180  0.45170  0.71650  1.0000 0.1109362458
H   H303      1.0  0.91270  0.66100  0.59510  1.0000 0.1109362458
H   H304      1.0  0.86040  0.69900  0.58240  1.0000 0.1272845819
H   H305      1.0  0.87870  0.59930  0.69940  1.0000 0.1109362458
H   H306      1.0  0.93170  0.56360  0.71240  1.0000 0.1025957383
H   H307      1.0  0.06860  0.42310  0.72920  1.0000 0.1109362458
H   H308      1.0  0.17880  0.52780  0.14190  1.0000 0.1272845819
H   H309      1.0  0.10050  0.38590  0.05890  1.0000 0.1109362458
H   H310      1.0  0.08910  0.58360  0.12970  1.0000 0.1109362458
H   H311      1.0  0.11090  0.72830  0.13810  1.0000 0.1109362458
H   H312      1.0  0.13290  0.85020  0.18260  1.0000 0.1109362458
H   H313      1.0  0.21470  0.71000  0.25630  1.0000 0.1109362458
H   H314      1.0  0.19300  0.58860  0.21160  1.0000 0.1109362458
H   H315      1.0  0.14850  0.93000  0.24300  1.0000 0.1109362458
H   H316      1.0  0.17080  0.05640  0.28330  1.0000 0.1193878503
H   H317      1.0  0.26150  0.97230  0.30930  1.0000 0.1109362458
H   H318      1.0  0.23910  0.84530  0.26820  1.0000 0.1109362458
H   H319      1.0  0.19060  0.34670  0.15470  1.0000 0.1109362458
H   H320      1.0  0.22180  0.23940  0.14290  1.0000 0.1109362458
H   H321      1.0  0.18030  0.30400  0.01560  1.0000 0.1193878503
H   H322      1.0  0.14770  0.40720  0.02690  1.0000 0.1193878503
H   H323      1.0  0.23300  0.24770  0.02600  1.0000 0.1193878503
H   H324      1.0  0.25990  0.12870  0.01340  1.0000 0.1193878503
H   H325      1.0  0.24540  0.98140  0.10030  1.0000 0.1193878503
H   H326      1.0  0.21920  0.10020  0.11360  1.0000 0.1109362458
H   H327      1.0  0.05560  0.33040  0.06030  1.0000 0.1109362458
H   H328      1.0  0.99990  0.30140  0.03070  1.0000 0.1109362458
H   H329      1.0  0.98320  0.55610  0.04880  1.0000 0.1109362458
H   H330      1.0  0.03860  0.58670  0.07700  1.0000 0.1109362458
H   H331      1.0  0.94540  0.31720  0.97370  1.0000 0.1109362458
H   H332      1.0  0.88880  0.29730  0.94430  1.0000 0.1193878503
H   H333      1.0  0.88680  0.46940  0.03250  1.0000 0.1193878503
H   H334      1.0  0.94270  0.49610  0.05900  1.0000 0.1193878503
H   H335      1.0  0.24485  0.82922  0.09010  1.0000 0.3552459172
H   H336      1.0  0.28010  0.30000  0.50108  1.0000 0.3768153443
H   H337      1.0  0.34480  0.01980  0.75650  1.0000 0.1109362458
H   H338      1.0  0.42840  0.15690  0.82480  1.0000 0.1109362458
H   H339      1.0  0.40410  0.79200  0.76080  1.0000 0.1109362458
H   H340      1.0  0.37750  0.67360  0.71460  1.0000 0.1109362458
H   H341      1.0  0.30010  0.83230  0.64310  1.0000 0.1109362458
H   H342      1.0  0.32690  0.95040  0.68850  1.0000 0.1193878503
H   H343      1.0  0.35730  0.59950  0.64680  1.0000 0.1109362458
H   H344      1.0  0.32850  0.47550  0.60740  1.0000 0.1272845819
H   H345      1.0  0.24440  0.57770  0.59940  1.0000 0.1193878503
H   H346      1.0  0.27320  0.70130  0.63890  1.0000 0.1025957383
H   H347      1.0  0.32230  0.15860  0.74530  1.0000 0.1193878503
H   H348      1.0  0.29580  0.28160  0.75620  1.0000 0.1109362458
H   H349      1.0  0.37460  0.32720  0.87180  1.0000 0.1109362458
H   H350      1.0  0.40100  0.20540  0.86080  1.0000 0.1025957383
H   H351      1.0  0.26950  0.36320  0.78380  1.0000 0.1109362458
H   H352      1.0  0.24550  0.49010  0.79560  1.0000 0.1193878503
H   H353      1.0  0.33560  0.59230  0.87000  1.0000 0.1193878503
H   H354      1.0  0.35930  0.46520  0.85960  1.0000 0.1109362458
H   H355      1.0  0.47930  0.15050  0.85820  1.0000 0.1109362458
H   H356      1.0  0.53310  0.18000  0.87500  1.0000 0.1109362458
H   H357      1.0  0.53250  0.97960  0.80130  1.0000 0.1109362458
H   H358      1.0  0.47820  0.95170  0.78350  1.0000 0.1109362458
H   H359      1.0  0.58730  0.16100  0.90490  1.0000 0.1109362458
H   H360      1.0  0.63960  0.19900  0.91760  1.0000 0.1272845819
H   H361      1.0  0.62130  0.09930  0.80060  1.0000 0.1109362458
H   H362      1.0  0.56830  0.06360  0.78760  1.0000 0.1025957383
H   H363      1.0  0.43140  0.92310  0.77080  1.0000 0.1109362458
H   H364      1.0  0.32120  0.02780  0.35810  1.0000 0.1272845819
H   H365      1.0  0.39950  0.88590  0.44110  1.0000 0.1109362458
H   H366      1.0  0.41090  0.08360  0.37030  1.0000 0.1109362458
H   H367      1.0  0.38910  0.22830  0.36190  1.0000 0.1109362458
H   H368      1.0  0.36710  0.35020  0.31740  1.0000 0.1109362458
H   H369      1.0  0.28530  0.21000  0.24370  1.0000 0.1109362458
H   H370      1.0  0.30700  0.08860  0.28840  1.0000 0.1109362458
H   H371      1.0  0.35150  0.43000  0.25700  1.0000 0.1109362458
H   H372      1.0  0.32920  0.55640  0.21670  1.0000 0.1193878503
H   H373      1.0  0.23850  0.47230  0.19070  1.0000 0.1109362458
H   H374      1.0  0.26090  0.34530  0.23180  1.0000 0.1109362458
H   H375      1.0  0.30940  0.84670  0.34530  1.0000 0.1109362458
H   H376      1.0  0.27820  0.73940  0.35710  1.0000 0.1109362458
H   H377      1.0  0.31970  0.80400  0.48440  1.0000 0.1193878503
H   H378      1.0  0.35230  0.90720  0.47310  1.0000 0.1193878503
H   H379      1.0  0.26700  0.74770  0.47400  1.0000 0.1193878503
H   H380      1.0  0.24010  0.62870  0.48660  1.0000 0.1193878503
H   H381      1.0  0.25460  0.48140  0.39970  1.0000 0.1193878503
H   H382      1.0  0.28080  0.60020  0.38640  1.0000 0.1109362458
H   H383      1.0  0.44440  0.83040  0.43970  1.0000 0.1109362458
H   H384      1.0  0.50010  0.80140  0.46930  1.0000 0.1109362458
H   H385      1.0  0.51680  0.05610  0.45120  1.0000 0.1109362458
H   H386      1.0  0.46140  0.08670  0.42300  1.0000 0.1109362458
H   H387      1.0  0.55460  0.81720  0.52630  1.0000 0.1109362458
H   H388      1.0  0.61120  0.79730  0.55570  1.0000 0.1193878503
H   H389      1.0  0.61320  0.96940  0.46750  1.0000 0.1193878503
H   H390      1.0  0.55730  0.99610  0.44100  1.0000 0.1193878503
H   H391      1.0  0.25515  0.32922  0.40990  1.0000 0.3552459172
H   H392      1.0  0.21990  0.80000  0.99892  1.0000 0.3768153443
H   H393      1.0  0.84480  0.51980  0.75650  1.0000 0.1109362458
H   H394      1.0  0.92840  0.65690  0.82480  1.0000 0.1109362458
H   H395      1.0  0.90410  0.29200  0.76080  1.0000 0.1109362458
H   H396      1.0  0.87750  0.17360  0.71460  1.0000 0.1109362458
H   H397      1.0  0.80010  0.33230  0.64310  1.0000 0.1109362458
H   H398      1.0  0.82690  0.45040  0.68850  1.0000 0.1193878503
H   H399      1.0  0.85730  0.09950  0.64680  1.0000 0.1109362458
H   H400      1.0  0.82850  0.97550  0.60740  1.0000 0.1272845819
H   H401      1.0  0.74440  0.07770  0.59940  1.0000 0.1193878503
H   H402      1.0  0.77320  0.20130  0.63890  1.0000 0.1025957383
H   H403      1.0  0.82230  0.65860  0.74530  1.0000 0.1193878503
H   H404      1.0  0.79580  0.78160  0.75620  1.0000 0.1109362458
H   H405      1.0  0.87460  0.82720  0.87180  1.0000 0.1109362458
H   H406      1.0  0.90100  0.70540  0.86080  1.0000 0.1025957383
H   H407      1.0  0.76950  0.86320  0.78380  1.0000 0.1109362458
H   H408      1.0  0.74550  0.99010  0.79560  1.0000 0.1193878503
H   H409      1.0  0.83560  0.09230  0.87000  1.0000 0.1193878503
H   H410      1.0  0.85930  0.96520  0.85960  1.0000 0.1109362458
H   H411      1.0  0.97930  0.65050  0.85820  1.0000 0.1109362458
H   H412      1.0  0.03310  0.68000  0.87500  1.0000 0.1109362458
H   H413      1.0  0.03250  0.47960  0.80130  1.0000 0.1109362458
H   H414      1.0  0.97820  0.45170  0.78350  1.0000 0.1109362458
H   H415      1.0  0.08730  0.66100  0.90490  1.0000 0.1109362458
H   H416      1.0  0.13960  0.69900  0.91760  1.0000 0.1272845819
H   H417      1.0  0.12130  0.59930  0.80060  1.0000 0.1109362458
H   H418      1.0  0.06830  0.56360  0.78760  1.0000 0.1025957383
H   H419      1.0  0.93140  0.42310  0.77080  1.0000 0.1109362458
H   H420      1.0  0.82120  0.52780  0.35810  1.0000 0.1272845819
H   H421      1.0  0.89950  0.38590  0.44110  1.0000 0.1109362458
H   H422      1.0  0.91090  0.58360  0.37030  1.0000 0.1109362458
H   H423      1.0  0.88910  0.72830  0.36190  1.0000 0.1109362458
H   H424      1.0  0.86710  0.85020  0.31740  1.0000 0.1109362458
H   H425      1.0  0.78530  0.71000  0.24370  1.0000 0.1109362458
H   H426      1.0  0.80700  0.58860  0.28840  1.0000 0.1109362458
H   H427      1.0  0.85150  0.93000  0.25700  1.0000 0.1109362458
H   H428      1.0  0.82920  0.05640  0.21670  1.0000 0.1193878503
H   H429      1.0  0.73850  0.97230  0.19070  1.0000 0.1109362458
H   H430      1.0  0.76090  0.84530  0.23180  1.0000 0.1109362458
H   H431      1.0  0.80940  0.34670  0.34530  1.0000 0.1109362458
H   H432      1.0  0.77820  0.23940  0.35710  1.0000 0.1109362458
H   H433      1.0  0.81970  0.30400  0.48440  1.0000 0.1193878503
H   H434      1.0  0.85230  0.40720  0.47310  1.0000 0.1193878503
H   H435      1.0  0.76700  0.24770  0.47400  1.0000 0.1193878503
H   H436      1.0  0.74010  0.12870  0.48660  1.0000 0.1193878503
H   H437      1.0  0.75460  0.98140  0.39970  1.0000 0.1193878503
H   H438      1.0  0.78080  0.10020  0.38640  1.0000 0.1109362458
H   H439      1.0  0.94440  0.33040  0.43970  1.0000 0.1109362458
H   H440      1.0  0.00010  0.30140  0.46930  1.0000 0.1109362458
H   H441      1.0  0.01680  0.55610  0.45120  1.0000 0.1109362458
H   H442      1.0  0.96140  0.58670  0.42300  1.0000 0.1109362458
H   H443      1.0  0.05460  0.31720  0.52630  1.0000 0.1109362458
H   H444      1.0  0.11120  0.29730  0.55570  1.0000 0.1193878503
H   H445      1.0  0.11320  0.46940  0.46750  1.0000 0.1193878503
H   H446      1.0  0.05730  0.49610  0.44100  1.0000 0.1193878503
H   H447      1.0  0.75515  0.82922  0.40990  1.0000 0.3552459172
H   H448      1.0  0.71990  0.30000  0.99892  1.0000 0.3768153443
C   C1        1.0  0.38530  0.04010  0.25848  1.0000 0.0798114568
C   C2        1.0  0.36780  0.97440  0.26757  1.0000 -0.1990956114
C   C3        1.0  0.38349  0.90120  0.29242  1.0000 0.0883245795
C   C4        1.0  0.41744  0.89380  0.30817  1.0000 -0.1990956114
C   C5        1.0  0.36812  0.11610  0.23004  1.0000 0.0625202466
C   C6        1.0  0.38294  0.19940  0.23702  1.0000 -0.1501094225
C   C7        1.0  0.36701  0.27030  0.20943  1.0000 -0.1501094225
C   C8        1.0  0.33604  0.26000  0.17446  1.0000 0.0698538284
C   C9        1.0  0.32115  0.17630  0.16691  1.0000 -0.1402155006
C   C10       1.0  0.33714  0.10610  0.19418  1.0000 -0.1321962655
C   C11       1.0  0.31818  0.33740  0.14731  1.0000 0.0798114568
C   C12       1.0  0.33439  0.40480  0.13735  1.0000 -0.1501094225
C   C13       1.0  0.31721  0.47830  0.11369  1.0000 -0.0903638115
C   C14       1.0  0.28360  0.48490  0.09907  1.0000 -0.0307184347
C   C15       1.0  0.26730  0.41790  0.10892  1.0000 -0.0903638115
C   C16       1.0  0.28453  0.34460  0.13260  1.0000 -0.1402155006
C   C17       1.0  0.26486  0.56330  0.07382  1.0000 0.5814973174
C   C18       1.0  0.36503  0.82870  0.30136  1.0000 0.0698538284
C   C19       1.0  0.33324  0.80650  0.27075  1.0000 -0.1321962655
C   C20       1.0  0.31740  0.73280  0.27748  1.0000 -0.1402155006
C   C21       1.0  0.33248  0.68100  0.31418  1.0000 0.0625202466
C   C22       1.0  0.36395  0.70610  0.34563  1.0000 -0.1501094225
C   C23       1.0  0.37970  0.77880  0.33899  1.0000 -0.1402155006
C   C24       1.0  0.31684  0.59980  0.32109  1.0000 0.0798114568
C   C25       1.0  0.28302  0.59070  0.30179  1.0000 -0.1583714565
C   C26       1.0  0.26866  0.51480  0.30851  1.0000 -0.0989425698
C   C27       1.0  0.28838  0.44590  0.33433  1.0000 -0.0406022347
C   C28       1.0  0.32199  0.45460  0.35275  1.0000 -0.0903638115
C   C29       1.0  0.33613  0.53000  0.34651  1.0000 -0.1501094225
C   C30       1.0  0.27362  0.36380  0.34260  1.0000 0.5749140374
C   C31       1.0  0.47161  0.94540  0.31516  1.0000 0.0698538284
C   C32       1.0  0.48936  0.88280  0.34427  1.0000 -0.1501094225
C   C33       1.0  0.52173  0.86540  0.35463  1.0000 -0.1501094225
C   C34       1.0  0.53779  0.91230  0.33610  1.0000 0.0698538284
C   C35       1.0  0.52150  0.98140  0.31177  1.0000 -0.1501094225
C   C36       1.0  0.48875  0.99840  0.30105  1.0000 -0.1583714565
C   C37       1.0  0.57213  0.88970  0.34491  1.0000 0.0883245795
C   C38       1.0  0.59394  0.85060  0.38316  1.0000 -0.1501094225
C   C39       1.0  0.62508  0.82800  0.39080  1.0000 -0.0903638115
C   C40       1.0  0.63555  0.84430  0.35962  1.0000 -0.0307184347
C   C41       1.0  0.61427  0.88650  0.32171  1.0000 -0.0989425698
C   C42       1.0  0.58279  0.90830  0.31414  1.0000 -0.1501094225
C   C43       1.0  0.66898  0.81510  0.36750  1.0000 0.5814973174
C   C44       1.0  0.43553  0.95840  0.30014  1.0000 0.0883245795
C   C45       1.0  0.41923  0.03150  0.27583  1.0000 -0.2115676933
C   C46       1.0  0.36407  0.93140  0.86010  1.0000 0.0883245795
C   C47       1.0  0.34406  0.98400  0.87095  1.0000 -0.1874177878
C   C48       1.0  0.35686  0.05340  0.90015  1.0000 0.0883245795
C   C49       1.0  0.39044  0.06890  0.91977  1.0000 -0.1990956114
C   C50       1.0  0.41109  0.01880  0.90857  1.0000 0.0883245795
C   C51       1.0  0.39722  0.95060  0.87846  1.0000 -0.1990956114
C   C52       1.0  0.35003  0.85420  0.83018  1.0000 0.0798114568
C   C53       1.0  0.36772  0.77540  0.83800  1.0000 -0.1402155006
C   C54       1.0  0.35462  0.70290  0.81155  1.0000 -0.1402155006
C   C55       1.0  0.32327  0.70570  0.77619  1.0000 0.0698538284
C   C56       1.0  0.30629  0.78550  0.76804  1.0000 -0.1321962655
C   C57       1.0  0.31931  0.85790  0.79459  1.0000 -0.1321962655
C   C58       1.0  0.30872  0.62590  0.74904  1.0000 0.0798114568
C   C59       1.0  0.32845  0.56160  0.74371  1.0000 -0.1402155006
C   C60       1.0  0.31528  0.48670  0.71969  1.0000 -0.0903638115
C   C61       1.0  0.28150  0.47320  0.69949  1.0000 -0.0406022347
C   C62       1.0  0.26160  0.53630  0.70431  1.0000 -0.0989425698
C   C63       1.0  0.27490  0.61190  0.72878  1.0000 -0.1501094225
C   C64       1.0  0.26741  0.39220  0.67265  1.0000 0.5814973174
C   C65       1.0  0.33484  0.11420  0.90868  1.0000 0.0698538284
C   C66       1.0  0.31204  0.16340  0.87383  1.0000 -0.1321962655
C   C67       1.0  0.29340  0.22670  0.88093  1.0000 -0.1402155006
C   C68       1.0  0.29629  0.24210  0.92217  1.0000 0.0625202466
C   C69       1.0  0.31805  0.18920  0.95616  1.0000 -0.1402155006
C   C70       1.0  0.33724  0.12710  0.94935  1.0000 -0.1321962655
C   C71       1.0  0.27737  0.31470  0.92929  1.0000 0.0798114568
C   C72       1.0  0.26470  0.30670  0.95900  1.0000 -0.1501094225
C   C73       1.0  0.24877  0.37750  0.96657  1.0000 -0.0989425698
C   C74       1.0  0.24545  0.45700  0.94524  1.0000 -0.0307184347
C   C75       1.0  0.25729  0.46460  0.91509  1.0000 -0.0989425698
C   C76       1.0  0.27293  0.39380  0.90731  1.0000 -0.1402155006
C   C77       1.0  0.23099  0.53560  0.95619  1.0000 0.5814973174
C   C78       1.0  0.44662  0.03940  0.92746  1.0000 0.0625202466
C   C79       1.0  0.45901  0.12290  0.94184  1.0000 -0.1501094225
C   C80       1.0  0.49228  0.14040  0.95930  1.0000 -0.1501094225
C   C81       1.0  0.51431  0.07520  0.96257  1.0000 0.0698538284
C   C82       1.0  0.50207  0.99030  0.94884  1.0000 -0.1402155006
C   C83       1.0  0.46901  0.97200  0.93179  1.0000 -0.1402155006
C   C84       1.0  0.55005  0.09300  0.98058  1.0000 0.0798114568
C   C85       1.0  0.56650  0.15090  0.01446  1.0000 -0.1583714565
C   C86       1.0  0.60020  0.16390  0.03171  1.0000 -0.0903638115
C   C87       1.0  0.61748  0.11990  0.01373  1.0000 -0.0406022347
C   C88       1.0  0.60134  0.06100  0.97981  1.0000 -0.0989425698
C   C89       1.0  0.56799  0.04600  0.96356  1.0000 -0.1501094225
C   C90       1.0  0.65317  0.13450  0.02963  1.0000 0.5914262525
C   C91       1.0  0.88530  0.54010  0.25848  1.0000 0.0798114568
C   C92       1.0  0.86780  0.47440  0.26757  1.0000 -0.1990956114
C   C93       1.0  0.88349  0.40120  0.29242  1.0000 0.0883245795
C   C94       1.0  0.91744  0.39380  0.30817  1.0000 -0.1990956114
C   C95       1.0  0.86812  0.61610  0.23004  1.0000 0.0625202466
C   C96       1.0  0.88294  0.69940  0.23702  1.0000 -0.1501094225
C   C97       1.0  0.86701  0.77030  0.20943  1.0000 -0.1501094225
C   C98       1.0  0.83604  0.76000  0.17446  1.0000 0.0698538284
C   C99       1.0  0.82115  0.67630  0.16691  1.0000 -0.1402155006
C   C100      1.0  0.83714  0.60610  0.19418  1.0000 -0.1321962655
C   C101      1.0  0.81818  0.83740  0.14731  1.0000 0.0798114568
C   C102      1.0  0.83439  0.90480  0.13735  1.0000 -0.1501094225
C   C103      1.0  0.81721  0.97830  0.11369  1.0000 -0.0903638115
C   C104      1.0  0.78360  0.98490  0.09907  1.0000 -0.0307184347
C   C105      1.0  0.76730  0.91790  0.10892  1.0000 -0.0903638115
C   C106      1.0  0.78453  0.84460  0.13260  1.0000 -0.1402155006
C   C107      1.0  0.76486  0.06330  0.07382  1.0000 0.5814973174
C   C108      1.0  0.86503  0.32870  0.30136  1.0000 0.0698538284
C   C109      1.0  0.83324  0.30650  0.27075  1.0000 -0.1321962655
C   C110      1.0  0.81740  0.23280  0.27748  1.0000 -0.1402155006
C   C111      1.0  0.83248  0.18100  0.31418  1.0000 0.0625202466
C   C112      1.0  0.86395  0.20610  0.34563  1.0000 -0.1501094225
C   C113      1.0  0.87970  0.27880  0.33899  1.0000 -0.1402155006
C   C114      1.0  0.81684  0.09980  0.32109  1.0000 0.0798114568
C   C115      1.0  0.78302  0.09070  0.30179  1.0000 -0.1583714565
C   C116      1.0  0.76866  0.01480  0.30851  1.0000 -0.0989425698
C   C117      1.0  0.78838  0.94590  0.33433  1.0000 -0.0406022347
C   C118      1.0  0.82199  0.95460  0.35275  1.0000 -0.0903638115
C   C119      1.0  0.83613  0.03000  0.34651  1.0000 -0.1501094225
C   C120      1.0  0.77362  0.86380  0.34260  1.0000 0.5749140374
C   C121      1.0  0.97161  0.44540  0.31516  1.0000 0.0698538284
C   C122      1.0  0.98936  0.38280  0.34427  1.0000 -0.1501094225
C   C123      1.0  0.02173  0.36540  0.35463  1.0000 -0.1501094225
C   C124      1.0  0.03779  0.41230  0.33610  1.0000 0.0698538284
C   C125      1.0  0.02150  0.48140  0.31177  1.0000 -0.1501094225
C   C126      1.0  0.98875  0.49840  0.30105  1.0000 -0.1583714565
C   C127      1.0  0.07213  0.38970  0.34491  1.0000 0.0883245795
C   C128      1.0  0.09394  0.35060  0.38316  1.0000 -0.1501094225
C   C129      1.0  0.12508  0.32800  0.39080  1.0000 -0.0903638115
C   C130      1.0  0.13555  0.34430  0.35962  1.0000 -0.0307184347
C   C131      1.0  0.11427  0.38650  0.32171  1.0000 -0.0989425698
C   C132      1.0  0.08279  0.40830  0.31414  1.0000 -0.1501094225
C   C133      1.0  0.16898  0.31510  0.36750  1.0000 0.5814973174
C   C134      1.0  0.93553  0.45840  0.30014  1.0000 0.0883245795
C   C135      1.0  0.91923  0.53150  0.27583  1.0000 -0.2115676933
C   C136      1.0  0.86407  0.43140  0.86010  1.0000 0.0883245795
C   C137      1.0  0.84406  0.48400  0.87095  1.0000 -0.1874177878
C   C138      1.0  0.85686  0.55340  0.90015  1.0000 0.0883245795
C   C139      1.0  0.89044  0.56890  0.91977  1.0000 -0.1990956114
C   C140      1.0  0.91109  0.51880  0.90857  1.0000 0.0883245795
C   C141      1.0  0.89722  0.45060  0.87846  1.0000 -0.1990956114
C   C142      1.0  0.85003  0.35420  0.83018  1.0000 0.0798114568
C   C143      1.0  0.86772  0.27540  0.83800  1.0000 -0.1402155006
C   C144      1.0  0.85462  0.20290  0.81155  1.0000 -0.1402155006
C   C145      1.0  0.82327  0.20570  0.77619  1.0000 0.0698538284
C   C146      1.0  0.80629  0.28550  0.76804  1.0000 -0.1321962655
C   C147      1.0  0.81931  0.35790  0.79459  1.0000 -0.1321962655
C   C148      1.0  0.80872  0.12590  0.74904  1.0000 0.0798114568
C   C149      1.0  0.82845  0.06160  0.74371  1.0000 -0.1402155006
C   C150      1.0  0.81528  0.98670  0.71969  1.0000 -0.0903638115
C   C151      1.0  0.78150  0.97320  0.69949  1.0000 -0.0406022347
C   C152      1.0  0.76160  0.03630  0.70431  1.0000 -0.0989425698
C   C153      1.0  0.77490  0.11190  0.72878  1.0000 -0.1501094225
C   C154      1.0  0.76741  0.89220  0.67265  1.0000 0.5814973174
C   C155      1.0  0.83484  0.61420  0.90868  1.0000 0.0698538284
C   C156      1.0  0.81204  0.66340  0.87383  1.0000 -0.1321962655
C   C157      1.0  0.79340  0.72670  0.88093  1.0000 -0.1402155006
C   C158      1.0  0.79629  0.74210  0.92217  1.0000 0.0625202466
C   C159      1.0  0.81805  0.68920  0.95616  1.0000 -0.1402155006
C   C160      1.0  0.83724  0.62710  0.94935  1.0000 -0.1321962655
C   C161      1.0  0.77737  0.81470  0.92929  1.0000 0.0798114568
C   C162      1.0  0.76470  0.80670  0.95900  1.0000 -0.1501094225
C   C163      1.0  0.74877  0.87750  0.96657  1.0000 -0.0989425698
C   C164      1.0  0.74545  0.95700  0.94524  1.0000 -0.0307184347
C   C165      1.0  0.75729  0.96460  0.91509  1.0000 -0.0989425698
C   C166      1.0  0.77293  0.89380  0.90731  1.0000 -0.1402155006
C   C167      1.0  0.73099  0.03560  0.95619  1.0000 0.5814973174
C   C168      1.0  0.94662  0.53940  0.92746  1.0000 0.0625202466
C   C169      1.0  0.95901  0.62290  0.94184  1.0000 -0.1501094225
C   C170      1.0  0.99228  0.64040  0.95930  1.0000 -0.1501094225
C   C171      1.0  0.01431  0.57520  0.96257  1.0000 0.0698538284
C   C172      1.0  0.00207  0.49030  0.94884  1.0000 -0.1402155006
C   C173      1.0  0.96901  0.47200  0.93179  1.0000 -0.1402155006
C   C174      1.0  0.05005  0.59300  0.98058  1.0000 0.0798114568
C   C175      1.0  0.06650  0.65090  0.01446  1.0000 -0.1583714565
C   C176      1.0  0.10020  0.66390  0.03171  1.0000 -0.0903638115
C   C177      1.0  0.11748  0.61990  0.01373  1.0000 -0.0406022347
C   C178      1.0  0.10134  0.56100  0.97981  1.0000 -0.0989425698
C   C179      1.0  0.06799  0.54600  0.96356  1.0000 -0.1501094225
C   C180      1.0  0.15317  0.63450  0.02963  1.0000 0.5914262525
C   C181      1.0  0.61470  0.04010  0.24152  1.0000 0.0798114568
C   C182      1.0  0.63220  0.97440  0.23243  1.0000 -0.1990956114
C   C183      1.0  0.61651  0.90120  0.20758  1.0000 0.0883245795
C   C184      1.0  0.58256  0.89380  0.19183  1.0000 -0.1990956114
C   C185      1.0  0.63188  0.11610  0.26996  1.0000 0.0625202466
C   C186      1.0  0.61706  0.19940  0.26298  1.0000 -0.1501094225
C   C187      1.0  0.63299  0.27030  0.29057  1.0000 -0.1501094225
C   C188      1.0  0.66396  0.26000  0.32554  1.0000 0.0698538284
C   C189      1.0  0.67885  0.17630  0.33309  1.0000 -0.1402155006
C   C190      1.0  0.66286  0.10610  0.30582  1.0000 -0.1321962655
C   C191      1.0  0.68182  0.33740  0.35269  1.0000 0.0798114568
C   C192      1.0  0.66561  0.40480  0.36265  1.0000 -0.1501094225
C   C193      1.0  0.68279  0.47830  0.38631  1.0000 -0.0903638115
C   C194      1.0  0.71640  0.48490  0.40093  1.0000 -0.0307184347
C   C195      1.0  0.73270  0.41790  0.39108  1.0000 -0.0903638115
C   C196      1.0  0.71547  0.34460  0.36740  1.0000 -0.1402155006
C   C197      1.0  0.73514  0.56330  0.42618  1.0000 0.5814973174
C   C198      1.0  0.63497  0.82870  0.19864  1.0000 0.0698538284
C   C199      1.0  0.66676  0.80650  0.22925  1.0000 -0.1321962655
C   C200      1.0  0.68260  0.73280  0.22252  1.0000 -0.1402155006
C   C201      1.0  0.66752  0.68100  0.18582  1.0000 0.0625202466
C   C202      1.0  0.63605  0.70610  0.15437  1.0000 -0.1501094225
C   C203      1.0  0.62030  0.77880  0.16101  1.0000 -0.1402155006
C   C204      1.0  0.68316  0.59980  0.17891  1.0000 0.0798114568
C   C205      1.0  0.71698  0.59070  0.19821  1.0000 -0.1583714565
C   C206      1.0  0.73134  0.51480  0.19149  1.0000 -0.0989425698
C   C207      1.0  0.71162  0.44590  0.16567  1.0000 -0.0406022347
C   C208      1.0  0.67801  0.45460  0.14725  1.0000 -0.0903638115
C   C209      1.0  0.66387  0.53000  0.15349  1.0000 -0.1501094225
C   C210      1.0  0.72638  0.36380  0.15740  1.0000 0.5749140374
C   C211      1.0  0.52839  0.94540  0.18484  1.0000 0.0698538284
C   C212      1.0  0.51064  0.88280  0.15573  1.0000 -0.1501094225
C   C213      1.0  0.47827  0.86540  0.14537  1.0000 -0.1501094225
C   C214      1.0  0.46221  0.91230  0.16390  1.0000 0.0698538284
C   C215      1.0  0.47850  0.98140  0.18823  1.0000 -0.1501094225
C   C216      1.0  0.51125  0.99840  0.19895  1.0000 -0.1583714565
C   C217      1.0  0.42787  0.88970  0.15509  1.0000 0.0883245795
C   C218      1.0  0.40606  0.85060  0.11684  1.0000 -0.1501094225
C   C219      1.0  0.37492  0.82800  0.10920  1.0000 -0.0903638115
C   C220      1.0  0.36445  0.84430  0.14038  1.0000 -0.0307184347
C   C221      1.0  0.38573  0.88650  0.17829  1.0000 -0.0989425698
C   C222      1.0  0.41721  0.90830  0.18586  1.0000 -0.1501094225
C   C223      1.0  0.33102  0.81510  0.13250  1.0000 0.5814973174
C   C224      1.0  0.56447  0.95840  0.19986  1.0000 0.0883245795
C   C225      1.0  0.58077  0.03150  0.22417  1.0000 -0.2115676933
C   C226      1.0  0.63593  0.93140  0.63990  1.0000 0.0883245795
C   C227      1.0  0.65594  0.98400  0.62905  1.0000 -0.1874177878
C   C228      1.0  0.64314  0.05340  0.59985  1.0000 0.0883245795
C   C229      1.0  0.60956  0.06890  0.58023  1.0000 -0.1990956114
C   C230      1.0  0.58891  0.01880  0.59143  1.0000 0.0883245795
C   C231      1.0  0.60278  0.95060  0.62154  1.0000 -0.1990956114
C   C232      1.0  0.64997  0.85420  0.66982  1.0000 0.0798114568
C   C233      1.0  0.63228  0.77540  0.66200  1.0000 -0.1402155006
C   C234      1.0  0.64538  0.70290  0.68845  1.0000 -0.1402155006
C   C235      1.0  0.67673  0.70570  0.72381  1.0000 0.0698538284
C   C236      1.0  0.69371  0.78550  0.73196  1.0000 -0.1321962655
C   C237      1.0  0.68069  0.85790  0.70541  1.0000 -0.1321962655
C   C238      1.0  0.69128  0.62590  0.75096  1.0000 0.0798114568
C   C239      1.0  0.67155  0.56160  0.75629  1.0000 -0.1402155006
C   C240      1.0  0.68472  0.48670  0.78031  1.0000 -0.0903638115
C   C241      1.0  0.71850  0.47320  0.80051  1.0000 -0.0406022347
C   C242      1.0  0.73840  0.53630  0.79569  1.0000 -0.0989425698
C   C243      1.0  0.72510  0.61190  0.77122  1.0000 -0.1501094225
C   C244      1.0  0.73259  0.39220  0.82735  1.0000 0.5814973174
C   C245      1.0  0.66516  0.11420  0.59132  1.0000 0.0698538284
C   C246      1.0  0.68796  0.16340  0.62617  1.0000 -0.1321962655
C   C247      1.0  0.70660  0.22670  0.61907  1.0000 -0.1402155006
C   C248      1.0  0.70371  0.24210  0.57783  1.0000 0.0625202466
C   C249      1.0  0.68195  0.18920  0.54384  1.0000 -0.1402155006
C   C250      1.0  0.66276  0.12710  0.55065  1.0000 -0.1321962655
C   C251      1.0  0.72263  0.31470  0.57071  1.0000 0.0798114568
C   C252      1.0  0.73530  0.30670  0.54100  1.0000 -0.1501094225
C   C253      1.0  0.75123  0.37750  0.53343  1.0000 -0.0989425698
C   C254      1.0  0.75455  0.45700  0.55476  1.0000 -0.0307184347
C   C255      1.0  0.74271  0.46460  0.58491  1.0000 -0.0989425698
C   C256      1.0  0.72707  0.39380  0.59269  1.0000 -0.1402155006
C   C257      1.0  0.76901  0.53560  0.54381  1.0000 0.5814973174
C   C258      1.0  0.55338  0.03940  0.57254  1.0000 0.0625202466
C   C259      1.0  0.54099  0.12290  0.55816  1.0000 -0.1501094225
C   C260      1.0  0.50772  0.14040  0.54070  1.0000 -0.1501094225
C   C261      1.0  0.48569  0.07520  0.53743  1.0000 0.0698538284
C   C262      1.0  0.49793  0.99030  0.55116  1.0000 -0.1402155006
C   C263      1.0  0.53099  0.97200  0.56821  1.0000 -0.1402155006
C   C264      1.0  0.44995  0.09300  0.51942  1.0000 0.0798114568
C   C265      1.0  0.43350  0.15090  0.48554  1.0000 -0.1583714565
C   C266      1.0  0.39980  0.16390  0.46829  1.0000 -0.0903638115
C   C267      1.0  0.38252  0.11990  0.48627  1.0000 -0.0406022347
C   C268      1.0  0.39866  0.06100  0.52019  1.0000 -0.0989425698
C   C269      1.0  0.43201  0.04600  0.53644  1.0000 -0.1501094225
C   C270      1.0  0.34683  0.13450  0.47037  1.0000 0.5914262525
C   C271      1.0  0.11470  0.54010  0.24152  1.0000 0.0798114568
C   C272      1.0  0.13220  0.47440  0.23243  1.0000 -0.1990956114
C   C273      1.0  0.11651  0.40120  0.20758  1.0000 0.0883245795
C   C274      1.0  0.08256  0.39380  0.19183  1.0000 -0.1990956114
C   C275      1.0  0.13188  0.61610  0.26996  1.0000 0.0625202466
C   C276      1.0  0.11706  0.69940  0.26298  1.0000 -0.1501094225
C   C277      1.0  0.13299  0.77030  0.29057  1.0000 -0.1501094225
C   C278      1.0  0.16396  0.76000  0.32554  1.0000 0.0698538284
C   C279      1.0  0.17885  0.67630  0.33309  1.0000 -0.1402155006
C   C280      1.0  0.16286  0.60610  0.30582  1.0000 -0.1321962655
C   C281      1.0  0.18182  0.83740  0.35269  1.0000 0.0798114568
C   C282      1.0  0.16561  0.90480  0.36265  1.0000 -0.1501094225
C   C283      1.0  0.18279  0.97830  0.38631  1.0000 -0.0903638115
C   C284      1.0  0.21640  0.98490  0.40093  1.0000 -0.0307184347
C   C285      1.0  0.23270  0.91790  0.39108  1.0000 -0.0903638115
C   C286      1.0  0.21547  0.84460  0.36740  1.0000 -0.1501094225
C   C287      1.0  0.23514  0.06330  0.42618  1.0000 0.5814973174
C   C288      1.0  0.13497  0.32870  0.19864  1.0000 0.0698538284
C   C289      1.0  0.16676  0.30650  0.22925  1.0000 -0.1321962655
C   C290      1.0  0.18260  0.23280  0.22252  1.0000 -0.1402155006
C   C291      1.0  0.16752  0.18100  0.18582  1.0000 0.0625202466
C   C292      1.0  0.13605  0.20610  0.15437  1.0000 -0.1501094225
C   C293      1.0  0.12030  0.27880  0.16101  1.0000 -0.1402155006
C   C294      1.0  0.18316  0.09980  0.17891  1.0000 0.0798114568
C   C295      1.0  0.21698  0.09070  0.19821  1.0000 -0.1583714565
C   C296      1.0  0.23134  0.01480  0.19149  1.0000 -0.0989425698
C   C297      1.0  0.21162  0.94590  0.16567  1.0000 -0.0406022347
C   C298      1.0  0.17801  0.95460  0.14725  1.0000 -0.0903638115
C   C299      1.0  0.16387  0.03000  0.15349  1.0000 -0.1501094225
C   C300      1.0  0.22638  0.86380  0.15740  1.0000 0.5814973174
C   C301      1.0  0.02839  0.44540  0.18484  1.0000 0.0698538284
C   C302      1.0  0.01064  0.38280  0.15573  1.0000 -0.1501094225
C   C303      1.0  0.97827  0.36540  0.14537  1.0000 -0.1501094225
C   C304      1.0  0.96221  0.41230  0.16390  1.0000 0.0698538284
C   C305      1.0  0.97850  0.48140  0.18823  1.0000 -0.1501094225
C   C306      1.0  0.01125  0.49840  0.19895  1.0000 -0.1583714565
C   C307      1.0  0.92787  0.38970  0.15509  1.0000 0.0883245795
C   C308      1.0  0.90606  0.35060  0.11684  1.0000 -0.1501094225
C   C309      1.0  0.87492  0.32800  0.10920  1.0000 -0.0903638115
C   C310      1.0  0.86445  0.34430  0.14038  1.0000 -0.0307184347
C   C311      1.0  0.88573  0.38650  0.17829  1.0000 -0.0989425698
C   C312      1.0  0.91721  0.40830  0.18586  1.0000 -0.1501094225
C   C313      1.0  0.83102  0.31510  0.13250  1.0000 0.5814973174
C   C314      1.0  0.06447  0.45840  0.19986  1.0000 0.0883245795
C   C315      1.0  0.08077  0.53150  0.22417  1.0000 -0.2115676933
C   C316      1.0  0.13593  0.43140  0.63990  1.0000 0.0883245795
C   C317      1.0  0.15594  0.48400  0.62905  1.0000 -0.1874177878
C   C318      1.0  0.14314  0.55340  0.59985  1.0000 0.0883245795
C   C319      1.0  0.10956  0.56890  0.58023  1.0000 -0.1990956114
C   C320      1.0  0.08891  0.51880  0.59143  1.0000 0.0883245795
C   C321      1.0  0.10278  0.45060  0.62154  1.0000 -0.1990956114
C   C322      1.0  0.14997  0.35420  0.66982  1.0000 0.0798114568
C   C323      1.0  0.13228  0.27540  0.66200  1.0000 -0.1402155006
C   C324      1.0  0.14538  0.20290  0.68845  1.0000 -0.1402155006
C   C325      1.0  0.17673  0.20570  0.72381  1.0000 0.0698538284
C   C326      1.0  0.19371  0.28550  0.73196  1.0000 -0.1321962655
C   C327      1.0  0.18069  0.35790  0.70541  1.0000 -0.1321962655
C   C328      1.0  0.19128  0.12590  0.75096  1.0000 0.0798114568
C   C329      1.0  0.17155  0.06160  0.75629  1.0000 -0.1402155006
C   C330      1.0  0.18472  0.98670  0.78031  1.0000 -0.0903638115
C   C331      1.0  0.21850  0.97320  0.80051  1.0000 -0.0406022347
C   C332      1.0  0.23840  0.03630  0.79569  1.0000 -0.0989425698
C   C333      1.0  0.22510  0.11190  0.77122  1.0000 -0.1501094225
C   C334      1.0  0.23259  0.89220  0.82735  1.0000 0.5814973174
C   C335      1.0  0.16516  0.61420  0.59132  1.0000 0.0698538284
C   C336      1.0  0.18796  0.66340  0.62617  1.0000 -0.1321962655
C   C337      1.0  0.20660  0.72670  0.61907  1.0000 -0.1402155006
C   C338      1.0  0.20371  0.74210  0.57783  1.0000 0.0625202466
C   C339      1.0  0.18195  0.68920  0.54384  1.0000 -0.1402155006
C   C340      1.0  0.16276  0.62710  0.55065  1.0000 -0.1321962655
C   C341      1.0  0.22263  0.81470  0.57071  1.0000 0.0798114568
C   C342      1.0  0.23530  0.80670  0.54100  1.0000 -0.1501094225
C   C343      1.0  0.25123  0.87750  0.53343  1.0000 -0.0989425698
C   C344      1.0  0.25455  0.95700  0.55476  1.0000 -0.0307184347
C   C345      1.0  0.24271  0.96460  0.58491  1.0000 -0.0989425698
C   C346      1.0  0.22707  0.89380  0.59269  1.0000 -0.1402155006
C   C347      1.0  0.26901  0.03560  0.54381  1.0000 0.5814973174
C   C348      1.0  0.05338  0.53940  0.57254  1.0000 0.0625202466
C   C349      1.0  0.04099  0.62290  0.55816  1.0000 -0.1501094225
C   C350      1.0  0.00772  0.64040  0.54070  1.0000 -0.1501094225
C   C351      1.0  0.98569  0.57520  0.53743  1.0000 0.0698538284
C   C352      1.0  0.99793  0.49030  0.55116  1.0000 -0.1402155006
C   C353      1.0  0.03099  0.47200  0.56821  1.0000 -0.1402155006
C   C354      1.0  0.94995  0.59300  0.51942  1.0000 0.0798114568
C   C355      1.0  0.93350  0.65090  0.48554  1.0000 -0.1583714565
C   C356      1.0  0.89980  0.66390  0.46829  1.0000 -0.0903638115
C   C357      1.0  0.88252  0.61990  0.48627  1.0000 -0.0406022347
C   C358      1.0  0.89866  0.56100  0.52019  1.0000 -0.0989425698
C   C359      1.0  0.93201  0.54600  0.53644  1.0000 -0.1501094225
C   C360      1.0  0.84683  0.63450  0.47037  1.0000 0.5914262525
C   C361      1.0  0.61470  0.95990  0.74152  1.0000 0.0798114568
C   C362      1.0  0.63220  0.02560  0.73243  1.0000 -0.1990956114
C   C363      1.0  0.61651  0.09880  0.70758  1.0000 0.0883245795
C   C364      1.0  0.58256  0.10620  0.69183  1.0000 -0.1990956114
C   C365      1.0  0.63188  0.88390  0.76996  1.0000 0.0625202466
C   C366      1.0  0.61706  0.80060  0.76298  1.0000 -0.1501094225
C   C367      1.0  0.63299  0.72970  0.79057  1.0000 -0.1501094225
C   C368      1.0  0.66396  0.74000  0.82554  1.0000 0.0698538284
C   C369      1.0  0.67885  0.82370  0.83309  1.0000 -0.1402155006
C   C370      1.0  0.66286  0.89390  0.80582  1.0000 -0.1321962655
C   C371      1.0  0.68182  0.66260  0.85269  1.0000 0.0798114568
C   C372      1.0  0.66561  0.59520  0.86265  1.0000 -0.1501094225
C   C373      1.0  0.68279  0.52170  0.88631  1.0000 -0.0903638115
C   C374      1.0  0.71640  0.51510  0.90093  1.0000 -0.0307184347
C   C375      1.0  0.73270  0.58210  0.89108  1.0000 -0.0903638115
C   C376      1.0  0.71547  0.65540  0.86740  1.0000 -0.1402155006
C   C377      1.0  0.73514  0.43670  0.92618  1.0000 0.5814973174
C   C378      1.0  0.63497  0.17130  0.69864  1.0000 0.0698538284
C   C379      1.0  0.66676  0.19350  0.72925  1.0000 -0.1321962655
C   C380      1.0  0.68260  0.26720  0.72252  1.0000 -0.1402155006
C   C381      1.0  0.66752  0.31900  0.68582  1.0000 0.0625202466
C   C382      1.0  0.63605  0.29390  0.65437  1.0000 -0.1501094225
C   C383      1.0  0.62030  0.22120  0.66101  1.0000 -0.1402155006
C   C384      1.0  0.68316  0.40020  0.67891  1.0000 0.0798114568
C   C385      1.0  0.71698  0.40930  0.69821  1.0000 -0.1583714565
C   C386      1.0  0.73134  0.48520  0.69149  1.0000 -0.0989425698
C   C387      1.0  0.71162  0.55410  0.66567  1.0000 -0.0406022347
C   C388      1.0  0.67801  0.54540  0.64725  1.0000 -0.0903638115
C   C389      1.0  0.66387  0.47000  0.65349  1.0000 -0.1501094225
C   C390      1.0  0.72638  0.63620  0.65740  1.0000 0.5814973174
C   C391      1.0  0.52839  0.05460  0.68484  1.0000 0.0698538284
C   C392      1.0  0.51064  0.11720  0.65573  1.0000 -0.1501094225
C   C393      1.0  0.47827  0.13460  0.64537  1.0000 -0.1501094225
C   C394      1.0  0.46221  0.08770  0.66390  1.0000 0.0698538284
C   C395      1.0  0.47850  0.01860  0.68823  1.0000 -0.1501094225
C   C396      1.0  0.51125  0.00160  0.69895  1.0000 -0.1583714565
C   C397      1.0  0.42787  0.11030  0.65509  1.0000 0.0883245795
C   C398      1.0  0.40606  0.14940  0.61684  1.0000 -0.1501094225
C   C399      1.0  0.37492  0.17200  0.60920  1.0000 -0.0903638115
C   C400      1.0  0.36445  0.15570  0.64038  1.0000 -0.0307184347
C   C401      1.0  0.38573  0.11350  0.67829  1.0000 -0.0989425698
C   C402      1.0  0.41721  0.09170  0.68586  1.0000 -0.1501094225
C   C403      1.0  0.33102  0.18490  0.63250  1.0000 0.5814973174
C   C404      1.0  0.56447  0.04160  0.69986  1.0000 0.0883245795
C   C405      1.0  0.58077  0.96850  0.72417  1.0000 -0.2115676933
C   C406      1.0  0.63593  0.06860  0.13990  1.0000 0.0883245795
C   C407      1.0  0.65594  0.01600  0.12905  1.0000 -0.1874177878
C   C408      1.0  0.64314  0.94660  0.09985  1.0000 0.0883245795
C   C409      1.0  0.60956  0.93110  0.08023  1.0000 -0.1990956114
C   C410      1.0  0.58891  0.98120  0.09143  1.0000 0.0883245795
C   C411      1.0  0.60278  0.04940  0.12154  1.0000 -0.1990956114
C   C412      1.0  0.64997  0.14580  0.16982  1.0000 0.0798114568
C   C413      1.0  0.63228  0.22460  0.16200  1.0000 -0.1402155006
C   C414      1.0  0.64538  0.29710  0.18845  1.0000 -0.1402155006
C   C415      1.0  0.67673  0.29430  0.22381  1.0000 0.0698538284
C   C416      1.0  0.69371  0.21450  0.23196  1.0000 -0.1321962655
C   C417      1.0  0.68069  0.14210  0.20541  1.0000 -0.1321962655
C   C418      1.0  0.69128  0.37410  0.25096  1.0000 0.0798114568
C   C419      1.0  0.67155  0.43840  0.25629  1.0000 -0.1402155006
C   C420      1.0  0.68472  0.51330  0.28031  1.0000 -0.0903638115
C   C421      1.0  0.71850  0.52680  0.30051  1.0000 -0.0406022347
C   C422      1.0  0.73840  0.46370  0.29569  1.0000 -0.0989425698
C   C423      1.0  0.72510  0.38810  0.27122  1.0000 -0.1501094225
C   C424      1.0  0.73259  0.60780  0.32735  1.0000 0.5814973174
C   C425      1.0  0.66516  0.88580  0.09132  1.0000 0.0698538284
C   C426      1.0  0.68796  0.83660  0.12617  1.0000 -0.1321962655
C   C427      1.0  0.70660  0.77330  0.11907  1.0000 -0.1402155006
C   C428      1.0  0.70371  0.75790  0.07783  1.0000 0.0625202466
C   C429      1.0  0.68195  0.81080  0.04384  1.0000 -0.1402155006
C   C430      1.0  0.66276  0.87290  0.05065  1.0000 -0.1321962655
C   C431      1.0  0.72263  0.68530  0.07071  1.0000 0.0798114568
C   C432      1.0  0.73530  0.69330  0.04100  1.0000 -0.1501094225
C   C433      1.0  0.75123  0.62250  0.03343  1.0000 -0.0989425698
C   C434      1.0  0.75455  0.54300  0.05476  1.0000 -0.0307184347
C   C435      1.0  0.74271  0.53540  0.08491  1.0000 -0.0989425698
C   C436      1.0  0.72707  0.60620  0.09269  1.0000 -0.1402155006
C   C437      1.0  0.76901  0.46440  0.04381  1.0000 0.5814973174
C   C438      1.0  0.55338  0.96060  0.07254  1.0000 0.0625202466
C   C439      1.0  0.54099  0.87710  0.05816  1.0000 -0.1501094225
C   C440      1.0  0.50772  0.85960  0.04070  1.0000 -0.1501094225
C   C441      1.0  0.48569  0.92480  0.03743  1.0000 0.0698538284
C   C442      1.0  0.49793  0.00970  0.05116  1.0000 -0.1402155006
C   C443      1.0  0.53099  0.02800  0.06821  1.0000 -0.1402155006
C   C444      1.0  0.44995  0.90700  0.01942  1.0000 0.0798114568
C   C445      1.0  0.43350  0.84910  0.98554  1.0000 -0.1583714565
C   C446      1.0  0.39980  0.83610  0.96829  1.0000 -0.0903638115
C   C447      1.0  0.38252  0.88010  0.98627  1.0000 -0.0406022347
C   C448      1.0  0.39866  0.93900  0.02019  1.0000 -0.0989425698
C   C449      1.0  0.43201  0.95400  0.03644  1.0000 -0.1501094225
C   C450      1.0  0.34683  0.86550  0.97037  1.0000 0.5914262525
C   C451      1.0  0.11470  0.45990  0.74152  1.0000 0.0798114568
C   C452      1.0  0.13220  0.52560  0.73243  1.0000 -0.1990956114
C   C453      1.0  0.11651  0.59880  0.70758  1.0000 0.0883245795
C   C454      1.0  0.08256  0.60620  0.69183  1.0000 -0.1990956114
C   C455      1.0  0.13188  0.38390  0.76996  1.0000 0.0625202466
C   C456      1.0  0.11706  0.30060  0.76298  1.0000 -0.1501094225
C   C457      1.0  0.13299  0.22970  0.79057  1.0000 -0.1501094225
C   C458      1.0  0.16396  0.24000  0.82554  1.0000 0.0698538284
C   C459      1.0  0.17885  0.32370  0.83309  1.0000 -0.1402155006
C   C460      1.0  0.16286  0.39390  0.80582  1.0000 -0.1321962655
C   C461      1.0  0.18182  0.16260  0.85269  1.0000 0.0798114568
C   C462      1.0  0.16561  0.09520  0.86265  1.0000 -0.1501094225
C   C463      1.0  0.18279  0.02170  0.88631  1.0000 -0.0903638115
C   C464      1.0  0.21640  0.01510  0.90093  1.0000 -0.0307184347
C   C465      1.0  0.23270  0.08210  0.89108  1.0000 -0.0903638115
C   C466      1.0  0.21547  0.15540  0.86740  1.0000 -0.1402155006
C   C467      1.0  0.23514  0.93670  0.92618  1.0000 0.5814973174
C   C468      1.0  0.13497  0.67130  0.69864  1.0000 0.0698538284
C   C469      1.0  0.16676  0.69350  0.72925  1.0000 -0.1321962655
C   C470      1.0  0.18260  0.76720  0.72252  1.0000 -0.1402155006
C   C471      1.0  0.16752  0.81900  0.68582  1.0000 0.0625202466
C   C472      1.0  0.13605  0.79390  0.65437  1.0000 -0.1501094225
C   C473      1.0  0.12030  0.72120  0.66101  1.0000 -0.1402155006
C   C474      1.0  0.18316  0.90020  0.67891  1.0000 0.0798114568
C   C475      1.0  0.21698  0.90930  0.69821  1.0000 -0.1583714565
C   C476      1.0  0.23134  0.98520  0.69149  1.0000 -0.0989425698
C   C477      1.0  0.21162  0.05410  0.66567  1.0000 -0.0406022347
C   C478      1.0  0.17801  0.04540  0.64725  1.0000 -0.0903638115
C   C479      1.0  0.16387  0.97000  0.65349  1.0000 -0.1501094225
C   C480      1.0  0.22638  0.13620  0.65740  1.0000 0.5814973174
C   C481      1.0  0.02839  0.55460  0.68484  1.0000 0.0698538284
C   C482      1.0  0.01064  0.61720  0.65573  1.0000 -0.1501094225
C   C483      1.0  0.97827  0.63460  0.64537  1.0000 -0.1583714565
C   C484      1.0  0.96221  0.58770  0.66390  1.0000 0.0698538284
C   C485      1.0  0.97850  0.51860  0.68823  1.0000 -0.1501094225
C   C486      1.0  0.01125  0.50160  0.69895  1.0000 -0.1583714565
C   C487      1.0  0.92787  0.61030  0.65509  1.0000 0.0883245795
C   C488      1.0  0.90606  0.64940  0.61684  1.0000 -0.1501094225
C   C489      1.0  0.87492  0.67200  0.60920  1.0000 -0.0903638115
C   C490      1.0  0.86445  0.65570  0.64038  1.0000 -0.0307184347
C   C491      1.0  0.88573  0.61350  0.67829  1.0000 -0.0989425698
C   C492      1.0  0.91721  0.59170  0.68586  1.0000 -0.1501094225
C   C493      1.0  0.83102  0.68490  0.63250  1.0000 0.5814973174
C   C494      1.0  0.06447  0.54160  0.69986  1.0000 0.0883245795
C   C495      1.0  0.08077  0.46850  0.72417  1.0000 -0.2115676933
C   C496      1.0  0.13593  0.56860  0.13990  1.0000 0.0883245795
C   C497      1.0  0.15594  0.51600  0.12905  1.0000 -0.1874177878
C   C498      1.0  0.14314  0.44660  0.09985  1.0000 0.0883245795
C   C499      1.0  0.10956  0.43110  0.08023  1.0000 -0.1990956114
C   C500      1.0  0.08891  0.48120  0.09143  1.0000 0.0883245795
C   C501      1.0  0.10278  0.54940  0.12154  1.0000 -0.1874177878
C   C502      1.0  0.14997  0.64580  0.16982  1.0000 0.0798114568
C   C503      1.0  0.13228  0.72460  0.16200  1.0000 -0.1402155006
C   C504      1.0  0.14538  0.79710  0.18845  1.0000 -0.1402155006
C   C505      1.0  0.17673  0.79430  0.22381  1.0000 0.0698538284
C   C506      1.0  0.19371  0.71450  0.23196  1.0000 -0.1321962655
C   C507      1.0  0.18069  0.64210  0.20541  1.0000 -0.1321962655
C   C508      1.0  0.19128  0.87410  0.25096  1.0000 0.0798114568
C   C509      1.0  0.17155  0.93840  0.25629  1.0000 -0.1402155006
C   C510      1.0  0.18472  0.01330  0.28031  1.0000 -0.0903638115
C   C511      1.0  0.21850  0.02680  0.30051  1.0000 -0.0406022347
C   C512      1.0  0.23840  0.96370  0.29569  1.0000 -0.0989425698
C   C513      1.0  0.22510  0.88810  0.27122  1.0000 -0.1501094225
C   C514      1.0  0.23259  0.10780  0.32735  1.0000 0.5814973174
C   C515      1.0  0.16516  0.38580  0.09132  1.0000 0.0698538284
C   C516      1.0  0.18796  0.33660  0.12617  1.0000 -0.1321962655
C   C517      1.0  0.20660  0.27330  0.11907  1.0000 -0.1402155006
C   C518      1.0  0.20371  0.25790  0.07783  1.0000 0.0625202466
C   C519      1.0  0.18195  0.31080  0.04384  1.0000 -0.1402155006
C   C520      1.0  0.16276  0.37290  0.05065  1.0000 -0.1321962655
C   C521      1.0  0.22263  0.18530  0.07071  1.0000 0.0798114568
C   C522      1.0  0.23530  0.19330  0.04100  1.0000 -0.1501094225
C   C523      1.0  0.25123  0.12250  0.03343  1.0000 -0.0989425698
C   C524      1.0  0.25455  0.04300  0.05476  1.0000 -0.0307184347
C   C525      1.0  0.24271  0.03540  0.08491  1.0000 -0.0989425698
C   C526      1.0  0.22707  0.10620  0.09269  1.0000 -0.1402155006
C   C527      1.0  0.26901  0.96440  0.04381  1.0000 0.5814973174
C   C528      1.0  0.05338  0.46060  0.07254  1.0000 0.0625202466
C   C529      1.0  0.04099  0.37710  0.05816  1.0000 -0.1501094225
C   C530      1.0  0.00772  0.35960  0.04070  1.0000 -0.1501094225
C   C531      1.0  0.98569  0.42480  0.03743  1.0000 0.0698538284
C   C532      1.0  0.99793  0.50970  0.05116  1.0000 -0.1402155006
C   C533      1.0  0.03099  0.52800  0.06821  1.0000 -0.1402155006
C   C534      1.0  0.94995  0.40700  0.01942  1.0000 0.0798114568
C   C535      1.0  0.93350  0.34910  0.98554  1.0000 -0.1583714565
C   C536      1.0  0.89980  0.33610  0.96829  1.0000 -0.0903638115
C   C537      1.0  0.88252  0.38010  0.98627  1.0000 -0.0406022347
C   C538      1.0  0.89866  0.43900  0.02019  1.0000 -0.0989425698
C   C539      1.0  0.93201  0.45400  0.03644  1.0000 -0.1501094225
C   C540      1.0  0.84683  0.36550  0.97037  1.0000 0.5914262525
C   C541      1.0  0.38530  0.95990  0.75848  1.0000 0.0798114568
C   C542      1.0  0.36780  0.02560  0.76757  1.0000 -0.1990956114
C   C543      1.0  0.38349  0.09880  0.79242  1.0000 0.0883245795
C   C544      1.0  0.41744  0.10620  0.80817  1.0000 -0.1990956114
C   C545      1.0  0.36812  0.88390  0.73004  1.0000 0.0625202466
C   C546      1.0  0.38294  0.80060  0.73702  1.0000 -0.1501094225
C   C547      1.0  0.36701  0.72970  0.70943  1.0000 -0.1501094225
C   C548      1.0  0.33604  0.74000  0.67446  1.0000 0.0698538284
C   C549      1.0  0.32115  0.82370  0.66691  1.0000 -0.1402155006
C   C550      1.0  0.33714  0.89390  0.69418  1.0000 -0.1321962655
C   C551      1.0  0.31818  0.66260  0.64731  1.0000 0.0798114568
C   C552      1.0  0.33439  0.59520  0.63735  1.0000 -0.1501094225
C   C553      1.0  0.31721  0.52170  0.61369  1.0000 -0.0903638115
C   C554      1.0  0.28360  0.51510  0.59907  1.0000 -0.0307184347
C   C555      1.0  0.26730  0.58210  0.60892  1.0000 -0.0903638115
C   C556      1.0  0.28453  0.65540  0.63260  1.0000 -0.1402155006
C   C557      1.0  0.26486  0.43670  0.57382  1.0000 0.5814973174
C   C558      1.0  0.36503  0.17130  0.80136  1.0000 0.0698538284
C   C559      1.0  0.33324  0.19350  0.77075  1.0000 -0.1321962655
C   C560      1.0  0.31740  0.26720  0.77748  1.0000 -0.1402155006
C   C561      1.0  0.33248  0.31900  0.81418  1.0000 0.0625202466
C   C562      1.0  0.36395  0.29390  0.84563  1.0000 -0.1501094225
C   C563      1.0  0.37970  0.22120  0.83899  1.0000 -0.1402155006
C   C564      1.0  0.31684  0.40020  0.82109  1.0000 0.0798114568
C   C565      1.0  0.28302  0.40930  0.80179  1.0000 -0.1583714565
C   C566      1.0  0.26866  0.48520  0.80851  1.0000 -0.0989425698
C   C567      1.0  0.28838  0.55410  0.83433  1.0000 -0.0406022347
C   C568      1.0  0.32199  0.54540  0.85275  1.0000 -0.0903638115
C   C569      1.0  0.33613  0.47000  0.84651  1.0000 -0.1501094225
C   C570      1.0  0.27362  0.63620  0.84260  1.0000 0.5814973174
C   C571      1.0  0.47161  0.05460  0.81516  1.0000 0.0698538284
C   C572      1.0  0.48936  0.11720  0.84427  1.0000 -0.1501094225
C   C573      1.0  0.52173  0.13460  0.85463  1.0000 -0.1583714565
C   C574      1.0  0.53779  0.08770  0.83610  1.0000 0.0698538284
C   C575      1.0  0.52150  0.01860  0.81177  1.0000 -0.1501094225
C   C576      1.0  0.48875  0.00160  0.80105  1.0000 -0.1583714565
C   C577      1.0  0.57213  0.11030  0.84491  1.0000 0.0798114568
C   C578      1.0  0.59394  0.14940  0.88316  1.0000 -0.1501094225
C   C579      1.0  0.62508  0.17200  0.89080  1.0000 -0.0903638115
C   C580      1.0  0.63555  0.15570  0.85962  1.0000 -0.0307184347
C   C581      1.0  0.61427  0.11350  0.82171  1.0000 -0.0989425698
C   C582      1.0  0.58279  0.09170  0.81414  1.0000 -0.1501094225
C   C583      1.0  0.66898  0.18490  0.86750  1.0000 0.5814973174
C   C584      1.0  0.43553  0.04160  0.80014  1.0000 0.0883245795
C   C585      1.0  0.41923  0.96850  0.77583  1.0000 -0.2115676933
C   C586      1.0  0.36407  0.06860  0.36010  1.0000 0.0883245795
C   C587      1.0  0.34406  0.01600  0.37095  1.0000 -0.1874177878
C   C588      1.0  0.35686  0.94660  0.40015  1.0000 0.0883245795
C   C589      1.0  0.39044  0.93110  0.41977  1.0000 -0.1990956114
C   C590      1.0  0.41109  0.98120  0.40857  1.0000 0.0883245795
C   C591      1.0  0.39722  0.04940  0.37846  1.0000 -0.1990956114
C   C592      1.0  0.35003  0.14580  0.33018  1.0000 0.0798114568
C   C593      1.0  0.36772  0.22460  0.33800  1.0000 -0.1402155006
C   C594      1.0  0.35462  0.29710  0.31155  1.0000 -0.1402155006
C   C595      1.0  0.32327  0.29430  0.27619  1.0000 0.0698538284
C   C596      1.0  0.30629  0.21450  0.26804  1.0000 -0.1321962655
C   C597      1.0  0.31931  0.14210  0.29459  1.0000 -0.1321962655
C   C598      1.0  0.30872  0.37410  0.24904  1.0000 0.0798114568
C   C599      1.0  0.32845  0.43840  0.24371  1.0000 -0.1402155006
C   C600      1.0  0.31528  0.51330  0.21969  1.0000 -0.0903638115
C   C601      1.0  0.28150  0.52680  0.19949  1.0000 -0.0406022347
C   C602      1.0  0.26160  0.46370  0.20431  1.0000 -0.0989425698
C   C603      1.0  0.27490  0.38810  0.22878  1.0000 -0.1501094225
C   C604      1.0  0.26741  0.60780  0.17265  1.0000 0.5814973174
C   C605      1.0  0.33484  0.88580  0.40868  1.0000 0.0698538284
C   C606      1.0  0.31204  0.83660  0.37383  1.0000 -0.1321962655
C   C607      1.0  0.29340  0.77330  0.38093  1.0000 -0.1402155006
C   C608      1.0  0.29629  0.75790  0.42217  1.0000 0.0625202466
C   C609      1.0  0.31805  0.81080  0.45616  1.0000 -0.1402155006
C   C610      1.0  0.33724  0.87290  0.44935  1.0000 -0.1321962655
C   C611      1.0  0.27737  0.68530  0.42929  1.0000 0.0798114568
C   C612      1.0  0.26470  0.69330  0.45900  1.0000 -0.1501094225
C   C613      1.0  0.24877  0.62250  0.46657  1.0000 -0.0989425698
C   C614      1.0  0.24545  0.54300  0.44524  1.0000 -0.0307184347
C   C615      1.0  0.25729  0.53540  0.41509  1.0000 -0.0989425698
C   C616      1.0  0.27293  0.60620  0.40731  1.0000 -0.1402155006
C   C617      1.0  0.23099  0.46440  0.45619  1.0000 0.5814973174
C   C618      1.0  0.44662  0.96060  0.42746  1.0000 0.0625202466
C   C619      1.0  0.45901  0.87710  0.44184  1.0000 -0.1501094225
C   C620      1.0  0.49228  0.85960  0.45930  1.0000 -0.1501094225
C   C621      1.0  0.51431  0.92480  0.46257  1.0000 0.0698538284
C   C622      1.0  0.50207  0.00970  0.44884  1.0000 -0.1402155006
C   C623      1.0  0.46901  0.02800  0.43179  1.0000 -0.1402155006
C   C624      1.0  0.55005  0.90700  0.48058  1.0000 0.0798114568
C   C625      1.0  0.56650  0.84910  0.51446  1.0000 -0.1583714565
C   C626      1.0  0.60020  0.83610  0.53171  1.0000 -0.0903638115
C   C627      1.0  0.61748  0.88010  0.51373  1.0000 -0.0406022347
C   C628      1.0  0.60134  0.93900  0.47981  1.0000 -0.0989425698
C   C629      1.0  0.56799  0.95400  0.46356  1.0000 -0.1501094225
C   C630      1.0  0.65317  0.86550  0.52963  1.0000 0.5914262525
C   C631      1.0  0.88530  0.45990  0.75848  1.0000 0.0798114568
C   C632      1.0  0.86780  0.52560  0.76757  1.0000 -0.1990956114
C   C633      1.0  0.88349  0.59880  0.79242  1.0000 0.0883245795
C   C634      1.0  0.91744  0.60620  0.80817  1.0000 -0.1990956114
C   C635      1.0  0.86812  0.38390  0.73004  1.0000 0.0625202466
C   C636      1.0  0.88294  0.30060  0.73702  1.0000 -0.1501094225
C   C637      1.0  0.86701  0.22970  0.70943  1.0000 -0.1501094225
C   C638      1.0  0.83604  0.24000  0.67446  1.0000 0.0698538284
C   C639      1.0  0.82115  0.32370  0.66691  1.0000 -0.1402155006
C   C640      1.0  0.83714  0.39390  0.69418  1.0000 -0.1321962655
C   C641      1.0  0.81818  0.16260  0.64731  1.0000 0.0798114568
C   C642      1.0  0.83439  0.09520  0.63735  1.0000 -0.1501094225
C   C643      1.0  0.81721  0.02170  0.61369  1.0000 -0.0903638115
C   C644      1.0  0.78360  0.01510  0.59907  1.0000 -0.0307184347
C   C645      1.0  0.76730  0.08210  0.60892  1.0000 -0.0903638115
C   C646      1.0  0.78453  0.15540  0.63260  1.0000 -0.1501094225
C   C647      1.0  0.76486  0.93670  0.57382  1.0000 0.5814973174
C   C648      1.0  0.86503  0.67130  0.80136  1.0000 0.0698538284
C   C649      1.0  0.83324  0.69350  0.77075  1.0000 -0.1321962655
C   C650      1.0  0.81740  0.76720  0.77748  1.0000 -0.1402155006
C   C651      1.0  0.83248  0.81900  0.81418  1.0000 0.0625202466
C   C652      1.0  0.86395  0.79390  0.84563  1.0000 -0.1501094225
C   C653      1.0  0.87970  0.72120  0.83899  1.0000 -0.1402155006
C   C654      1.0  0.81684  0.90020  0.82109  1.0000 0.0798114568
C   C655      1.0  0.78302  0.90930  0.80179  1.0000 -0.1583714565
C   C656      1.0  0.76866  0.98520  0.80851  1.0000 -0.0989425698
C   C657      1.0  0.78838  0.05410  0.83433  1.0000 -0.0406022347
C   C658      1.0  0.82199  0.04540  0.85275  1.0000 -0.0903638115
C   C659      1.0  0.83613  0.97000  0.84651  1.0000 -0.1501094225
C   C660      1.0  0.77362  0.13620  0.84260  1.0000 0.5749140374
C   C661      1.0  0.97161  0.55460  0.81516  1.0000 0.0698538284
C   C662      1.0  0.98936  0.61720  0.84427  1.0000 -0.1501094225
C   C663      1.0  0.02173  0.63460  0.85463  1.0000 -0.1583714565
C   C664      1.0  0.03779  0.58770  0.83610  1.0000 0.0698538284
C   C665      1.0  0.02150  0.51860  0.81177  1.0000 -0.1501094225
C   C666      1.0  0.98875  0.50160  0.80105  1.0000 -0.1583714565
C   C667      1.0  0.07213  0.61030  0.84491  1.0000 0.0883245795
C   C668      1.0  0.09394  0.64940  0.88316  1.0000 -0.1501094225
C   C669      1.0  0.12508  0.67200  0.89080  1.0000 -0.0903638115
C   C670      1.0  0.13555  0.65570  0.85962  1.0000 -0.0307184347
C   C671      1.0  0.11427  0.61350  0.82171  1.0000 -0.0989425698
C   C672      1.0  0.08279  0.59170  0.81414  1.0000 -0.1501094225
C   C673      1.0  0.16898  0.68490  0.86750  1.0000 0.5814973174
C   C674      1.0  0.93553  0.54160  0.80014  1.0000 0.0883245795
C   C675      1.0  0.91923  0.46850  0.77583  1.0000 -0.2115676933
C   C676      1.0  0.86407  0.56860  0.36010  1.0000 0.0883245795
C   C677      1.0  0.84406  0.51600  0.37095  1.0000 -0.1874177878
C   C678      1.0  0.85686  0.44660  0.40015  1.0000 0.0883245795
C   C679      1.0  0.89044  0.43110  0.41977  1.0000 -0.1990956114
C   C680      1.0  0.91109  0.48120  0.40857  1.0000 0.0883245795
C   C681      1.0  0.89722  0.54940  0.37846  1.0000 -0.1990956114
C   C682      1.0  0.85003  0.64580  0.33018  1.0000 0.0798114568
C   C683      1.0  0.86772  0.72460  0.33800  1.0000 -0.1402155006
C   C684      1.0  0.85462  0.79710  0.31155  1.0000 -0.1402155006
C   C685      1.0  0.82327  0.79430  0.27619  1.0000 0.0698538284
C   C686      1.0  0.80629  0.71450  0.26804  1.0000 -0.1321962655
C   C687      1.0  0.81931  0.64210  0.29459  1.0000 -0.1321962655
C   C688      1.0  0.80872  0.87410  0.24904  1.0000 0.0798114568
C   C689      1.0  0.82845  0.93840  0.24371  1.0000 -0.1402155006
C   C690      1.0  0.81528  0.01330  0.21969  1.0000 -0.0903638115
C   C691      1.0  0.78150  0.02680  0.19949  1.0000 -0.0406022347
C   C692      1.0  0.76160  0.96370  0.20431  1.0000 -0.0989425698
C   C693      1.0  0.77490  0.88810  0.22878  1.0000 -0.1501094225
C   C694      1.0  0.76741  0.10780  0.17265  1.0000 0.5814973174
C   C695      1.0  0.83484  0.38580  0.40868  1.0000 0.0698538284
C   C696      1.0  0.81204  0.33660  0.37383  1.0000 -0.1321962655
C   C697      1.0  0.79340  0.27330  0.38093  1.0000 -0.1402155006
C   C698      1.0  0.79629  0.25790  0.42217  1.0000 0.0625202466
C   C699      1.0  0.81805  0.31080  0.45616  1.0000 -0.1402155006
C   C700      1.0  0.83724  0.37290  0.44935  1.0000 -0.1321962655
C   C701      1.0  0.77737  0.18530  0.42929  1.0000 0.0798114568
C   C702      1.0  0.76470  0.19330  0.45900  1.0000 -0.1501094225
C   C703      1.0  0.74877  0.12250  0.46657  1.0000 -0.0989425698
C   C704      1.0  0.74545  0.04300  0.44524  1.0000 -0.0307184347
C   C705      1.0  0.75729  0.03540  0.41509  1.0000 -0.0989425698
C   C706      1.0  0.77293  0.10620  0.40731  1.0000 -0.1402155006
C   C707      1.0  0.73099  0.96440  0.45619  1.0000 0.5814973174
C   C708      1.0  0.94662  0.46060  0.42746  1.0000 0.0625202466
C   C709      1.0  0.95901  0.37710  0.44184  1.0000 -0.1501094225
C   C710      1.0  0.99228  0.35960  0.45930  1.0000 -0.1501094225
C   C711      1.0  0.01431  0.42480  0.46257  1.0000 0.0698538284
C   C712      1.0  0.00207  0.50970  0.44884  1.0000 -0.1402155006
C   C713      1.0  0.96901  0.52800  0.43179  1.0000 -0.1402155006
C   C714      1.0  0.05005  0.40700  0.48058  1.0000 0.0798114568
C   C715      1.0  0.06650  0.34910  0.51446  1.0000 -0.1583714565
C   C716      1.0  0.10020  0.33610  0.53171  1.0000 -0.0903638115
C   C717      1.0  0.11748  0.38010  0.51373  1.0000 -0.0406022347
C   C718      1.0  0.10134  0.43900  0.47981  1.0000 -0.0989425698
C   C719      1.0  0.06799  0.45400  0.46356  1.0000 -0.1501094225
C   C720      1.0  0.15317  0.36550  0.52963  1.0000 0.5914262525
O   O1        1.0  0.21990  0.73367  0.99892  1.0000 -0.8437931918
O   O2        1.0  0.68438  0.76485  0.39886  1.0000 -0.5395257151
O   O3        1.0  0.67912  0.83985  0.34059  1.0000 -0.5395257151
O   O4        1.0  0.27890  0.61585  0.05956  1.0000 -0.5395257151
O   O5        1.0  0.23546  0.57245  0.06738  1.0000 -0.5886013516
O   O6        1.0  0.24272  0.36281  0.32727  1.0000 -0.5590753228
O   O7        1.0  0.29320  0.30471  0.36543  1.0000 -0.5395257151
O   O8        1.0  0.75515  0.76289  0.40990  1.0000 -0.8665583142
O   O9        1.0  0.28752  0.33450  0.67289  1.0000 -0.5467786052
O   O10       1.0  0.23690  0.38601  0.65294  1.0000 -0.5395257151
O   O11       1.0  0.21380  0.52156  0.97551  1.0000 -0.5273551949
O   O12       1.0  0.23744  0.60997  0.94663  1.0000 -0.5590753228
O   O13       1.0  0.66934  0.16852  0.06643  1.0000 -0.5395257151
O   O14       1.0  0.66411  0.10976  0.00390  1.0000 -0.5395257151
O   O15       1.0  0.71990  0.23367  0.99892  1.0000 -0.8437931918
O   O16       1.0  0.18438  0.26485  0.39886  1.0000 -0.5395257151
O   O17       1.0  0.17912  0.33985  0.34059  1.0000 -0.5395257151
O   O18       1.0  0.77890  0.11585  0.05956  1.0000 -0.5395257151
O   O19       1.0  0.73546  0.07245  0.06738  1.0000 -0.5886013516
O   O20       1.0  0.74272  0.86281  0.32727  1.0000 -0.5590753228
O   O21       1.0  0.79320  0.80471  0.36543  1.0000 -0.5395257151
O   O22       1.0  0.25515  0.26289  0.40990  1.0000 -0.8665583142
O   O23       1.0  0.78752  0.83450  0.67289  1.0000 -0.5467786052
O   O24       1.0  0.73690  0.88601  0.65294  1.0000 -0.5395257151
O   O25       1.0  0.71380  0.02156  0.97551  1.0000 -0.5273551949
O   O26       1.0  0.73744  0.10997  0.94663  1.0000 -0.5590753228
O   O27       1.0  0.16934  0.66852  0.06643  1.0000 -0.5395257151
O   O28       1.0  0.16411  0.60976  0.00390  1.0000 -0.5395257151
O   O29       1.0  0.78010  0.73367  0.50108  1.0000 -0.8437931918
O   O30       1.0  0.31562  0.76485  0.10114  1.0000 -0.5395257151
O   O31       1.0  0.32088  0.83985  0.15941  1.0000 -0.5395257151
O   O32       1.0  0.72110  0.61585  0.44044  1.0000 -0.5395257151
O   O33       1.0  0.76454  0.57245  0.43262  1.0000 -0.5886013516
O   O34       1.0  0.75728  0.36281  0.17273  1.0000 -0.5590753228
O   O35       1.0  0.70680  0.30471  0.13457  1.0000 -0.5395257151
O   O36       1.0  0.24485  0.76289  0.09010  1.0000 -0.8665583142
O   O37       1.0  0.71248  0.33450  0.82711  1.0000 -0.5467786052
O   O38       1.0  0.76310  0.38601  0.84706  1.0000 -0.5395257151
O   O39       1.0  0.78620  0.52156  0.52449  1.0000 -0.5273551949
O   O40       1.0  0.76256  0.60997  0.55337  1.0000 -0.5590753228
O   O41       1.0  0.33066  0.16852  0.43357  1.0000 -0.5395257151
O   O42       1.0  0.33589  0.10976  0.49610  1.0000 -0.5395257151
O   O43       1.0  0.28010  0.23367  0.50108  1.0000 -0.8437931918
O   O44       1.0  0.81562  0.26485  0.10114  1.0000 -0.5395257151
O   O45       1.0  0.82088  0.33985  0.15941  1.0000 -0.5395257151
O   O46       1.0  0.22110  0.11585  0.44044  1.0000 -0.5395257151
O   O47       1.0  0.26454  0.07245  0.43262  1.0000 -0.5886013516
O   O48       1.0  0.25728  0.86281  0.17273  1.0000 -0.5590753228
O   O49       1.0  0.20680  0.80471  0.13457  1.0000 -0.5395257151
O   O50       1.0  0.74485  0.26289  0.09010  1.0000 -0.8665583142
O   O51       1.0  0.21248  0.83450  0.82711  1.0000 -0.5467786052
O   O52       1.0  0.26310  0.88601  0.84706  1.0000 -0.5395257151
O   O53       1.0  0.28620  0.02156  0.52449  1.0000 -0.5273551949
O   O54       1.0  0.26256  0.10997  0.55337  1.0000 -0.5590753228
O   O55       1.0  0.83066  0.66852  0.43357  1.0000 -0.5395257151
O   O56       1.0  0.83589  0.60976  0.49610  1.0000 -0.5395257151
O   O57       1.0  0.78010  0.26633  0.00108  1.0000 -0.8437931918
O   O58       1.0  0.31562  0.23515  0.60114  1.0000 -0.5395257151
O   O59       1.0  0.32088  0.16015  0.65941  1.0000 -0.5395257151
O   O60       1.0  0.72110  0.38415  0.94044  1.0000 -0.5395257151
O   O61       1.0  0.76454  0.42755  0.93262  1.0000 -0.5886013516
O   O62       1.0  0.75728  0.63719  0.67273  1.0000 -0.5590753228
O   O63       1.0  0.70680  0.69529  0.63457  1.0000 -0.5395257151
O   O64       1.0  0.24485  0.23711  0.59010  1.0000 -0.8665583142
O   O65       1.0  0.71248  0.66550  0.32711  1.0000 -0.5467786052
O   O66       1.0  0.76310  0.61399  0.34706  1.0000 -0.5395257151
O   O67       1.0  0.78620  0.47844  0.02449  1.0000 -0.5273551949
O   O68       1.0  0.76256  0.39003  0.05337  1.0000 -0.5590753228
O   O69       1.0  0.33066  0.83148  0.93357  1.0000 -0.5395257151
O   O70       1.0  0.33589  0.89024  0.99610  1.0000 -0.5395257151
O   O71       1.0  0.28010  0.76633  0.00108  1.0000 -0.8437931918
O   O72       1.0  0.81562  0.73515  0.60114  1.0000 -0.5395257151
O   O73       1.0  0.82088  0.66015  0.65941  1.0000 -0.5395257151
O   O74       1.0  0.22110  0.88415  0.94044  1.0000 -0.5395257151
O   O75       1.0  0.26454  0.92755  0.93262  1.0000 -0.5886013516
O   O76       1.0  0.25728  0.13719  0.67273  1.0000 -0.5590753228
O   O77       1.0  0.20680  0.19529  0.63457  1.0000 -0.5395257151
O   O78       1.0  0.74485  0.73711  0.59010  1.0000 -0.8665583142
O   O79       1.0  0.21248  0.16550  0.32711  1.0000 -0.5467786052
O   O80       1.0  0.26310  0.11399  0.34706  1.0000 -0.5395257151
O   O81       1.0  0.28620  0.97844  0.02449  1.0000 -0.5273551949
O   O82       1.0  0.26256  0.89003  0.05337  1.0000 -0.5590753228
O   O83       1.0  0.83066  0.33148  0.93357  1.0000 -0.5395257151
O   O84       1.0  0.83589  0.39024  0.99610  1.0000 -0.5395257151
O   O85       1.0  0.21990  0.26633  0.49892  1.0000 -0.8437931918
O   O86       1.0  0.68438  0.23515  0.89886  1.0000 -0.5395257151
O   O87       1.0  0.67912  0.16015  0.84059  1.0000 -0.5395257151
O   O88       1.0  0.27890  0.38415  0.55956  1.0000 -0.5395257151
O   O89       1.0  0.23546  0.42755  0.56738  1.0000 -0.5886013516
O   O90       1.0  0.24272  0.63719  0.82727  1.0000 -0.5590753228
O   O91       1.0  0.29320  0.69529  0.86543  1.0000 -0.5395257151
O   O92       1.0  0.75515  0.23711  0.90990  1.0000 -0.8665583142
O   O93       1.0  0.28752  0.66550  0.17289  1.0000 -0.5467786052
O   O94       1.0  0.23690  0.61399  0.15294  1.0000 -0.5395257151
O   O95       1.0  0.21380  0.47844  0.47551  1.0000 -0.5273551949
O   O96       1.0  0.23744  0.39003  0.44663  1.0000 -0.5590753228
O   O97       1.0  0.66934  0.83148  0.56643  1.0000 -0.5395257151
O   O98       1.0  0.66411  0.89024  0.50390  1.0000 -0.5395257151
O   O99       1.0  0.71990  0.76633  0.49892  1.0000 -0.8437931918
O   O100      1.0  0.18438  0.73515  0.89886  1.0000 -0.5395257151
O   O101      1.0  0.17912  0.66015  0.84059  1.0000 -0.5395257151
O   O102      1.0  0.77890  0.88415  0.55956  1.0000 -0.5395257151
O   O103      1.0  0.73546  0.92755  0.56738  1.0000 -0.5886013516
O   O104      1.0  0.74272  0.13719  0.82727  1.0000 -0.5590753228
O   O105      1.0  0.79320  0.19529  0.86543  1.0000 -0.5395257151
O   O106      1.0  0.25515  0.73711  0.90990  1.0000 -0.8665583142
O   O107      1.0  0.78752  0.16550  0.17289  1.0000 -0.5467786052
O   O108      1.0  0.73690  0.11399  0.15294  1.0000 -0.5395257151
O   O109      1.0  0.71380  0.97844  0.47551  1.0000 -0.5273551949
O   O110      1.0  0.73744  0.89003  0.44663  1.0000 -0.5590753228
O   O111      1.0  0.16934  0.33148  0.56643  1.0000 -0.5395257151
O   O112      1.0  0.16411  0.39024  0.50390  1.0000 -0.5395257151
