# DDEC6 charges by PACMAN v1.1 (https://github.com/mtap-research/PACMAN-charge/)
data_2006[La][nan]3[ASR]1
_chemical_formula_sum              "La8 P32 H136 C96 N32 O96"
_cell_length_a       14.3339
_cell_length_b       20.76
_cell_length_c       21.507
_cell_angle_alpha    69.992
_cell_angle_beta     73.154
_cell_angle_gamma    72.353

_symmetry_space_group_name_H-M    "P 1"
_symmetry_Int_Tables_number       1

loop_
  _symmetry_equiv_pos_as_xyz
  'x, y, z'

loop_
  _atom_site_type_symbol
  _atom_site_label
  _atom_site_symmetry_multiplicity
  _atom_site_fract_x
  _atom_site_fract_y
  _atom_site_fract_z
  _atom_site_occupancy
  _atom_site_charge
La  La1       1.0  0.42862  0.11434  0.41193  1.0000 2.072671503
La  La2       1.0  0.57138  0.88566  0.58807  1.0000 2.072671503
La  La3       1.0  0.12180  0.48296  0.38716  1.0000 2.072671503
La  La4       1.0  0.87820  0.51704  0.61284  1.0000 2.072671503
La  La5       1.0  0.48990  0.08923  0.06408  1.0000 2.072671503
La  La6       1.0  0.51010  0.91077  0.93592  1.0000 2.072671503
La  La7       1.0  0.56691  0.45110  0.86769  1.0000 2.0852585337
La  La8       1.0  0.43309  0.54890  0.13231  1.0000 2.0852585337
P   P1        1.0  0.45371  0.06013  0.25478  1.0000 1.3205557368
P   P2        1.0  0.54629  0.93987  0.74522  1.0000 1.3205557368
P   P3        1.0  0.66781  0.06877  0.17272  1.0000 1.2912652991
P   P4        1.0  0.33219  0.93123  0.82728  1.0000 1.2912652991
P   P5        1.0  0.69640  0.00221  0.93983  1.0000 1.2837805253
P   P6        1.0  0.30360  0.99779  0.06017  1.0000 1.2837805253
P   P7        1.0  0.63026  0.90021  0.07448  1.0000 1.3205557368
P   P8        1.0  0.36974  0.09979  0.92552  1.0000 1.3205557368
P   P9        1.0  0.37278  0.93103  0.48501  1.0000 1.2837805253
P   P10       1.0  0.62722  0.06897  0.51499  1.0000 1.2837805253
P   P11       1.0  0.32002  0.01156  0.58859  1.0000 1.3205557368
P   P12       1.0  0.67998  0.98844  0.41141  1.0000 1.3205557368
P   P13       1.0  0.83762  0.54046  0.43778  1.0000 1.2730213902
P   P14       1.0  0.16238  0.45954  0.56222  1.0000 1.2730213902
P   P15       1.0  0.92239  0.39173  0.50932  1.0000 1.3205557368
P   P16       1.0  0.07761  0.60827  0.49068  1.0000 1.3205557368
P   P17       1.0  0.57764  0.24903  0.93311  1.0000 1.3116586707
P   P18       1.0  0.42236  0.75097  0.06689  1.0000 1.3116586707
P   P19       1.0  0.37897  0.34258  0.90245  1.0000 1.2991863988
P   P20       1.0  0.62103  0.65742  0.09755  1.0000 1.2991863988
P   P21       1.0  0.17288  0.61790  0.22106  1.0000 1.2991863988
P   P22       1.0  0.82712  0.38210  0.77894  1.0000 1.2991863988
P   P23       1.0  0.33385  0.57948  0.30030  1.0000 1.3205557368
P   P24       1.0  0.66615  0.42052  0.69970  1.0000 1.3205557368
P   P25       1.0  0.27596  0.29441  0.43382  1.0000 1.3359118602
P   P26       1.0  0.72404  0.70559  0.56618  1.0000 1.3359118602
P   P27       1.0  0.15226  0.20111  0.42468  1.0000 1.2837805253
P   P28       1.0  0.84774  0.79889  0.57532  1.0000 1.2837805253
P   P29       1.0  0.36562  0.45822  0.02846  1.0000 1.3205557368
P   P30       1.0  0.63438  0.54178  0.97154  1.0000 1.3205557368
P   P31       1.0  0.34645  0.59219  0.90841  1.0000 1.3359118602
P   P32       1.0  0.65355  0.40781  0.09159  1.0000 1.3359118602
H   H1        1.0  0.66620  0.94420  0.20170  1.0000 0.2704918505
H   H2        1.0  0.33380  0.05580  0.79830  1.0000 0.2704918505
H   H3        1.0  0.56050  0.95430  0.20650  1.0000 0.2863167277
H   H4        1.0  0.43950  0.04570  0.79350  1.0000 0.2863167277
H   H5        1.0  0.74890  0.95480  0.08950  1.0000 0.2704918505
H   H6        1.0  0.25110  0.04520  0.91050  1.0000 0.2704918505
H   H7        1.0  0.77460  0.00720  0.02700  1.0000 0.277827764
H   H8        1.0  0.22540  0.99280  0.97300  1.0000 0.277827764
H   H9        1.0  0.18740  0.05080  0.52190  1.0000 0.277827764
H   H10       1.0  0.81260  0.94920  0.47810  1.0000 0.277827764
H   H11       1.0  0.19570  0.00310  0.48410  1.0000 0.2631388954
H   H12       1.0  0.80430  0.99690  0.51590  1.0000 0.2631388954
H   H13       1.0  0.74210  0.40280  0.54090  1.0000 0.2863167277
H   H14       1.0  0.25790  0.59720  0.45910  1.0000 0.2863167277
H   H15       1.0  0.70360  0.47780  0.52220  1.0000 0.2704918505
H   H16       1.0  0.29640  0.52220  0.47780  1.0000 0.2704918505
H   H17       1.0  0.57400  0.30950  0.80450  1.0000 0.2704918505
H   H18       1.0  0.42600  0.69050  0.19550  1.0000 0.2704918505
H   H19       1.0  0.47750  0.31930  0.79040  1.0000 0.277827764
H   H20       1.0  0.52250  0.68070  0.20960  1.0000 0.2704918505
H   H21       1.0  0.11140  0.67110  0.31950  1.0000 0.2704918505
H   H22       1.0  0.88860  0.32890  0.68050  1.0000 0.2704918505
H   H23       1.0  0.19330  0.66540  0.34850  1.0000 0.2863167277
H   H24       1.0  0.80670  0.33460  0.65150  1.0000 0.2863167277
H   H25       1.0  0.15990  0.16320  0.54530  1.0000 0.2704918505
H   H26       1.0  0.84010  0.83680  0.45470  1.0000 0.2704918505
H   H27       1.0  0.25350  0.18120  0.53600  1.0000 0.2863167277
H   H28       1.0  0.74650  0.81880  0.46400  1.0000 0.2863167277
H   H29       1.0  0.19250  0.58300  0.01570  1.0000 0.277827764
H   H30       1.0  0.80750  0.41700  0.98430  1.0000 0.277827764
H   H31       1.0  0.17820  0.51210  0.04330  1.0000 0.2704918505
H   H32       1.0  0.82180  0.48790  0.95670  1.0000 0.2704918505
H   H33       1.0  0.60960  0.00890  0.28520  1.0000 0.1809477485
H   H34       1.0  0.39040  0.99110  0.71480  1.0000 0.1809477485
H   H35       1.0  0.57080  0.91850  0.36590  1.0000 0.1512630298
H   H36       1.0  0.42920  0.08150  0.63410  1.0000 0.1512630298
H   H37       1.0  0.58160  0.80800  0.43960  1.0000 0.1298007263
H   H38       1.0  0.41840  0.19200  0.56040  1.0000 0.1298007263
H   H39       1.0  0.62330  0.70920  0.39840  1.0000 0.1298007263
H   H40       1.0  0.37670  0.29080  0.60160  1.0000 0.1298007263
H   H41       1.0  0.65380  0.72580  0.28450  1.0000 0.1126008228
H   H42       1.0  0.34620  0.27420  0.71550  1.0000 0.1126008228
H   H43       1.0  0.78350  0.89430  0.99720  1.0000 0.1512630298
H   H44       1.0  0.21650  0.10570  0.00280  1.0000 0.1512630298
H   H45       1.0  0.93700  0.87160  0.98850  1.0000 0.141499096
H   H46       1.0  0.06300  0.12840  0.01150  1.0000 0.141499096
H   H47       1.0  0.09910  0.84700  0.00010  1.0000 0.1298007263
H   H48       1.0  0.90090  0.15300  0.99990  1.0000 0.1298007263
H   H49       1.0  0.14260  0.89210  0.06780  1.0000 0.141499096
H   H50       1.0  0.85740  0.10790  0.93220  1.0000 0.141499096
H   H51       1.0  0.02470  0.96160  0.12590  1.0000 0.1126008228
H   H52       1.0  0.97530  0.03840  0.87410  1.0000 0.1126008228
H   H53       1.0  0.25760  0.92050  0.58720  1.0000 0.15649501
H   H54       1.0  0.74240  0.07950  0.41280  1.0000 0.15649501
H   H55       1.0  0.11700  0.89990  0.62430  1.0000 0.141499096
H   H56       1.0  0.88300  0.10010  0.37570  1.0000 0.141499096
H   H57       1.0  0.95060  0.89690  0.66630  1.0000 0.1200154207
H   H58       1.0  0.04940  0.10310  0.33370  1.0000 0.1200154207
H   H59       1.0  0.82540  0.99200  0.62560  1.0000 0.141499096
H   H60       1.0  0.17460  0.00800  0.37440  1.0000 0.141499096
H   H61       1.0  0.86990  0.08700  0.54600  1.0000 0.1126008228
H   H62       1.0  0.13010  0.91300  0.45400  1.0000 0.1200154207
H   H63       1.0  0.83410  0.43570  0.42170  1.0000 0.15649501
H   H64       1.0  0.16590  0.56430  0.57830  1.0000 0.15649501
H   H65       1.0  0.70250  0.44710  0.38320  1.0000 0.141499096
H   H66       1.0  0.29750  0.55290  0.61680  1.0000 0.141499096
H   H67       1.0  0.55690  0.43580  0.36610  1.0000 0.1298007263
H   H68       1.0  0.44310  0.56420  0.63390  1.0000 0.1298007263
H   H69       1.0  0.42450  0.41140  0.45380  1.0000 0.1512630298
H   H70       1.0  0.57550  0.58860  0.54620  1.0000 0.1512630298
H   H71       1.0  0.43380  0.40130  0.55780  1.0000 0.1126008228
H   H72       1.0  0.56620  0.59870  0.44220  1.0000 0.1126008228
H   H73       1.0  0.45510  0.22850  0.89540  1.0000 0.1691883705
H   H74       1.0  0.54490  0.77150  0.10460  1.0000 0.1691883705
H   H75       1.0  0.54890  0.14750  0.84970  1.0000 0.1512630298
H   H76       1.0  0.45110  0.85250  0.15030  1.0000 0.1512630298
H   H77       1.0  0.61300  0.07540  0.77920  1.0000 0.1298007263
H   H78       1.0  0.38700  0.92460  0.22080  1.0000 0.1298007263
H   H79       1.0  0.66570  0.12120  0.66340  1.0000 0.1200154207
H   H80       1.0  0.33430  0.87880  0.33660  1.0000 0.1200154207
H   H81       1.0  0.66330  0.23910  0.62100  1.0000 0.1200154207
H   H82       1.0  0.33670  0.76090  0.37900  1.0000 0.1200154207
H   H83       1.0  0.27030  0.68620  0.22640  1.0000 0.1512630298
H   H84       1.0  0.72970  0.31380  0.77360  1.0000 0.1512630298
H   H85       1.0  0.19730  0.79660  0.20400  1.0000 0.141499096
H   H86       1.0  0.80270  0.20340  0.79600  1.0000 0.141499096
H   H87       1.0  0.13840  0.91190  0.20560  1.0000 0.1126008228
H   H88       1.0  0.86160  0.08810  0.79440  1.0000 0.1126008228
H   H89       1.0  0.04490  0.94090  0.30560  1.0000 0.1298007263
H   H90       1.0  0.95510  0.05910  0.69440  1.0000 0.1298007263
H   H91       1.0  0.01840  0.85120  0.40080  1.0000 0.1200154207
H   H92       1.0  0.98160  0.14880  0.59920  1.0000 0.1200154207
H   H93       1.0  0.11020  0.28550  0.48350  1.0000 0.1809477485
H   H94       1.0  0.88980  0.71450  0.51650  1.0000 0.1809477485
H   H95       1.0  0.10100  0.32000  0.57430  1.0000 0.1512630298
H   H96       1.0  0.89900  0.68000  0.42570  1.0000 0.1512630298
H   H97       1.0  0.05320  0.33210  0.68190  1.0000 0.1298007263
H   H98       1.0  0.94680  0.66790  0.31810  1.0000 0.1298007263
H   H99       1.0  0.07730  0.23340  0.77480  1.0000 0.1298007263
H   H100      1.0  0.92270  0.76660  0.22520  1.0000 0.1298007263
H   H101      1.0  0.15280  0.12520  0.75500  1.0000 0.1200154207
H   H102      1.0  0.84720  0.87480  0.24500  1.0000 0.1200154207
H   H103      1.0  0.28230  0.49320  0.94070  1.0000 0.1809477485
H   H104      1.0  0.71770  0.50680  0.05930  1.0000 0.1809477485
H   H105      1.0  0.00790  0.58840  0.06360  1.0000 0.1298007263
H   H106      1.0  0.99210  0.41160  0.93640  1.0000 0.1298007263
H   H107      1.0  0.86350  0.62200  0.02130  1.0000 0.1200154207
H   H108      1.0  0.13650  0.37800  0.97870  1.0000 0.1200154207
H   H109      1.0  0.87330  0.62020  0.91230  1.0000 0.1200154207
H   H110      1.0  0.12670  0.37980  0.08770  1.0000 0.1200154207
H   H111      1.0  0.02750  0.58490  0.84560  1.0000 0.1126008228
H   H112      1.0  0.97250  0.41510  0.15440  1.0000 0.1126008228
H   H113      1.0  0.39450  0.99630  0.34150  1.0000 0.3783164246
H   H114      1.0  0.60550  0.00370  0.65850  1.0000 0.3783164246
H   H115      1.0  0.61350  0.17160  0.16140  1.0000 0.3998399458
H   H116      1.0  0.38650  0.82840  0.83860  1.0000 0.3998399458
H   H117      1.0  0.82710  0.98710  0.87430  1.0000 0.3683676282
H   H118      1.0  0.17290  0.01290  0.12570  1.0000 0.3683676282
H   H119      1.0  0.33210  0.84970  0.47920  1.0000 0.3783164246
H   H120      1.0  0.66790  0.15030  0.52080  1.0000 0.3783164246
H   H121      1.0  0.76770  0.57910  0.35990  1.0000 0.3783164246
H   H122      1.0  0.23230  0.42090  0.64010  1.0000 0.3783164246
H   H123      1.0  0.66400  0.15700  0.91820  1.0000 0.3783164246
H   H124      1.0  0.33600  0.84300  0.08180  1.0000 0.3783164246
H   H125      1.0  0.26800  0.32020  0.88050  1.0000 0.3783164246
H   H126      1.0  0.73200  0.67980  0.11950  1.0000 0.3783164246
H   H127      1.0  0.13060  0.69370  0.14050  1.0000 0.393418193
H   H128      1.0  0.86940  0.30630  0.85950  1.0000 0.3998399458
H   H129      1.0  0.26800  0.35070  0.49540  1.0000 0.3783164246
H   H130      1.0  0.73200  0.64930  0.50460  1.0000 0.3783164246
H   H131      1.0  0.12670  0.24350  0.33110  1.0000 0.393418193
H   H132      1.0  0.87330  0.75650  0.66890  1.0000 0.393418193
H   H133      1.0  0.34650  0.36290  0.08770  1.0000 0.3998399458
H   H134      1.0  0.65350  0.63710  0.91230  1.0000 0.3998399458
H   H135      1.0  0.42580  0.59950  0.96780  1.0000 0.3783164246
H   H136      1.0  0.57420  0.40050  0.03220  1.0000 0.3783164246
C   C1        1.0  0.58780  0.01720  0.24340  1.0000 -0.4831907489
C   C2        1.0  0.41220  0.98280  0.75660  1.0000 -0.4831907489
C   C3        1.0  0.60580  0.88820  0.27910  1.0000 0.3683676282
C   C4        1.0  0.39420  0.11180  0.72090  1.0000 0.3683676282
C   C5        1.0  0.58730  0.87950  0.34970  1.0000 -0.1986036994
C   C6        1.0  0.41270  0.12050  0.65030  1.0000 -0.1986036994
C   C7        1.0  0.59380  0.81380  0.39330  1.0000 -0.0091878009
C   C8        1.0  0.40620  0.18620  0.60670  1.0000 -0.0091878009
C   C9        1.0  0.61890  0.75420  0.36880  1.0000 -0.1615754166
C   C10       1.0  0.38110  0.24580  0.63120  1.0000 -0.1615754166
C   C11       1.0  0.63640  0.76450  0.30140  1.0000 0.0899750381
C   C12       1.0  0.36360  0.23550  0.69860  1.0000 0.0899750381
C   C13       1.0  0.73530  0.93340  0.01270  1.0000 -0.5095594623
C   C14       1.0  0.26470  0.06660  0.98730  1.0000 -0.5095594623
C   C15       1.0  0.87960  0.93790  0.05070  1.0000 0.3683676282
C   C16       1.0  0.12040  0.06210  0.94930  1.0000 0.3683676282
C   C17       1.0  0.95380  0.89120  0.01560  1.0000 -0.2218731702
C   C18       1.0  0.04620  0.10880  0.98440  1.0000 -0.2218731702
C   C19       1.0  0.04970  0.87640  0.02340  1.0000 -0.027347607
C   C20       1.0  0.95030  0.12360  0.97660  1.0000 -0.027347607
C   C21       1.0  0.07630  0.90310  0.06390  1.0000 -0.1615754166
C   C22       1.0  0.92370  0.09690  0.93610  1.0000 -0.1615754166
C   C23       1.0  0.00700  0.94450  0.09730  1.0000 0.062340667
C   C24       1.0  0.99300  0.05550  0.90270  1.0000 0.062340667
C   C25       1.0  0.27610  0.96160  0.55150  1.0000 -0.5002257823
C   C26       1.0  0.72390  0.03840  0.44850  1.0000 -0.5002257823
C   C27       1.0  0.09280  0.99870  0.55770  1.0000 0.3486988447
C   C28       1.0  0.90720  0.00130  0.44230  1.0000 0.3486988447
C   C29       1.0  0.06730  0.93790  0.60820  1.0000 -0.2218731702
C   C30       1.0  0.93270  0.06210  0.39180  1.0000 -0.2218731702
C   C31       1.0  0.96800  0.93640  0.63300  1.0000 -0.0091878009
C   C32       1.0  0.03200  0.06360  0.36700  1.0000 -0.0091878009
C   C33       1.0  0.89250  0.99330  0.60900  1.0000 -0.1684550532
C   C34       1.0  0.10750  0.00670  0.39100  1.0000 -0.1684550532
C   C35       1.0  0.91940  0.04900  0.56220  1.0000 0.062340667
C   C36       1.0  0.08060  0.95100  0.43780  1.0000 0.062340667
C   C37       1.0  0.82540  0.44970  0.46250  1.0000 -0.5002257823
C   C38       1.0  0.17460  0.55030  0.53750  1.0000 -0.5002257823
C   C39       1.0  0.65340  0.43180  0.48610  1.0000 0.3604611998
C   C40       1.0  0.34660  0.56820  0.51390  1.0000 0.3604611998
C   C41       1.0  0.64900  0.43820  0.41920  1.0000 -0.2314813652
C   C42       1.0  0.35100  0.56180  0.58080  1.0000 -0.2314813652
C   C43       1.0  0.56180  0.43090  0.40970  1.0000 -0.0091878009
C   C44       1.0  0.43820  0.56910  0.59030  1.0000 -0.0091878009
C   C45       1.0  0.48180  0.41650  0.46190  1.0000 -0.1615754166
C   C46       1.0  0.51820  0.58350  0.53810  1.0000 -0.1615754166
C   C47       1.0  0.48810  0.41050  0.52250  1.0000 0.0520975119
C   C48       1.0  0.51190  0.58950  0.47750  1.0000 0.0520975119
C   C49       1.0  0.48230  0.27020  0.88340  1.0000 -0.486153215
C   C50       1.0  0.51770  0.72980  0.11660  1.0000 -0.486153215
C   C51       1.0  0.56540  0.23910  0.77540  1.0000 0.3604611998
C   C52       1.0  0.43460  0.76090  0.22460  1.0000 0.3683676282
C   C53       1.0  0.57080  0.16620  0.80350  1.0000 -0.2124414293
C   C54       1.0  0.42920  0.83380  0.19650  1.0000 -0.2124414293
C   C55       1.0  0.60910  0.12350  0.76120  1.0000 -0.0091878009
C   C56       1.0  0.39090  0.87650  0.23880  1.0000 -0.0091878009
C   C57       1.0  0.64230  0.15040  0.69180  1.0000 -0.1684550532
C   C58       1.0  0.35770  0.84960  0.30820  1.0000 -0.1615754166
C   C59       1.0  0.63940  0.22040  0.66690  1.0000 0.0812241207
C   C60       1.0  0.36060  0.77960  0.33310  1.0000 0.0812241207
C   C61       1.0  0.23670  0.65110  0.26160  1.0000 -0.5002257823
C   C62       1.0  0.76330  0.34890  0.73840  1.0000 -0.5002257823
C   C63       1.0  0.14070  0.75520  0.30410  1.0000 0.3604611998
C   C64       1.0  0.85930  0.24480  0.69590  1.0000 0.3604611998
C   C65       1.0  0.16080  0.80800  0.24380  1.0000 -0.2124414293
C   C66       1.0  0.83920  0.19200  0.75620  1.0000 -0.2124414293
C   C67       1.0  0.12550  0.87630  0.24510  1.0000 -0.027347607
C   C68       1.0  0.87450  0.12370  0.75490  1.0000 -0.027347607
C   C69       1.0  0.07010  0.89430  0.30480  1.0000 -0.1684550532
C   C70       1.0  0.92990  0.10570  0.69520  1.0000 -0.1684550532
C   C71       1.0  0.05530  0.84100  0.36060  1.0000 0.1126008228
C   C72       1.0  0.94470  0.15900  0.63940  1.0000 0.1126008228
C   C73       1.0  0.17170  0.24980  0.47520  1.0000 -0.4831907489
C   C74       1.0  0.82830  0.75020  0.52480  1.0000 -0.4831907489
C   C75       1.0  0.15570  0.21370  0.60040  1.0000 0.3604611998
C   C76       1.0  0.84430  0.78630  0.39960  1.0000 0.3604611998
C   C77       1.0  0.11110  0.28060  0.61100  1.0000 -0.2124414293
C   C78       1.0  0.88890  0.71940  0.38900  1.0000 -0.2124414293
C   C79       1.0  0.08260  0.28780  0.67520  1.0000 -0.0206558802
C   C80       1.0  0.91740  0.71220  0.32480  1.0000 -0.0206558802
C   C81       1.0  0.09720  0.22900  0.73090  1.0000 -0.1615754166
C   C82       1.0  0.90280  0.77100  0.26910  1.0000 -0.1615754166
C   C83       1.0  0.14160  0.16490  0.71880  1.0000 0.1011864445
C   C84       1.0  0.85840  0.83510  0.28120  1.0000 0.1011864445
C   C85       1.0  0.28970  0.52010  0.96780  1.0000 -0.486153215
C   C86       1.0  0.71030  0.47990  0.03220  1.0000 -0.4831907489
C   C87       1.0  0.10420  0.56650  0.97990  1.0000 0.3486988447
C   C88       1.0  0.89580  0.43350  0.02010  1.0000 0.3486988447
C   C89       1.0  0.01180  0.58770  0.01990  1.0000 -0.250341306
C   C90       1.0  0.98820  0.41230  0.98010  1.0000 -0.250341306
C   C91       1.0  0.92530  0.60780  0.99450  1.0000 -0.0091878009
C   C92       1.0  0.07470  0.39220  0.00550  1.0000 -0.0091878009
C   C93       1.0  0.93120  0.60680  0.92920  1.0000 -0.1615754166
C   C94       1.0  0.06880  0.39320  0.07080  1.0000 -0.1615754166
C   C95       1.0  0.02360  0.58560  0.88930  1.0000 0.0812241207
C   C96       1.0  0.97640  0.41440  0.11070  1.0000 0.0812241207
N   N1        1.0  0.60610  0.94970  0.23000  1.0000 -0.2408886277
N   N2        1.0  0.39390  0.05030  0.77000  1.0000 -0.2408886277
N   N3        1.0  0.62930  0.82990  0.25770  1.0000 -0.3183859188
N   N4        1.0  0.37070  0.17010  0.74230  1.0000 -0.3114134618
N   N5        1.0  0.78420  0.96040  0.04660  1.0000 -0.2314813652
N   N6        1.0  0.21580  0.03960  0.95340  1.0000 -0.2314813652
N   N7        1.0  0.90870  0.96290  0.09080  1.0000 -0.3267814138
N   N8        1.0  0.09130  0.03710  0.90920  1.0000 -0.3183859188
N   N9        1.0  0.18680  0.00620  0.52620  1.0000 -0.2408886277
N   N10       1.0  0.81320  0.99380  0.47380  1.0000 -0.2408886277
N   N11       1.0  0.01730  0.05270  0.53670  1.0000 -0.3114134618
N   N12       1.0  0.98270  0.94730  0.46330  1.0000 -0.3183859188
N   N13       1.0  0.72890  0.44030  0.50560  1.0000 -0.2314813652
N   N14       1.0  0.27110  0.55970  0.49440  1.0000 -0.2314813652
N   N15       1.0  0.57260  0.41700  0.53730  1.0000 -0.3267814138
N   N16       1.0  0.42740  0.58300  0.46270  1.0000 -0.3267814138
N   N17       1.0  0.52560  0.28720  0.81090  1.0000 -0.2408886277
N   N18       1.0  0.47440  0.71280  0.18910  1.0000 -0.2408886277
N   N19       1.0  0.60240  0.26390  0.70800  1.0000 -0.3380596437
N   N20       1.0  0.39760  0.73610  0.29200  1.0000 -0.3380596437
N   N21       1.0  0.16860  0.68510  0.31050  1.0000 -0.2314813652
N   N22       1.0  0.83140  0.31490  0.68950  1.0000 -0.2314813652
N   N23       1.0  0.09140  0.77410  0.36050  1.0000 -0.2857054868
N   N24       1.0  0.90860  0.22590  0.63950  1.0000 -0.2857054868
N   N25       1.0  0.18700  0.19880  0.54070  1.0000 -0.2408886277
N   N26       1.0  0.81300  0.80120  0.45930  1.0000 -0.2408886277
N   N27       1.0  0.16950  0.15810  0.65530  1.0000 -0.3114134618
N   N28       1.0  0.83050  0.84190  0.34470  1.0000 -0.3114134618
N   N29       1.0  0.18890  0.54600  0.00430  1.0000 -0.2314813652
N   N30       1.0  0.81110  0.45400  0.99570  1.0000 -0.2314813652
N   N31       1.0  0.11010  0.56550  0.91460  1.0000 -0.3267814138
N   N32       1.0  0.88990  0.43450  0.08540  1.0000 -0.3267814138
O   O1        1.0  0.39910  0.99930  0.30178  1.0000 -0.6109751859
O   O2        1.0  0.60090  0.00070  0.69822  1.0000 -0.6109751859
O   O3        1.0  0.43270  0.11560  0.29050  1.0000 -0.8015030976
O   O4        1.0  0.56730  0.88440  0.70950  1.0000 -0.8015030976
O   O5        1.0  0.42580  0.08310  0.18697  1.0000 -0.8307327825
O   O6        1.0  0.57420  0.91690  0.81303  1.0000 -0.8307327825
O   O7        1.0  0.77550  0.03220  0.17450  1.0000 -0.6800312497
O   O8        1.0  0.22450  0.96780  0.82550  1.0000 -0.6800312497
O   O9        1.0  0.64450  0.14070  0.18860  1.0000 -0.5588323273
O   O10       1.0  0.35550  0.85930  0.81140  1.0000 -0.5588323273
O   O11       1.0  0.63940  0.07730  0.10782  1.0000 -0.8307327825
O   O12       1.0  0.36060  0.92270  0.89218  1.0000 -0.8307327825
O   O13       1.0  0.64020  0.06676  0.96364  1.0000 -0.782819862
O   O14       1.0  0.35980  0.93324  0.03636  1.0000 -0.782819862
O   O15       1.0  0.79680  0.01950  0.89120  1.0000 -0.6302509256
O   O16       1.0  0.20320  0.98050  0.10880  1.0000 -0.6302509256
O   O17       1.0  0.64510  0.97370  0.90706  1.0000 -0.8117928537
O   O18       1.0  0.35490  0.02630  0.09294  1.0000 -0.8117928537
O   O19       1.0  0.67510  0.83930  0.12883  1.0000 -0.7290853657
O   O20       1.0  0.32490  0.16070  0.87117  1.0000 -0.7290853657
O   O21       1.0  0.57760  0.87760  0.03662  1.0000 -0.8520009615
O   O22       1.0  0.42240  0.12240  0.96338  1.0000 -0.8520009615
O   O23       1.0  0.56770  0.96202  0.10196  1.0000 -0.8307327825
O   O24       1.0  0.43230  0.03798  0.89804  1.0000 -0.8307327825
O   O25       1.0  0.39110  0.99597  0.42805  1.0000 -0.7867091197
O   O26       1.0  0.60890  0.00403  0.57195  1.0000 -0.7867091197
O   O27       1.0  0.45890  0.88426  0.51689  1.0000 -0.8117928537
O   O28       1.0  0.54110  0.11574  0.48311  1.0000 -0.8117928537
O   O29       1.0  0.32520  0.89100  0.45666  1.0000 -0.6220102408
O   O30       1.0  0.67480  0.10900  0.54334  1.0000 -0.6220102408
O   O31       1.0  0.41160  0.96422  0.61497  1.0000 -0.8414299765
O   O32       1.0  0.58840  0.03578  0.38503  1.0000 -0.8414299765
O   O33       1.0  0.34110  0.07639  0.53145  1.0000 -0.8414299765
O   O34       1.0  0.65890  0.92361  0.46855  1.0000 -0.8414299765
O   O35       1.0  0.23240  0.03116  0.64418  1.0000 -0.7005230087
O   O36       1.0  0.76760  0.96884  0.35582  1.0000 -0.7005230087
O   O37       1.0  0.75230  0.58550  0.39750  1.0000 -0.6109751859
O   O38       1.0  0.24770  0.41450  0.60250  1.0000 -0.6109751859
O   O39       1.0  0.93920  0.54363  0.39490  1.0000 -0.8015030976
O   O40       1.0  0.06080  0.45637  0.60510  1.0000 -0.8015030976
O   O41       1.0  0.81020  0.56282  0.50190  1.0000 -0.782819862
O   O42       1.0  0.18980  0.43718  0.49810  1.0000 -0.782819862
O   O43       1.0  0.89690  0.41406  0.57370  1.0000 -0.8414299765
O   O44       1.0  0.10310  0.58594  0.42630  1.0000 -0.8414299765
O   O45       1.0  0.90970  0.31784  0.52450  1.0000 -0.6944142678
O   O46       1.0  0.09030  0.68216  0.47550  1.0000 -0.6944142678
O   O47       1.0  0.02260  0.40273  0.46530  1.0000 -0.8520009615
O   O48       1.0  0.97740  0.59727  0.53470  1.0000 -0.8520009615
O   O49       1.0  0.66980  0.19780  0.90020  1.0000 -0.6302509256
O   O50       1.0  0.33020  0.80220  0.09980  1.0000 -0.6302509256
O   O51       1.0  0.60860  0.31604  0.92102  1.0000 -0.8015030976
O   O52       1.0  0.39140  0.68396  0.07898  1.0000 -0.8015030976
O   O53       1.0  0.53840  0.20969  0.00437  1.0000 -0.8015030976
O   O54       1.0  0.46160  0.79031  0.99563  1.0000 -0.8117928537
O   O55       1.0  0.41600  0.40953  0.87360  1.0000 -0.7867091197
O   O56       1.0  0.58400  0.59047  0.12640  1.0000 -0.7867091197
O   O57       1.0  0.30030  0.35060  0.86080  1.0000 -0.5888623842
O   O58       1.0  0.69970  0.64940  0.13920  1.0000 -0.5888623842
O   O59       1.0  0.33630  0.32200  0.97736  1.0000 -0.7080590524
O   O60       1.0  0.66370  0.67800  0.02264  1.0000 -0.7080590524
O   O61       1.0  0.25060  0.58240  0.17230  1.0000 -0.8196965107
O   O62       1.0  0.74940  0.41760  0.82770  1.0000 -0.8196965107
O   O63       1.0  0.10670  0.57430  0.27580  1.0000 -0.8117928537
O   O64       1.0  0.89330  0.42570  0.72420  1.0000 -0.8117928537
O   O65       1.0  0.10350  0.68380  0.18060  1.0000 -0.5888623842
O   O66       1.0  0.89650  0.31620  0.81940  1.0000 -0.5888623842
O   O67       1.0  0.28920  0.51560  0.33670  1.0000 -0.8307327825
O   O68       1.0  0.71080  0.48440  0.66330  1.0000 -0.8307327825
O   O69       1.0  0.36060  0.60670  0.34910  1.0000 -0.7080590524
O   O70       1.0  0.63940  0.39330  0.65090  1.0000 -0.7080590524
O   O71       1.0  0.41940  0.57160  0.24050  1.0000 -0.8414299765
O   O72       1.0  0.58060  0.42840  0.75950  1.0000 -0.8414299765
O   O73       1.0  0.30150  0.31180  0.49210  1.0000 -0.6109751859
O   O74       1.0  0.69850  0.68820  0.50790  1.0000 -0.6109751859
O   O75       1.0  0.36520  0.24120  0.41020  1.0000 -0.8307327825
O   O76       1.0  0.63480  0.75880  0.58980  1.0000 -0.8307327825
O   O77       1.0  0.24100  0.36194  0.38289  1.0000 -0.7867091197
O   O78       1.0  0.75900  0.63806  0.61711  1.0000 -0.7867091197
O   O79       1.0  0.24280  0.14340  0.41570  1.0000 -0.8117928537
O   O80       1.0  0.75720  0.85660  0.58430  1.0000 -0.8117928537
O   O81       1.0  0.13950  0.25960  0.35670  1.0000 -0.5787554779
O   O82       1.0  0.86050  0.74040  0.64330  1.0000 -0.5787554779
O   O83       1.0  0.05710  0.17540  0.45810  1.0000 -0.6944142678
O   O84       1.0  0.94290  0.82460  0.54190  1.0000 -0.7005230087
O   O85       1.0  0.47000  0.43830  0.98846  1.0000 -0.8196965107
O   O86       1.0  0.53000  0.56170  0.01154  1.0000 -0.8196965107
O   O87       1.0  0.31580  0.39290  0.05980  1.0000 -0.5496330955
O   O88       1.0  0.68420  0.60710  0.94020  1.0000 -0.5496330955
O   O89       1.0  0.35450  0.49080  0.08320  1.0000 -0.8414299765
O   O90       1.0  0.64550  0.50920  0.91680  1.0000 -0.8414299765
O   O91       1.0  0.43730  0.55850  0.86490  1.0000 -0.8307327825
O   O92       1.0  0.56270  0.44150  0.13510  1.0000 -0.8307327825
O   O93       1.0  0.37700  0.62610  0.95290  1.0000 -0.5787554779
O   O94       1.0  0.62300  0.37390  0.04710  1.0000 -0.5787554779
O   O95       1.0  0.26860  0.64660  0.87410  1.0000 -0.6655798056
O   O96       1.0  0.73140  0.35340  0.12590  1.0000 -0.6655798056
