# DDEC6 charges by PACMAN v1.1 (https://github.com/mtap-research/PACMAN-charge/)
data_2006[Mn][dia]3[ASR]3
_chemical_formula_sum              "Mn12 H24 C24 O48"
_cell_length_a       11.6575
_cell_length_b       10.1053
_cell_length_c       18.6386
_cell_angle_alpha    90
_cell_angle_beta     127.064
_cell_angle_gamma    90

_symmetry_space_group_name_H-M    "P 1"
_symmetry_Int_Tables_number       1

loop_
  _symmetry_equiv_pos_as_xyz
  'x, y, z'

loop_
  _atom_site_type_symbol
  _atom_site_label
  _atom_site_symmetry_multiplicity
  _atom_site_fract_x
  _atom_site_fract_y
  _atom_site_fract_z
  _atom_site_occupancy
  _atom_site_charge
Mn  Mn1       1.0  0.00000  0.50000  0.00000  1.0000 0.9873369632
Mn  Mn2       1.0  0.00000  0.00000  0.50000  1.0000 0.9873369632
Mn  Mn3       1.0  0.50000  0.50000  0.00000  1.0000 1.0019505021
Mn  Mn4       1.0  0.50000  0.00000  0.50000  1.0000 1.0019505021
Mn  Mn5       1.0  0.42438  0.59944  0.68491  1.0000 0.9739614722
Mn  Mn6       1.0  0.57562  0.09944  0.81509  1.0000 0.9739614722
Mn  Mn7       1.0  0.57562  0.40056  0.31509  1.0000 0.9754156468
Mn  Mn8       1.0  0.42438  0.90056  0.18491  1.0000 0.9739614722
Mn  Mn9       1.0  0.37434  0.58462  0.13117  1.0000 0.9739614722
Mn  Mn10      1.0  0.62566  0.08462  0.36883  1.0000 0.9739614722
Mn  Mn11      1.0  0.62566  0.41538  0.86883  1.0000 0.9739614722
Mn  Mn12      1.0  0.37434  0.91538  0.63117  1.0000 0.9739614722
H   H1        1.0  0.04110  0.78220  0.02230  1.0000 0.1497086135
H   H2        1.0  0.95890  0.28220  0.47770  1.0000 0.1497086135
H   H3        1.0  0.95890  0.21780  0.97770  1.0000 0.1497086135
H   H4        1.0  0.04110  0.71780  0.52230  1.0000 0.1497086135
H   H5        1.0  0.51190  0.11310  0.95790  1.0000 0.0765033892
H   H6        1.0  0.48810  0.61310  0.54210  1.0000 0.0765033892
H   H7        1.0  0.48810  0.88690  0.04210  1.0000 0.0765033892
H   H8        1.0  0.51190  0.38690  0.45790  1.0000 0.0765033892
H   H9        1.0  0.51130  0.74900  0.86560  1.0000 0.1088184209
H   H10       1.0  0.48870  0.24900  0.63440  1.0000 0.1088184209
H   H11       1.0  0.48870  0.25100  0.13440  1.0000 0.1088184209
H   H12       1.0  0.51130  0.75100  0.36560  1.0000 0.1088184209
H   H13       1.0  0.20770  0.51300  0.72960  1.0000 0.0765033892
H   H14       1.0  0.79230  0.01300  0.77040  1.0000 0.0765033892
H   H15       1.0  0.79230  0.48700  0.27040  1.0000 0.0765033892
H   H16       1.0  0.20770  0.98700  0.22960  1.0000 0.0765033892
H   H17       1.0  0.76460  0.66420  0.07270  1.0000 0.0654193403
H   H18       1.0  0.23540  0.16420  0.42730  1.0000 0.0654193403
H   H19       1.0  0.23540  0.33580  0.92730  1.0000 0.0654193403
H   H20       1.0  0.76460  0.83580  0.57270  1.0000 0.0654193403
H   H21       1.0  0.74750  0.68170  0.76810  1.0000 0.1088184209
H   H22       1.0  0.25250  0.18170  0.73190  1.0000 0.1088184209
H   H23       1.0  0.25250  0.31830  0.23190  1.0000 0.1088184209
H   H24       1.0  0.74750  0.81830  0.26810  1.0000 0.1088184209
C   C1        1.0  0.76170  0.63100  0.81400  1.0000 0.4694126714
C   C2        1.0  0.23830  0.13100  0.68600  1.0000 0.4694126714
C   C3        1.0  0.23830  0.36900  0.18600  1.0000 0.4694126714
C   C4        1.0  0.76170  0.86900  0.31400  1.0000 0.4694126714
C   C5        1.0  0.49940  0.81720  0.83000  1.0000 0.4942965802
C   C6        1.0  0.50060  0.31720  0.67000  1.0000 0.4942965802
C   C7        1.0  0.50060  0.18280  0.17000  1.0000 0.4942965802
C   C8        1.0  0.49940  0.68280  0.33000  1.0000 0.4942965802
C   C9        1.0  0.52400  0.20810  0.95050  1.0000 0.4604305436
C   C10       1.0  0.47600  0.70810  0.54950  1.0000 0.4604305436
C   C11       1.0  0.47600  0.79190  0.04950  1.0000 0.4604305436
C   C12       1.0  0.52400  0.29190  0.45050  1.0000 0.4604305436
C   C13       1.0  0.30690  0.50920  0.78830  1.0000 0.4604305436
C   C14       1.0  0.69310  0.00920  0.71170  1.0000 0.4604305436
C   C15       1.0  0.69310  0.49080  0.21170  1.0000 0.4604305436
C   C16       1.0  0.30690  0.99080  0.28830  1.0000 0.4604305436
C   C17       1.0  0.11810  0.78230  0.05270  1.0000 0.4257735607
C   C18       1.0  0.88190  0.28230  0.44730  1.0000 0.4248187241
C   C19       1.0  0.88190  0.21770  0.94730  1.0000 0.4248187241
C   C20       1.0  0.11810  0.71770  0.55270  1.0000 0.4257735607
C   C21       1.0  0.77340  0.60280  0.03220  1.0000 0.4694126714
C   C22       1.0  0.22660  0.10280  0.46780  1.0000 0.4694126714
C   C23       1.0  0.22660  0.39720  0.96780  1.0000 0.4694126714
C   C24       1.0  0.77340  0.89720  0.53220  1.0000 0.4754278061
O   O1        1.0  0.15879  0.66260  0.06021  1.0000 -0.5357987287
O   O2        1.0  0.84121  0.16260  0.43979  1.0000 -0.5357987287
O   O3        1.0  0.84121  0.33740  0.93979  1.0000 -0.5357987287
O   O4        1.0  0.15879  0.83740  0.56021  1.0000 -0.5357987287
O   O5        1.0  0.66455  0.52880  0.97843  1.0000 -0.56118224
O   O6        1.0  0.33545  0.02880  0.52157  1.0000 -0.56118224
O   O7        1.0  0.33545  0.47120  0.02157  1.0000 -0.56118224
O   O8        1.0  0.66455  0.97120  0.47843  1.0000 -0.56118224
O   O9        1.0  0.65415  0.57600  0.80250  1.0000 -0.56118224
O   O10       1.0  0.34585  0.07600  0.69750  1.0000 -0.56118224
O   O11       1.0  0.34585  0.42400  0.19750  1.0000 -0.56118224
O   O12       1.0  0.65415  0.92400  0.30250  1.0000 -0.56118224
O   O13       1.0  0.40744  0.49810  0.78040  1.0000 -0.56118224
O   O14       1.0  0.59256  0.99810  0.71960  1.0000 -0.56118224
O   O15       1.0  0.59256  0.50190  0.21960  1.0000 -0.56118224
O   O16       1.0  0.40744  0.00190  0.28040  1.0000 -0.56118224
O   O17       1.0  0.51697  0.28760  0.99797  1.0000 -0.5008310287
O   O18       1.0  0.48303  0.78760  0.50203  1.0000 -0.5008310287
O   O19       1.0  0.48303  0.71240  0.00203  1.0000 -0.5008310287
O   O20       1.0  0.51697  0.21240  0.49797  1.0000 -0.5008310287
O   O21       1.0  0.43925  0.79190  0.74751  1.0000 -0.56118224
O   O22       1.0  0.56075  0.29190  0.75249  1.0000 -0.56118224
O   O23       1.0  0.56075  0.20810  0.25249  1.0000 -0.56118224
O   O24       1.0  0.43925  0.70810  0.24751  1.0000 -0.56118224
O   O25       1.0  0.19724  0.87960  0.09064  1.0000 -0.4822253438
O   O26       1.0  0.80276  0.37960  0.40936  1.0000 -0.4822253438
O   O27       1.0  0.80276  0.12040  0.90936  1.0000 -0.4822253438
O   O28       1.0  0.19724  0.62040  0.59064  1.0000 -0.4822253438
O   O29       1.0  0.54662  0.23670  0.89315  1.0000 -0.56118224
O   O30       1.0  0.45338  0.73670  0.60685  1.0000 -0.56118224
O   O31       1.0  0.45338  0.76330  0.10685  1.0000 -0.56118224
O   O32       1.0  0.54662  0.26330  0.39315  1.0000 -0.56118224
O   O33       1.0  0.32006  0.49770  0.85883  1.0000 -0.5008310287
O   O34       1.0  0.67994  0.99770  0.64117  1.0000 -0.5008310287
O   O35       1.0  0.67994  0.50230  0.14117  1.0000 -0.5008310287
O   O36       1.0  0.32006  0.00230  0.35883  1.0000 -0.5008310287
O   O37       1.0  0.55253  0.92470  0.86833  1.0000 -0.5008310287
O   O38       1.0  0.44747  0.42470  0.63167  1.0000 -0.5008310287
O   O39       1.0  0.44747  0.07530  0.13167  1.0000 -0.5008310287
O   O40       1.0  0.55253  0.57530  0.36833  1.0000 -0.5008310287
O   O41       1.0  0.88949  0.61160  0.87659  1.0000 -0.4822253438
O   O42       1.0  0.11051  0.11160  0.62341  1.0000 -0.4822253438
O   O43       1.0  0.11051  0.38840  0.12341  1.0000 -0.4822253438
O   O44       1.0  0.88949  0.88840  0.37659  1.0000 -0.4822253438
O   O45       1.0  0.88396  0.60740  0.03776  1.0000 -0.5008310287
O   O46       1.0  0.11604  0.10740  0.46224  1.0000 -0.5008310287
O   O47       1.0  0.11604  0.39260  0.96224  1.0000 -0.5008310287
O   O48       1.0  0.88396  0.89260  0.53776  1.0000 -0.5008310287
