# DDEC6 charges by PACMAN v1.1 (https://github.com/mtap-research/PACMAN-charge/)
data_2006[Eu][nan]3[ASR]1
_chemical_formula_sum              "Eu4 H12 C36 O24"
_cell_length_a       10.3627
_cell_length_b       10.3627
_cell_length_c       14.332
_cell_angle_alpha    90
_cell_angle_beta     90
_cell_angle_gamma    90

_symmetry_space_group_name_H-M    "P 1"
_symmetry_Int_Tables_number       1

loop_
  _symmetry_equiv_pos_as_xyz
  'x, y, z'

loop_
  _atom_site_type_symbol
  _atom_site_label
  _atom_site_symmetry_multiplicity
  _atom_site_fract_x
  _atom_site_fract_y
  _atom_site_fract_z
  _atom_site_occupancy
  _atom_site_charge
Eu  Eu1       1.0  0.85821  0.14179  0.37500  1.0000 2.0980599752
Eu  Eu2       1.0  0.14179  0.85821  0.87500  1.0000 2.0980599752
Eu  Eu3       1.0  0.85821  0.85821  0.12500  1.0000 2.0980599752
Eu  Eu4       1.0  0.14179  0.14179  0.62500  1.0000 2.0980599752
H   H1        1.0  0.55470  0.05970  0.61780  1.0000 0.1352189413
H   H2        1.0  0.44530  0.94030  0.11780  1.0000 0.1352189413
H   H3        1.0  0.55470  0.94030  0.88220  1.0000 0.1352189413
H   H4        1.0  0.44530  0.05970  0.38220  1.0000 0.1352189413
H   H5        1.0  0.94030  0.44530  0.13220  1.0000 0.1352189413
H   H6        1.0  0.05970  0.55470  0.63220  1.0000 0.1352189413
H   H7        1.0  0.05970  0.44530  0.86780  1.0000 0.1352189413
H   H8        1.0  0.94030  0.55470  0.36780  1.0000 0.1352189413
H   H9        1.0  0.88820  0.00000  0.75000  1.0000 0.1076039548
H   H10       1.0  0.11180  0.00000  0.25000  1.0000 0.1076039548
H   H11       1.0  0.00000  0.11180  0.00000  1.0000 0.1076039548
H   H12       1.0  0.00000  0.88820  0.50000  1.0000 0.1076039548
C   C1        1.0  0.80690  0.07840  0.58530  1.0000 0.6202301017
C   C2        1.0  0.19310  0.92160  0.08530  1.0000 0.6202301017
C   C3        1.0  0.80690  0.92160  0.91470  1.0000 0.6202301017
C   C4        1.0  0.19310  0.07840  0.41470  1.0000 0.6202301017
C   C5        1.0  0.92160  0.19310  0.16470  1.0000 0.6202301017
C   C6        1.0  0.07840  0.80690  0.66470  1.0000 0.6202301017
C   C7        1.0  0.07840  0.19310  0.83530  1.0000 0.6202301017
C   C8        1.0  0.92160  0.80690  0.33530  1.0000 0.6202301017
C   C9        1.0  0.73390  0.04090  0.67180  1.0000 -0.0319877572
C   C10       1.0  0.26610  0.95910  0.17180  1.0000 -0.0319877572
C   C11       1.0  0.73390  0.95910  0.82820  1.0000 -0.0319877572
C   C12       1.0  0.26610  0.04090  0.32820  1.0000 -0.0319877572
C   C13       1.0  0.95910  0.26610  0.07820  1.0000 -0.0319877572
C   C14       1.0  0.04090  0.73390  0.57820  1.0000 -0.0319877572
C   C15       1.0  0.04090  0.26610  0.92180  1.0000 -0.0319877572
C   C16       1.0  0.95910  0.73390  0.42180  1.0000 -0.0319877572
C   C17       1.0  0.59930  0.03700  0.67160  1.0000 -0.1032676141
C   C18       1.0  0.40070  0.96300  0.17160  1.0000 -0.1032676141
C   C19       1.0  0.59930  0.96300  0.82840  1.0000 -0.1032676141
C   C20       1.0  0.40070  0.03700  0.32840  1.0000 -0.1032676141
C   C21       1.0  0.96300  0.40070  0.07840  1.0000 -0.1032676141
C   C22       1.0  0.03700  0.59930  0.57840  1.0000 -0.1032676141
C   C23       1.0  0.03700  0.40070  0.92160  1.0000 -0.1032676141
C   C24       1.0  0.96300  0.59930  0.42160  1.0000 -0.1032676141
C   C25       1.0  0.53130  0.00000  0.75000  1.0000 -0.0407257852
C   C26       1.0  0.46870  0.00000  0.25000  1.0000 -0.0407257852
C   C27       1.0  0.00000  0.46870  0.00000  1.0000 -0.0407257852
C   C28       1.0  0.00000  0.53130  0.50000  1.0000 -0.0407257852
C   C29       1.0  0.38490  0.00000  0.75000  1.0000 0.6483109227
C   C30       1.0  0.61510  0.00000  0.25000  1.0000 0.6483109227
C   C31       1.0  0.00000  0.61510  0.00000  1.0000 0.6483109227
C   C32       1.0  0.00000  0.38490  0.50000  1.0000 0.6483109227
C   C33       1.0  0.79850  0.00000  0.75000  1.0000 -0.1222669755
C   C34       1.0  0.20150  0.00000  0.25000  1.0000 -0.1222669755
C   C35       1.0  0.00000  0.20150  0.00000  1.0000 -0.1222669755
C   C36       1.0  0.00000  0.79850  0.50000  1.0000 -0.1222669755
O   O1        1.0  0.74660  0.08220  0.51070  1.0000 -0.6366231212
O   O2        1.0  0.25340  0.91780  0.01070  1.0000 -0.6366231212
O   O3        1.0  0.74660  0.91780  0.98930  1.0000 -0.6366231212
O   O4        1.0  0.25340  0.08220  0.48930  1.0000 -0.6366231212
O   O5        1.0  0.91780  0.25340  0.23930  1.0000 -0.6366231212
O   O6        1.0  0.08220  0.74660  0.73930  1.0000 -0.6366231212
O   O7        1.0  0.08220  0.25340  0.76070  1.0000 -0.6366231212
O   O8        1.0  0.91780  0.74660  0.26070  1.0000 -0.6366231212
O   O9        1.0  0.92200  0.09940  0.59140  1.0000 -0.674378849
O   O10       1.0  0.07800  0.90060  0.09140  1.0000 -0.674378849
O   O11       1.0  0.92200  0.90060  0.90860  1.0000 -0.674378849
O   O12       1.0  0.07800  0.09940  0.40860  1.0000 -0.6756711969
O   O13       1.0  0.90060  0.07800  0.15860  1.0000 -0.6756711969
O   O14       1.0  0.09940  0.92200  0.65860  1.0000 -0.674378849
O   O15       1.0  0.09940  0.07800  0.84140  1.0000 -0.674378849
O   O16       1.0  0.90060  0.92200  0.34140  1.0000 -0.6756711969
O   O17       1.0  0.33160  0.06550  0.69110  1.0000 -0.6538078754
O   O18       1.0  0.66840  0.93450  0.19110  1.0000 -0.6538078754
O   O19       1.0  0.33160  0.93450  0.80890  1.0000 -0.6538078754
O   O20       1.0  0.66840  0.06550  0.30890  1.0000 -0.6553688416
O   O21       1.0  0.93450  0.66840  0.05890  1.0000 -0.6538078754
O   O22       1.0  0.06550  0.33160  0.55890  1.0000 -0.6538078754
O   O23       1.0  0.06550  0.66840  0.94110  1.0000 -0.6553688416
O   O24       1.0  0.93450  0.33160  0.44110  1.0000 -0.6538078754
