# DDEC6 charges by PACMAN v1.1 (https://github.com/mtap-research/PACMAN-charge/)
data_2006[Co][ths]3[ASR]1
_chemical_formula_sum              "Co8 H168 C192 N24 O24"
_cell_length_a       26.2
_cell_length_b       17.465
_cell_length_c       17.275
_cell_angle_alpha    90
_cell_angle_beta     118.18
_cell_angle_gamma    90

_symmetry_space_group_name_H-M    "P 1"
_symmetry_Int_Tables_number       1

loop_
  _symmetry_equiv_pos_as_xyz
  'x, y, z'

loop_
  _atom_site_type_symbol
  _atom_site_label
  _atom_site_symmetry_multiplicity
  _atom_site_fract_x
  _atom_site_fract_y
  _atom_site_fract_z
  _atom_site_occupancy
  _atom_site_charge
Co  Co1       1.0  0.18468  0.59097  0.24195  1.0000 0.41095211
Co  Co2       1.0  0.81532  0.40903  0.75805  1.0000 0.4153400422
Co  Co3       1.0  0.81532  0.59097  0.25805  1.0000 0.41095211
Co  Co4       1.0  0.18468  0.40903  0.74195  1.0000 0.41095211
Co  Co5       1.0  0.68468  0.09097  0.24195  1.0000 0.41095211
Co  Co6       1.0  0.31532  0.90903  0.75805  1.0000 0.41095211
Co  Co7       1.0  0.31532  0.09097  0.25805  1.0000 0.41095211
Co  Co8       1.0  0.68468  0.90903  0.74195  1.0000 0.41095211
H   H1        1.0  0.54078  0.51013  0.34393  1.0000 0.1172406784
H   H2        1.0  0.45922  0.48987  0.65607  1.0000 0.1172406784
H   H3        1.0  0.45922  0.51013  0.15607  1.0000 0.1172406784
H   H4        1.0  0.54078  0.48987  0.84393  1.0000 0.1172406784
H   H5        1.0  0.04078  0.01013  0.34393  1.0000 0.1172406784
H   H6        1.0  0.95922  0.98987  0.65607  1.0000 0.1172406784
H   H7        1.0  0.95922  0.01013  0.15607  1.0000 0.1172406784
H   H8        1.0  0.04078  0.98987  0.84393  1.0000 0.1172406784
H   H9        1.0  0.66212  0.32448  0.46987  1.0000 0.1106656287
H   H10       1.0  0.33788  0.67552  0.53013  1.0000 0.1106656287
H   H11       1.0  0.33788  0.32448  0.03013  1.0000 0.1106656287
H   H12       1.0  0.66212  0.67552  0.96987  1.0000 0.1106656287
H   H13       1.0  0.16212  0.82448  0.46987  1.0000 0.1106656287
H   H14       1.0  0.83788  0.17552  0.53013  1.0000 0.1106656287
H   H15       1.0  0.83788  0.82448  0.03013  1.0000 0.1106656287
H   H16       1.0  0.16212  0.17552  0.96987  1.0000 0.1106656287
H   H17       1.0  0.50439  0.33819  0.49316  1.0000 0.1172406784
H   H18       1.0  0.49561  0.66181  0.50684  1.0000 0.1172406784
H   H19       1.0  0.49561  0.33819  0.00684  1.0000 0.1172406784
H   H20       1.0  0.50439  0.66181  0.99316  1.0000 0.1172406784
H   H21       1.0  0.00439  0.83819  0.49316  1.0000 0.1172406784
H   H22       1.0  0.99561  0.16181  0.50684  1.0000 0.1172406784
H   H23       1.0  0.99561  0.83819  0.00684  1.0000 0.1172406784
H   H24       1.0  0.00439  0.16181  0.99316  1.0000 0.1172406784
H   H25       1.0  0.44444  0.51371  0.28171  1.0000 0.0586009266
H   H26       1.0  0.55556  0.48629  0.71829  1.0000 0.0586009266
H   H27       1.0  0.55556  0.51371  0.21829  1.0000 0.0586009266
H   H28       1.0  0.44444  0.48629  0.78171  1.0000 0.0586009266
H   H29       1.0  0.94444  0.01371  0.28171  1.0000 0.0586009266
H   H30       1.0  0.05556  0.98629  0.71829  1.0000 0.0586009266
H   H31       1.0  0.05556  0.01371  0.21829  1.0000 0.0586009266
H   H32       1.0  0.94444  0.98629  0.78171  1.0000 0.0586009266
H   H33       1.0  0.47127  0.57354  0.37784  1.0000 0.0586009266
H   H34       1.0  0.52873  0.42646  0.62216  1.0000 0.0586009266
H   H35       1.0  0.52873  0.57354  0.12216  1.0000 0.0586009266
H   H36       1.0  0.47127  0.42646  0.87784  1.0000 0.0586009266
H   H37       1.0  0.97127  0.07354  0.37784  1.0000 0.0586009266
H   H38       1.0  0.02873  0.92646  0.62216  1.0000 0.0586009266
H   H39       1.0  0.02873  0.07354  0.12216  1.0000 0.0586009266
H   H40       1.0  0.97127  0.92646  0.87784  1.0000 0.0586009266
H   H41       1.0  0.26960  0.48136  0.36083  1.0000 0.0780640871
H   H42       1.0  0.73040  0.51864  0.63917  1.0000 0.0780640871
H   H43       1.0  0.73040  0.48136  0.13917  1.0000 0.0780640871
H   H44       1.0  0.26960  0.51864  0.86083  1.0000 0.0780640871
H   H45       1.0  0.76960  0.98136  0.36083  1.0000 0.0780640871
H   H46       1.0  0.23040  0.01864  0.63917  1.0000 0.0780640871
H   H47       1.0  0.23040  0.98136  0.13917  1.0000 0.0780640871
H   H48       1.0  0.76960  0.01864  0.86083  1.0000 0.0780640871
H   H49       1.0  0.37305  0.45104  0.40464  1.0000 0.1172406784
H   H50       1.0  0.62695  0.54896  0.59536  1.0000 0.1172406784
H   H51       1.0  0.62695  0.45104  0.09536  1.0000 0.1172406784
H   H52       1.0  0.37305  0.54896  0.90464  1.0000 0.1172406784
H   H53       1.0  0.87305  0.95104  0.40464  1.0000 0.1172406784
H   H54       1.0  0.12695  0.04896  0.59536  1.0000 0.1172406784
H   H55       1.0  0.12695  0.95104  0.09536  1.0000 0.1172406784
H   H56       1.0  0.87305  0.04896  0.90464  1.0000 0.1172406784
H   H57       1.0  0.37105  0.63678  0.23731  1.0000 0.1106656287
H   H58       1.0  0.62895  0.36322  0.76269  1.0000 0.1106656287
H   H59       1.0  0.62895  0.63678  0.26269  1.0000 0.1106656287
H   H60       1.0  0.37105  0.36322  0.73731  1.0000 0.1106656287
H   H61       1.0  0.87105  0.13678  0.23731  1.0000 0.1106656287
H   H62       1.0  0.12895  0.86322  0.76269  1.0000 0.1106656287
H   H63       1.0  0.12895  0.13678  0.26269  1.0000 0.1106656287
H   H64       1.0  0.87105  0.86322  0.73731  1.0000 0.1106656287
H   H65       1.0  0.26973  0.66570  0.20614  1.0000 0.0780640871
H   H66       1.0  0.73027  0.33430  0.79386  1.0000 0.0780640871
H   H67       1.0  0.73027  0.66570  0.29386  1.0000 0.0780640871
H   H68       1.0  0.26973  0.33430  0.70614  1.0000 0.0780640871
H   H69       1.0  0.76973  0.16570  0.20614  1.0000 0.0780640871
H   H70       1.0  0.23027  0.83430  0.79386  1.0000 0.0780640871
H   H71       1.0  0.23027  0.16570  0.29386  1.0000 0.0780640871
H   H72       1.0  0.76973  0.83430  0.70614  1.0000 0.0780640871
H   H73       1.0  0.21939  0.92031  0.45354  1.0000 0.0488237454
H   H74       1.0  0.78061  0.07969  0.54646  1.0000 0.0488237454
H   H75       1.0  0.78061  0.92031  0.04646  1.0000 0.0488237454
H   H76       1.0  0.21939  0.07969  0.95354  1.0000 0.0488237454
H   H77       1.0  0.71939  0.42031  0.45354  1.0000 0.0488237454
H   H78       1.0  0.28061  0.57969  0.54646  1.0000 0.0488237454
H   H79       1.0  0.28061  0.42031  0.04646  1.0000 0.0488237454
H   H80       1.0  0.71939  0.57969  0.95354  1.0000 0.0488237454
H   H81       1.0  0.20685  0.96411  0.35177  1.0000 0.070602606
H   H82       1.0  0.79315  0.03589  0.64823  1.0000 0.070602606
H   H83       1.0  0.79315  0.96411  0.14823  1.0000 0.070602606
H   H84       1.0  0.20685  0.03589  0.85177  1.0000 0.070602606
H   H85       1.0  0.70685  0.46411  0.35177  1.0000 0.070602606
H   H86       1.0  0.29315  0.53589  0.64823  1.0000 0.070602606
H   H87       1.0  0.29315  0.46411  0.14823  1.0000 0.070602606
H   H88       1.0  0.70685  0.53589  0.85177  1.0000 0.070602606
H   H89       1.0  0.11013  0.72657  0.16538  1.0000 0.0780640871
H   H90       1.0  0.88987  0.27343  0.83462  1.0000 0.0780640871
H   H91       1.0  0.88987  0.72657  0.33462  1.0000 0.0780640871
H   H92       1.0  0.11013  0.27343  0.66538  1.0000 0.0780640871
H   H93       1.0  0.61013  0.22657  0.16538  1.0000 0.0780640871
H   H94       1.0  0.38987  0.77343  0.83462  1.0000 0.0780640871
H   H95       1.0  0.38987  0.22657  0.33462  1.0000 0.0780640871
H   H96       1.0  0.61013  0.77343  0.66538  1.0000 0.0780640871
H   H97       1.0  0.10726  0.85746  0.21951  1.0000 0.1172406784
H   H98       1.0  0.89274  0.14254  0.78049  1.0000 0.1172406784
H   H99       1.0  0.89274  0.85746  0.28049  1.0000 0.1172406784
H   H100      1.0  0.10726  0.14254  0.71951  1.0000 0.1172406784
H   H101      1.0  0.60726  0.35746  0.21951  1.0000 0.1172406784
H   H102      1.0  0.39274  0.64254  0.78049  1.0000 0.1172406784
H   H103      1.0  0.39274  0.35746  0.28049  1.0000 0.1172406784
H   H104      1.0  0.60726  0.64254  0.71951  1.0000 0.1172406784
H   H105      1.0  0.26882  0.80438  0.45302  1.0000 0.0979369864
H   H106      1.0  0.73118  0.19562  0.54698  1.0000 0.0979369864
H   H107      1.0  0.73118  0.80438  0.04698  1.0000 0.0979369864
H   H108      1.0  0.26882  0.19562  0.95302  1.0000 0.0979369864
H   H109      1.0  0.76882  0.30438  0.45302  1.0000 0.0979369864
H   H110      1.0  0.23118  0.69562  0.54698  1.0000 0.0979369864
H   H111      1.0  0.23118  0.30438  0.04698  1.0000 0.0979369864
H   H112      1.0  0.76882  0.69562  0.95302  1.0000 0.0979369864
H   H113      1.0  0.26686  0.67719  0.38730  1.0000 0.0780640871
H   H114      1.0  0.73314  0.32281  0.61270  1.0000 0.0780640871
H   H115      1.0  0.73314  0.67719  0.11270  1.0000 0.0780640871
H   H116      1.0  0.26686  0.32281  0.88730  1.0000 0.0780640871
H   H117      1.0  0.76686  0.17719  0.38730  1.0000 0.0780640871
H   H118      1.0  0.23314  0.82281  0.61270  1.0000 0.0780640871
H   H119      1.0  0.23314  0.17719  0.11270  1.0000 0.0780640871
H   H120      1.0  0.76686  0.82281  0.88730  1.0000 0.0780640871
H   H121      1.0  0.07638  0.23472  0.13063  1.0000 0.0488237454
H   H122      1.0  0.92362  0.76528  0.86937  1.0000 0.0488237454
H   H123      1.0  0.92362  0.23472  0.36937  1.0000 0.0488237454
H   H124      1.0  0.07638  0.76528  0.63063  1.0000 0.0488237454
H   H125      1.0  0.57638  0.73472  0.13063  1.0000 0.0488237454
H   H126      1.0  0.42362  0.26528  0.86937  1.0000 0.0488237454
H   H127      1.0  0.42362  0.73472  0.36937  1.0000 0.0488237454
H   H128      1.0  0.57638  0.26528  0.63063  1.0000 0.0488237454
H   H129      1.0  0.03328  0.28582  0.02976  1.0000 0.0586009266
H   H130      1.0  0.96672  0.71418  0.97024  1.0000 0.0586009266
H   H131      1.0  0.96672  0.28582  0.47024  1.0000 0.0586009266
H   H132      1.0  0.03328  0.71418  0.52976  1.0000 0.0586009266
H   H133      1.0  0.53328  0.78582  0.02976  1.0000 0.0586009266
H   H134      1.0  0.46672  0.21418  0.97024  1.0000 0.0586009266
H   H135      1.0  0.46672  0.78582  0.47024  1.0000 0.0586009266
H   H136      1.0  0.53328  0.21418  0.52976  1.0000 0.0586009266
H   H137      1.0  0.12174  0.47171  0.28676  1.0000 0.070602606
H   H138      1.0  0.87826  0.52829  0.71324  1.0000 0.070602606
H   H139      1.0  0.87826  0.47171  0.21324  1.0000 0.070602606
H   H140      1.0  0.12174  0.52829  0.78676  1.0000 0.070602606
H   H141      1.0  0.62174  0.97171  0.28676  1.0000 0.070602606
H   H142      1.0  0.37826  0.02829  0.71324  1.0000 0.070602606
H   H143      1.0  0.37826  0.97171  0.21324  1.0000 0.070602606
H   H144      1.0  0.62174  0.02829  0.78676  1.0000 0.070602606
H   H145      1.0  0.08397  0.34198  0.22860  1.0000 0.1106656287
H   H146      1.0  0.91603  0.65802  0.77140  1.0000 0.1106656287
H   H147      1.0  0.91603  0.34198  0.27140  1.0000 0.1106656287
H   H148      1.0  0.08397  0.65802  0.72860  1.0000 0.1106656287
H   H149      1.0  0.58397  0.84198  0.22860  1.0000 0.1106656287
H   H150      1.0  0.41603  0.15802  0.77140  1.0000 0.1106656287
H   H151      1.0  0.41603  0.84198  0.27140  1.0000 0.1106656287
H   H152      1.0  0.58397  0.15802  0.72860  1.0000 0.1106656287
H   H153      1.0  0.14378  0.37470  0.03566  1.0000 0.1106656287
H   H154      1.0  0.85622  0.62530  0.96434  1.0000 0.1106656287
H   H155      1.0  0.85622  0.37470  0.46434  1.0000 0.1106656287
H   H156      1.0  0.14378  0.62530  0.53566  1.0000 0.1106656287
H   H157      1.0  0.64378  0.87470  0.03566  1.0000 0.1106656287
H   H158      1.0  0.35622  0.12530  0.96434  1.0000 0.1106656287
H   H159      1.0  0.35622  0.87470  0.46434  1.0000 0.1106656287
H   H160      1.0  0.64378  0.12530  0.53566  1.0000 0.1106656287
H   H161      1.0  0.18172  0.50188  0.10326  1.0000 0.0780640871
H   H162      1.0  0.81828  0.49812  0.89674  1.0000 0.0780640871
H   H163      1.0  0.81828  0.50188  0.39674  1.0000 0.0780640871
H   H164      1.0  0.18172  0.49812  0.60326  1.0000 0.0780640871
H   H165      1.0  0.68172  0.00188  0.10326  1.0000 0.0780640871
H   H166      1.0  0.31828  0.99812  0.89674  1.0000 0.0780640871
H   H167      1.0  0.31828  0.00188  0.39674  1.0000 0.0780640871
H   H168      1.0  0.68172  0.99812  0.60326  1.0000 0.0780640871
C   C1        1.0  0.51675  0.42672  0.41620  1.0000 0.2919714759
C   C2        1.0  0.48325  0.57328  0.58380  1.0000 0.2919714759
C   C3        1.0  0.48325  0.42672  0.08380  1.0000 0.2919714759
C   C4        1.0  0.51675  0.57328  0.91620  1.0000 0.2919714759
C   C5        1.0  0.01675  0.92672  0.41620  1.0000 0.2919714759
C   C6        1.0  0.98325  0.07328  0.58380  1.0000 0.2919714759
C   C7        1.0  0.98325  0.92672  0.08380  1.0000 0.2919714759
C   C8        1.0  0.01675  0.07328  0.91620  1.0000 0.2919714759
C   C9        1.0  0.55187  0.45799  0.38356  1.0000 -0.38178075
C   C10       1.0  0.44813  0.54201  0.61644  1.0000 -0.38178075
C   C11       1.0  0.44813  0.45799  0.11644  1.0000 -0.38178075
C   C12       1.0  0.55187  0.54201  0.88356  1.0000 -0.38178075
C   C13       1.0  0.05187  0.95799  0.38356  1.0000 -0.38178075
C   C14       1.0  0.94813  0.04201  0.61644  1.0000 -0.38178075
C   C15       1.0  0.94813  0.95799  0.11644  1.0000 -0.38178075
C   C16       1.0  0.05187  0.04201  0.88356  1.0000 -0.38178075
C   C17       1.0  0.60417  0.42013  0.40240  1.0000 0.2919714759
C   C18       1.0  0.39583  0.57987  0.59760  1.0000 0.2919714759
C   C19       1.0  0.39583  0.42013  0.09760  1.0000 0.2919714759
C   C20       1.0  0.60417  0.57987  0.90240  1.0000 0.2919714759
C   C21       1.0  0.10417  0.92013  0.40240  1.0000 0.2919714759
C   C22       1.0  0.89583  0.07987  0.59760  1.0000 0.2919714759
C   C23       1.0  0.89583  0.92013  0.09760  1.0000 0.2919714759
C   C24       1.0  0.10417  0.07987  0.90240  1.0000 0.2919714759
C   C25       1.0  0.62234  0.35524  0.45535  1.0000 -0.38178075
C   C26       1.0  0.37766  0.64476  0.54465  1.0000 -0.38178075
C   C27       1.0  0.37766  0.35524  0.04465  1.0000 -0.38178075
C   C28       1.0  0.62234  0.64476  0.95535  1.0000 -0.38178075
C   C29       1.0  0.12234  0.85524  0.45535  1.0000 -0.38178075
C   C30       1.0  0.87766  0.14476  0.54465  1.0000 -0.38178075
C   C31       1.0  0.87766  0.85524  0.04465  1.0000 -0.38178075
C   C32       1.0  0.12234  0.14476  0.95535  1.0000 -0.38178075
C   C33       1.0  0.58668  0.32619  0.48930  1.0000 0.2919714759
C   C34       1.0  0.41332  0.67381  0.51070  1.0000 0.2919714759
C   C35       1.0  0.41332  0.32619  0.01070  1.0000 0.2919714759
C   C36       1.0  0.58668  0.67381  0.98930  1.0000 0.2919714759
C   C37       1.0  0.08668  0.82619  0.48930  1.0000 0.2919714759
C   C38       1.0  0.91332  0.17381  0.51070  1.0000 0.2919714759
C   C39       1.0  0.91332  0.82619  0.01070  1.0000 0.2919714759
C   C40       1.0  0.08668  0.17381  0.98930  1.0000 0.2919714759
C   C41       1.0  0.53359  0.36030  0.46956  1.0000 -0.38178075
C   C42       1.0  0.46641  0.63970  0.53044  1.0000 -0.38178075
C   C43       1.0  0.46641  0.36030  0.03044  1.0000 -0.38178075
C   C44       1.0  0.53359  0.63970  0.96956  1.0000 -0.38178075
C   C45       1.0  0.03359  0.86030  0.46956  1.0000 -0.38178075
C   C46       1.0  0.96641  0.13970  0.53044  1.0000 -0.38178075
C   C47       1.0  0.96641  0.86030  0.03044  1.0000 -0.38178075
C   C48       1.0  0.03359  0.13970  0.96956  1.0000 -0.38178075
C   C49       1.0  0.44266  0.52381  0.34394  1.0000 -0.017230851
C   C50       1.0  0.55734  0.47619  0.65606  1.0000 -0.017230851
C   C51       1.0  0.55734  0.52381  0.15606  1.0000 -0.017230851
C   C52       1.0  0.44266  0.47619  0.84394  1.0000 -0.017230851
C   C53       1.0  0.94266  0.02381  0.34394  1.0000 -0.017230851
C   C54       1.0  0.05734  0.97619  0.65606  1.0000 -0.017230851
C   C55       1.0  0.05734  0.02381  0.15606  1.0000 -0.017230851
C   C56       1.0  0.94266  0.97619  0.84394  1.0000 -0.017230851
C   C57       1.0  0.29384  0.51499  0.33543  1.0000 0.0586009266
C   C58       1.0  0.70616  0.48501  0.66457  1.0000 0.0586009266
C   C59       1.0  0.70616  0.51499  0.16457  1.0000 0.0586009266
C   C60       1.0  0.29384  0.48501  0.83543  1.0000 0.0586009266
C   C61       1.0  0.79384  0.01499  0.33543  1.0000 0.0586009266
C   C62       1.0  0.20616  0.98501  0.66457  1.0000 0.0586009266
C   C63       1.0  0.20616  0.01499  0.16457  1.0000 0.0586009266
C   C64       1.0  0.79384  0.98501  0.83543  1.0000 0.0586009266
C   C65       1.0  0.35132  0.49787  0.35889  1.0000 -0.1695337676
C   C66       1.0  0.64868  0.50213  0.64111  1.0000 -0.1695337676
C   C67       1.0  0.64868  0.49787  0.14111  1.0000 -0.1695337676
C   C68       1.0  0.35132  0.50213  0.85889  1.0000 -0.1695337676
C   C69       1.0  0.85132  0.99787  0.35889  1.0000 -0.1695337676
C   C70       1.0  0.14868  0.00213  0.64111  1.0000 -0.1695337676
C   C71       1.0  0.14868  0.99787  0.14111  1.0000 -0.1695337676
C   C72       1.0  0.85132  0.00213  0.85889  1.0000 -0.1695337676
C   C73       1.0  0.38124  0.54043  0.32416  1.0000 0.1172406784
C   C74       1.0  0.61876  0.45957  0.67584  1.0000 0.1172406784
C   C75       1.0  0.61876  0.54043  0.17584  1.0000 0.1172406784
C   C76       1.0  0.38124  0.45957  0.82416  1.0000 0.1172406784
C   C77       1.0  0.88124  0.04043  0.32416  1.0000 0.1172406784
C   C78       1.0  0.11876  0.95957  0.67584  1.0000 0.1172406784
C   C79       1.0  0.11876  0.04043  0.17584  1.0000 0.1172406784
C   C80       1.0  0.88124  0.95957  0.82416  1.0000 0.1172406784
C   C81       1.0  0.35065  0.60133  0.26756  1.0000 -0.1890770621
C   C82       1.0  0.64935  0.39867  0.73244  1.0000 -0.1890770621
C   C83       1.0  0.64935  0.60133  0.23244  1.0000 -0.1890770621
C   C84       1.0  0.35065  0.39867  0.76756  1.0000 -0.1890770621
C   C85       1.0  0.85065  0.10133  0.26756  1.0000 -0.1890770621
C   C86       1.0  0.14935  0.89867  0.73244  1.0000 -0.1890770621
C   C87       1.0  0.14935  0.10133  0.23244  1.0000 -0.1890770621
C   C88       1.0  0.85065  0.89867  0.76756  1.0000 -0.1890770621
C   C89       1.0  0.29380  0.61744  0.24854  1.0000 0.0488237454
C   C90       1.0  0.70620  0.38256  0.75146  1.0000 0.0488237454
C   C91       1.0  0.70620  0.61744  0.25146  1.0000 0.0488237454
C   C92       1.0  0.29380  0.38256  0.74854  1.0000 0.0488237454
C   C93       1.0  0.79380  0.11744  0.24854  1.0000 0.0488237454
C   C94       1.0  0.20620  0.88256  0.75146  1.0000 0.0488237454
C   C95       1.0  0.20620  0.11744  0.25146  1.0000 0.0488237454
C   C96       1.0  0.79380  0.88256  0.74854  1.0000 0.0488237454
C   C97       1.0  0.19000  0.92129  0.38141  1.0000 -0.026977086
C   C98       1.0  0.81000  0.07871  0.61859  1.0000 -0.026977086
C   C99       1.0  0.81000  0.92129  0.11859  1.0000 -0.026977086
C   C100      1.0  0.19000  0.07871  0.88141  1.0000 -0.026977086
C   C101      1.0  0.69000  0.42129  0.38141  1.0000 -0.026977086
C   C102      1.0  0.31000  0.57871  0.61859  1.0000 -0.026977086
C   C103      1.0  0.31000  0.42129  0.11859  1.0000 -0.026977086
C   C104      1.0  0.69000  0.57871  0.88141  1.0000 -0.026977086
C   C105      1.0  0.14451  0.74631  0.22891  1.0000 0.0586009266
C   C106      1.0  0.85549  0.25369  0.77109  1.0000 0.0586009266
C   C107      1.0  0.85549  0.74631  0.27109  1.0000 0.0586009266
C   C108      1.0  0.14451  0.25369  0.72891  1.0000 0.0586009266
C   C109      1.0  0.64451  0.24631  0.22891  1.0000 0.0586009266
C   C110      1.0  0.35549  0.75369  0.77109  1.0000 0.0586009266
C   C111      1.0  0.35549  0.24631  0.27109  1.0000 0.0586009266
C   C112      1.0  0.64451  0.75369  0.72891  1.0000 0.0586009266
C   C113      1.0  0.14344  0.81955  0.26010  1.0000 -0.1695337676
C   C114      1.0  0.85656  0.18045  0.73990  1.0000 -0.1695337676
C   C115      1.0  0.85656  0.81955  0.23990  1.0000 -0.1695337676
C   C116      1.0  0.14344  0.18045  0.76010  1.0000 -0.1695337676
C   C117      1.0  0.64344  0.31955  0.26010  1.0000 -0.1695337676
C   C118      1.0  0.35656  0.68045  0.73990  1.0000 -0.1695337676
C   C119      1.0  0.35656  0.31955  0.23990  1.0000 -0.1695337676
C   C120      1.0  0.64344  0.68045  0.76010  1.0000 -0.1695337676
C   C121      1.0  0.18770  0.84307  0.34275  1.0000 0.0931807375
C   C122      1.0  0.81230  0.15693  0.65725  1.0000 0.0931807375
C   C123      1.0  0.81230  0.84307  0.15725  1.0000 0.0931807375
C   C124      1.0  0.18770  0.15693  0.84275  1.0000 0.0931807375
C   C125      1.0  0.68770  0.34307  0.34275  1.0000 0.0931807375
C   C126      1.0  0.31230  0.65693  0.65725  1.0000 0.0931807375
C   C127      1.0  0.31230  0.34307  0.15725  1.0000 0.0931807375
C   C128      1.0  0.68770  0.65693  0.84275  1.0000 0.0931807375
C   C129      1.0  0.23259  0.79016  0.38853  1.0000 -0.1890770621
C   C130      1.0  0.76741  0.20984  0.61147  1.0000 -0.1890770621
C   C131      1.0  0.76741  0.79016  0.11147  1.0000 -0.1890770621
C   C132      1.0  0.23259  0.20984  0.88853  1.0000 -0.1890770621
C   C133      1.0  0.73259  0.29016  0.38853  1.0000 -0.1890770621
C   C134      1.0  0.26741  0.70984  0.61147  1.0000 -0.1890770621
C   C135      1.0  0.26741  0.29016  0.11147  1.0000 -0.1890770621
C   C136      1.0  0.73259  0.70984  0.88853  1.0000 -0.1890770621
C   C137      1.0  0.23179  0.71838  0.35328  1.0000 0.0586009266
C   C138      1.0  0.76821  0.28162  0.64672  1.0000 0.0586009266
C   C139      1.0  0.76821  0.71838  0.14672  1.0000 0.0586009266
C   C140      1.0  0.23179  0.28162  0.85328  1.0000 0.0586009266
C   C141      1.0  0.73179  0.21838  0.35328  1.0000 0.0586009266
C   C142      1.0  0.26821  0.78162  0.64672  1.0000 0.0586009266
C   C143      1.0  0.26821  0.21838  0.14672  1.0000 0.0586009266
C   C144      1.0  0.73179  0.78162  0.85328  1.0000 0.0586009266
C   C145      1.0  0.07863  0.27383  0.08133  1.0000 -0.0051804954
C   C146      1.0  0.92137  0.72617  0.91867  1.0000 -0.0051804954
C   C147      1.0  0.92137  0.27383  0.41867  1.0000 -0.0051804954
C   C148      1.0  0.07863  0.72617  0.58133  1.0000 -0.0051804954
C   C149      1.0  0.57863  0.77383  0.08133  1.0000 -0.0051804954
C   C150      1.0  0.42137  0.22617  0.91867  1.0000 -0.0051804954
C   C151      1.0  0.42137  0.77383  0.41867  1.0000 -0.0051804954
C   C152      1.0  0.57863  0.22617  0.58133  1.0000 -0.0051804954
C   C153      1.0  0.12637  0.44780  0.23187  1.0000 0.0488237454
C   C154      1.0  0.87363  0.55220  0.76813  1.0000 0.0488237454
C   C155      1.0  0.87363  0.44780  0.26813  1.0000 0.0488237454
C   C156      1.0  0.12637  0.55220  0.73187  1.0000 0.0488237454
C   C157      1.0  0.62637  0.94780  0.23187  1.0000 0.0488237454
C   C158      1.0  0.37363  0.05220  0.76813  1.0000 0.0488237454
C   C159      1.0  0.37363  0.94780  0.26813  1.0000 0.0488237454
C   C160      1.0  0.62637  0.05220  0.73187  1.0000 0.0488237454
C   C161      1.0  0.10512  0.37556  0.19812  1.0000 -0.1890770621
C   C162      1.0  0.89488  0.62444  0.80188  1.0000 -0.1890770621
C   C163      1.0  0.89488  0.37556  0.30188  1.0000 -0.1890770621
C   C164      1.0  0.10512  0.62444  0.69812  1.0000 -0.1890770621
C   C165      1.0  0.60512  0.87556  0.19812  1.0000 -0.1890770621
C   C166      1.0  0.39488  0.12444  0.80188  1.0000 -0.1890770621
C   C167      1.0  0.39488  0.87556  0.30188  1.0000 -0.1890770621
C   C168      1.0  0.60512  0.12444  0.69812  1.0000 -0.1890770621
C   C169      1.0  0.10902  0.34690  0.12490  1.0000 0.0931807375
C   C170      1.0  0.89098  0.65310  0.87510  1.0000 0.0931807375
C   C171      1.0  0.89098  0.34690  0.37510  1.0000 0.0931807375
C   C172      1.0  0.10902  0.65310  0.62490  1.0000 0.0931807375
C   C173      1.0  0.60902  0.84690  0.12490  1.0000 0.0931807375
C   C174      1.0  0.39098  0.15310  0.87510  1.0000 0.0931807375
C   C175      1.0  0.39098  0.84690  0.37510  1.0000 0.0931807375
C   C176      1.0  0.60902  0.15310  0.62490  1.0000 0.0931807375
C   C177      1.0  0.13803  0.39361  0.09139  1.0000 -0.1695337676
C   C178      1.0  0.86197  0.60639  0.90861  1.0000 -0.1695337676
C   C179      1.0  0.86197  0.39361  0.40861  1.0000 -0.1695337676
C   C180      1.0  0.13803  0.60639  0.59139  1.0000 -0.1695337676
C   C181      1.0  0.63803  0.89361  0.09139  1.0000 -0.1695337676
C   C182      1.0  0.36197  0.10639  0.90861  1.0000 -0.1695337676
C   C183      1.0  0.36197  0.89361  0.40861  1.0000 -0.1695337676
C   C184      1.0  0.63803  0.10639  0.59139  1.0000 -0.1695337676
C   C185      1.0  0.15931  0.46470  0.12856  1.0000 0.0419372194
C   C186      1.0  0.84069  0.53530  0.87144  1.0000 0.0419372194
C   C187      1.0  0.84069  0.46470  0.37144  1.0000 0.0419372194
C   C188      1.0  0.15931  0.53530  0.62856  1.0000 0.0419372194
C   C189      1.0  0.65931  0.96470  0.12856  1.0000 0.0419372194
C   C190      1.0  0.34069  0.03530  0.87144  1.0000 0.0419372194
C   C191      1.0  0.34069  0.96470  0.37144  1.0000 0.0419372194
C   C192      1.0  0.65931  0.03530  0.62856  1.0000 0.0419372194
N   N1        1.0  0.26355  0.57420  0.28020  1.0000 -0.2569921243
N   N2        1.0  0.73645  0.42580  0.71980  1.0000 -0.2538701981
N   N3        1.0  0.73645  0.57420  0.21980  1.0000 -0.2538701981
N   N4        1.0  0.26355  0.42580  0.78020  1.0000 -0.2569921243
N   N5        1.0  0.76355  0.07420  0.28020  1.0000 -0.2569921243
N   N6        1.0  0.23645  0.92580  0.71980  1.0000 -0.2569921243
N   N7        1.0  0.23645  0.07420  0.21980  1.0000 -0.2569921243
N   N8        1.0  0.76355  0.92580  0.78020  1.0000 -0.2569921243
N   N9        1.0  0.18754  0.69322  0.27421  1.0000 -0.2569921243
N   N10       1.0  0.81246  0.30678  0.72579  1.0000 -0.2569921243
N   N11       1.0  0.81246  0.69322  0.22579  1.0000 -0.2538701981
N   N12       1.0  0.18754  0.30678  0.77421  1.0000 -0.2569921243
N   N13       1.0  0.68754  0.19322  0.27421  1.0000 -0.2569921243
N   N14       1.0  0.31246  0.80678  0.72579  1.0000 -0.2569921243
N   N15       1.0  0.31246  0.19322  0.22579  1.0000 -0.2569921243
N   N16       1.0  0.68754  0.80678  0.77421  1.0000 -0.2569921243
N   N17       1.0  0.15337  0.49516  0.19795  1.0000 -0.2673652224
N   N18       1.0  0.84663  0.50484  0.80205  1.0000 -0.2673652224
N   N19       1.0  0.84663  0.49516  0.30205  1.0000 -0.2673652224
N   N20       1.0  0.15337  0.50484  0.69795  1.0000 -0.2673652224
N   N21       1.0  0.65337  0.99516  0.19795  1.0000 -0.2673652224
N   N22       1.0  0.34663  0.00484  0.80205  1.0000 -0.2673652224
N   N23       1.0  0.34663  0.99516  0.30205  1.0000 -0.2673652224
N   N24       1.0  0.65337  0.00484  0.69795  1.0000 -0.2673652224
O   O1        1.0  0.46352  0.45695  0.39924  1.0000 -0.2297002949
O   O2        1.0  0.53648  0.54305  0.60076  1.0000 -0.2297002949
O   O3        1.0  0.53648  0.45695  0.10076  1.0000 -0.2297002949
O   O4        1.0  0.46352  0.54305  0.89924  1.0000 -0.2297002949
O   O5        1.0  0.96352  0.95695  0.39924  1.0000 -0.2297002949
O   O6        1.0  0.03648  0.04305  0.60076  1.0000 -0.2297002949
O   O7        1.0  0.03648  0.95695  0.10076  1.0000 -0.2297002949
O   O8        1.0  0.96352  0.04305  0.89924  1.0000 -0.2297002949
O   O9        1.0  0.63430  0.45307  0.36320  1.0000 -0.220250295
O   O10       1.0  0.36570  0.54693  0.63680  1.0000 -0.220250295
O   O11       1.0  0.36570  0.45307  0.13680  1.0000 -0.220250295
O   O12       1.0  0.63430  0.54693  0.86320  1.0000 -0.220250295
O   O13       1.0  0.13430  0.95307  0.36320  1.0000 -0.220250295
O   O14       1.0  0.86570  0.04693  0.63680  1.0000 -0.220250295
O   O15       1.0  0.86570  0.95307  0.13680  1.0000 -0.220250295
O   O16       1.0  0.13430  0.04693  0.86320  1.0000 -0.220250295
O   O17       1.0  0.60984  0.26225  0.54142  1.0000 -0.220250295
O   O18       1.0  0.39016  0.73775  0.45858  1.0000 -0.220250295
O   O19       1.0  0.39016  0.26225  0.95858  1.0000 -0.220250295
O   O20       1.0  0.60984  0.73775  0.04142  1.0000 -0.220250295
O   O21       1.0  0.10984  0.76225  0.54142  1.0000 -0.220250295
O   O22       1.0  0.89016  0.23775  0.45858  1.0000 -0.220250295
O   O23       1.0  0.89016  0.76225  0.95858  1.0000 -0.220250295
O   O24       1.0  0.10984  0.23775  0.04142  1.0000 -0.220250295
