# DDEC6 charges by PACMAN v1.1 (https://github.com/mtap-research/PACMAN-charge/)
data_2006[Ni][nan]3[ASR]3
_chemical_formula_sum              "Ni8 H56 C72 N8 O40"
_cell_length_a       9.3525
_cell_length_b       10.917
_cell_length_c       24.175
_cell_angle_alpha    90
_cell_angle_beta     90
_cell_angle_gamma    90

_symmetry_space_group_name_H-M    "P 1"
_symmetry_Int_Tables_number       1

loop_
  _symmetry_equiv_pos_as_xyz
  'x, y, z'

loop_
  _atom_site_type_symbol
  _atom_site_label
  _atom_site_symmetry_multiplicity
  _atom_site_fract_x
  _atom_site_fract_y
  _atom_site_fract_z
  _atom_site_occupancy
  _atom_site_charge
Ni  Ni1       1.0  0.24004  0.23011  0.03775  1.0000 0.8981813559
Ni  Ni2       1.0  0.25996  0.26989  0.53775  1.0000 0.8981813559
Ni  Ni3       1.0  0.75996  0.23011  0.46226  1.0000 0.8981813559
Ni  Ni4       1.0  0.74004  0.26989  0.96226  1.0000 0.8981813559
Ni  Ni5       1.0  0.75996  0.76989  0.96226  1.0000 0.8981813559
Ni  Ni6       1.0  0.74004  0.73011  0.46226  1.0000 0.8981813559
Ni  Ni7       1.0  0.24004  0.76989  0.53775  1.0000 0.8981813559
Ni  Ni8       1.0  0.25996  0.73011  0.03775  1.0000 0.8981813559
H   H1        1.0  0.38260  0.42910  0.92749  1.0000 0.1088632628
H   H2        1.0  0.11740  0.07090  0.42750  1.0000 0.1088632628
H   H3        1.0  0.61740  0.42910  0.57251  1.0000 0.1088632628
H   H4        1.0  0.88260  0.07090  0.07251  1.0000 0.1088632628
H   H5        1.0  0.61740  0.57090  0.07251  1.0000 0.1088632628
H   H6        1.0  0.88260  0.92910  0.57251  1.0000 0.1088632628
H   H7        1.0  0.38260  0.57090  0.42750  1.0000 0.1088632628
H   H8        1.0  0.11740  0.92910  0.92749  1.0000 0.1088632628
H   H9        1.0  0.15910  0.40540  0.89180  1.0000 0.1369896675
H   H10       1.0  0.34090  0.09460  0.39180  1.0000 0.1369896675
H   H11       1.0  0.84090  0.40540  0.60820  1.0000 0.1369896675
H   H12       1.0  0.65910  0.09460  0.10820  1.0000 0.1369896675
H   H13       1.0  0.84090  0.59460  0.10820  1.0000 0.1369896675
H   H14       1.0  0.65910  0.90540  0.60820  1.0000 0.1369896675
H   H15       1.0  0.15910  0.59460  0.39180  1.0000 0.1369896675
H   H16       1.0  0.34090  0.90540  0.89180  1.0000 0.1369896675
H   H17       1.0  0.14860  0.51780  0.93180  1.0000 0.1528163621
H   H18       1.0  0.35140  0.98220  0.43179  1.0000 0.1528163621
H   H19       1.0  0.85140  0.51780  0.56820  1.0000 0.1528163621
H   H20       1.0  0.64860  0.98220  0.06821  1.0000 0.1528163621
H   H21       1.0  0.85140  0.48220  0.06821  1.0000 0.1528163621
H   H22       1.0  0.64860  0.01780  0.56820  1.0000 0.1528163621
H   H23       1.0  0.14860  0.48220  0.43179  1.0000 0.1528163621
H   H24       1.0  0.35140  0.01780  0.93180  1.0000 0.1528163621
H   H25       1.0  0.10190  0.40250  0.11660  1.0000 0.1313195316
H   H26       1.0  0.39810  0.09750  0.61660  1.0000 0.1313195316
H   H27       1.0  0.89810  0.40250  0.38340  1.0000 0.1313195316
H   H28       1.0  0.60190  0.09750  0.88340  1.0000 0.1313195316
H   H29       1.0  0.89810  0.59750  0.88340  1.0000 0.1313195316
H   H30       1.0  0.60190  0.90250  0.38340  1.0000 0.1313195316
H   H31       1.0  0.10190  0.59750  0.61660  1.0000 0.1313195316
H   H32       1.0  0.39810  0.90250  0.11660  1.0000 0.1313195316
H   H33       1.0  0.99900  0.40850  0.20300  1.0000 0.1369896675
H   H34       1.0  0.50100  0.09150  0.70300  1.0000 0.1369896675
H   H35       1.0  0.00100  0.40850  0.29701  1.0000 0.1369896675
H   H36       1.0  0.49900  0.09150  0.79701  1.0000 0.1369896675
H   H37       1.0  0.00100  0.59150  0.79701  1.0000 0.1369896675
H   H38       1.0  0.49900  0.90850  0.29701  1.0000 0.1369896675
H   H39       1.0  0.99900  0.59150  0.70300  1.0000 0.1369896675
H   H40       1.0  0.50100  0.90850  0.20300  1.0000 0.1369896675
H   H41       1.0  0.08560  0.05030  0.21860  1.0000 0.1369896675
H   H42       1.0  0.41440  0.44970  0.71859  1.0000 0.1369896675
H   H43       1.0  0.91440  0.05030  0.28141  1.0000 0.1369896675
H   H44       1.0  0.58560  0.44970  0.78141  1.0000 0.1369896675
H   H45       1.0  0.91440  0.94970  0.78141  1.0000 0.1369896675
H   H46       1.0  0.58560  0.55030  0.28141  1.0000 0.1369896675
H   H47       1.0  0.08560  0.94970  0.71859  1.0000 0.1369896675
H   H48       1.0  0.41440  0.55030  0.21860  1.0000 0.1369896675
H   H49       1.0  0.17870  0.05350  0.13029  1.0000 0.1313195316
H   H50       1.0  0.32130  0.44650  0.63030  1.0000 0.1313195316
H   H51       1.0  0.82130  0.05350  0.36971  1.0000 0.1313195316
H   H52       1.0  0.67870  0.44650  0.86970  1.0000 0.1313195316
H   H53       1.0  0.82130  0.94650  0.86970  1.0000 0.1313195316
H   H54       1.0  0.67870  0.55350  0.36971  1.0000 0.1313195316
H   H55       1.0  0.17870  0.94650  0.63030  1.0000 0.1313195316
H   H56       1.0  0.32130  0.55350  0.13029  1.0000 0.1313195316
C   C1        1.0  0.33290  0.46150  0.00987  1.0000 0.5798902431
C   C2        1.0  0.16710  0.03850  0.50987  1.0000 0.5798902431
C   C3        1.0  0.66710  0.46150  0.49013  1.0000 0.5798902431
C   C4        1.0  0.83290  0.03850  0.99013  1.0000 0.5798902431
C   C5        1.0  0.66710  0.53850  0.99013  1.0000 0.5798902431
C   C6        1.0  0.83290  0.96150  0.49013  1.0000 0.5798902431
C   C7        1.0  0.33290  0.53850  0.50987  1.0000 0.5798902431
C   C8        1.0  0.16710  0.96150  0.00987  1.0000 0.5798902431
C   C9        1.0  0.30980  0.39970  0.95339  1.0000 0.0757619956
C   C10       1.0  0.19020  0.10030  0.45338  1.0000 0.0757619956
C   C11       1.0  0.69020  0.39970  0.54661  1.0000 0.0757619956
C   C12       1.0  0.80980  0.10030  0.04661  1.0000 0.0757619956
C   C13       1.0  0.69020  0.60030  0.04661  1.0000 0.0757619956
C   C14       1.0  0.80980  0.89970  0.54661  1.0000 0.0757619956
C   C15       1.0  0.30980  0.60030  0.45338  1.0000 0.0757619956
C   C16       1.0  0.19020  0.89970  0.95339  1.0000 0.0757619956
C   C17       1.0  0.16200  0.42970  0.93041  1.0000 -0.3884889713
C   C18       1.0  0.33800  0.07030  0.43040  1.0000 -0.3884889713
C   C19       1.0  0.83800  0.42970  0.56959  1.0000 -0.3884889713
C   C20       1.0  0.66200  0.07030  0.06960  1.0000 -0.3884889713
C   C21       1.0  0.83800  0.57030  0.06960  1.0000 -0.3884889713
C   C22       1.0  0.66200  0.92970  0.56959  1.0000 -0.3884889713
C   C23       1.0  0.16200  0.57030  0.43040  1.0000 -0.3884889713
C   C24       1.0  0.33800  0.92970  0.93041  1.0000 -0.3884889713
C   C25       1.0  0.03770  0.36860  0.96052  1.0000 0.6637923041
C   C26       1.0  0.46230  0.13140  0.46053  1.0000 0.6637923041
C   C27       1.0  0.96230  0.36860  0.53948  1.0000 0.6637923041
C   C28       1.0  0.53770  0.13140  0.03948  1.0000 0.6637923041
C   C29       1.0  0.96230  0.63140  0.03948  1.0000 0.6637923041
C   C30       1.0  0.53770  0.86860  0.53948  1.0000 0.6637923041
C   C31       1.0  0.03770  0.63140  0.46053  1.0000 0.6637923041
C   C32       1.0  0.46230  0.86860  0.96052  1.0000 0.6637923041
C   C33       1.0  0.09770  0.33090  0.13742  1.0000 0.1088632628
C   C34       1.0  0.40230  0.16910  0.63743  1.0000 0.1088632628
C   C35       1.0  0.90230  0.33090  0.36257  1.0000 0.1088632628
C   C36       1.0  0.59770  0.16910  0.86257  1.0000 0.1088632628
C   C37       1.0  0.90230  0.66910  0.86257  1.0000 0.1088632628
C   C38       1.0  0.59770  0.83090  0.36257  1.0000 0.1088632628
C   C39       1.0  0.09770  0.66910  0.63743  1.0000 0.1088632628
C   C40       1.0  0.40230  0.83090  0.13742  1.0000 0.1088632628
C   C41       1.0  0.03660  0.33550  0.18957  1.0000 -0.1984210076
C   C42       1.0  0.46340  0.16450  0.68956  1.0000 -0.1984210076
C   C43       1.0  0.96340  0.33550  0.31044  1.0000 -0.1984210076
C   C44       1.0  0.53660  0.16450  0.81044  1.0000 -0.1984210076
C   C45       1.0  0.96340  0.66450  0.81044  1.0000 -0.1984210076
C   C46       1.0  0.53660  0.83550  0.31044  1.0000 -0.1984210076
C   C47       1.0  0.03660  0.66450  0.68956  1.0000 -0.1984210076
C   C48       1.0  0.46340  0.83550  0.18957  1.0000 -0.1984210076
C   C49       1.0  0.03200  0.22970  0.22162  1.0000 0.10345443
C   C50       1.0  0.46800  0.27030  0.72162  1.0000 0.10345443
C   C51       1.0  0.96800  0.22970  0.27838  1.0000 0.10345443
C   C52       1.0  0.53200  0.27030  0.77838  1.0000 0.10345443
C   C53       1.0  0.96800  0.77030  0.77838  1.0000 0.10345443
C   C54       1.0  0.53200  0.72970  0.27838  1.0000 0.10345443
C   C55       1.0  0.03200  0.77030  0.72162  1.0000 0.10345443
C   C56       1.0  0.46800  0.72970  0.22162  1.0000 0.10345443
C   C57       1.0  0.08700  0.12310  0.19862  1.0000 -0.1984210076
C   C58       1.0  0.41300  0.37690  0.69863  1.0000 -0.1984210076
C   C59       1.0  0.91300  0.12310  0.30138  1.0000 -0.1984210076
C   C60       1.0  0.58700  0.37690  0.80137  1.0000 -0.1984210076
C   C61       1.0  0.91300  0.87690  0.80137  1.0000 -0.1984210076
C   C62       1.0  0.58700  0.62310  0.30138  1.0000 -0.1984210076
C   C63       1.0  0.08700  0.87690  0.69863  1.0000 -0.1984210076
C   C64       1.0  0.41300  0.62310  0.19862  1.0000 -0.1984210076
C   C65       1.0  0.14400  0.12590  0.14553  1.0000 0.1088632628
C   C66       1.0  0.35600  0.37410  0.64553  1.0000 0.1088632628
C   C67       1.0  0.85600  0.12590  0.35446  1.0000 0.1088632628
C   C68       1.0  0.64400  0.37410  0.85447  1.0000 0.1088632628
C   C69       1.0  0.85600  0.87410  0.85447  1.0000 0.1088632628
C   C70       1.0  0.64400  0.62590  0.35446  1.0000 0.1088632628
C   C71       1.0  0.14400  0.87410  0.64553  1.0000 0.1088632628
C   C72       1.0  0.35600  0.62590  0.14553  1.0000 0.1088632628
N   N1        1.0  0.15100  0.22730  0.11580  1.0000 -0.1854580572
N   N2        1.0  0.34900  0.27270  0.61579  1.0000 -0.1854580572
N   N3        1.0  0.84900  0.22730  0.38421  1.0000 -0.1854580572
N   N4        1.0  0.65100  0.27270  0.88421  1.0000 -0.1854580572
N   N5        1.0  0.84900  0.77270  0.88421  1.0000 -0.1854580572
N   N6        1.0  0.65100  0.72730  0.38421  1.0000 -0.1854580572
N   N7        1.0  0.15100  0.77270  0.61579  1.0000 -0.1854580572
N   N8        1.0  0.34900  0.72730  0.11580  1.0000 -0.1854580572
O   O1        1.0  0.33140  0.39700  0.05210  1.0000 -0.5185561558
O   O2        1.0  0.16860  0.10300  0.55210  1.0000 -0.5185561558
O   O3        1.0  0.66860  0.39700  0.44790  1.0000 -0.5185561558
O   O4        1.0  0.83140  0.10300  0.94790  1.0000 -0.5185561558
O   O5        1.0  0.66860  0.60300  0.94790  1.0000 -0.5185561558
O   O6        1.0  0.83140  0.89700  0.44790  1.0000 -0.5185561558
O   O7        1.0  0.33140  0.60300  0.55210  1.0000 -0.5185561558
O   O8        1.0  0.16860  0.89700  0.05210  1.0000 -0.5185561558
O   O9        1.0  0.32040  0.26828  0.95796  1.0000 -0.4136461956
O   O10       1.0  0.17960  0.23172  0.45797  1.0000 -0.4136461956
O   O11       1.0  0.67960  0.26828  0.54204  1.0000 -0.4136461956
O   O12       1.0  0.82040  0.23172  0.04204  1.0000 -0.4136461956
O   O13       1.0  0.67960  0.73172  0.04204  1.0000 -0.4136461956
O   O14       1.0  0.82040  0.76828  0.54204  1.0000 -0.4136461956
O   O15       1.0  0.32040  0.73172  0.45797  1.0000 -0.4136461956
O   O16       1.0  0.17960  0.76828  0.95796  1.0000 -0.4136461956
O   O17       1.0  0.05920  0.32310  0.00814  1.0000 -0.5040282464
O   O18       1.0  0.44080  0.17690  0.50814  1.0000 -0.5040282464
O   O19       1.0  0.94080  0.32310  0.49185  1.0000 -0.5040282464
O   O20       1.0  0.55920  0.17690  0.99186  1.0000 -0.5040282464
O   O21       1.0  0.94080  0.67690  0.99186  1.0000 -0.5040282464
O   O22       1.0  0.55920  0.82310  0.49185  1.0000 -0.5040282464
O   O23       1.0  0.05920  0.67690  0.50814  1.0000 -0.5040282464
O   O24       1.0  0.44080  0.82310  0.00814  1.0000 -0.5040282464
O   O25       1.0  0.35350  0.57550  0.00830  1.0000 -0.5084515592
O   O26       1.0  0.14650  0.92450  0.50830  1.0000 -0.5084515592
O   O27       1.0  0.64650  0.57550  0.49171  1.0000 -0.5084515592
O   O28       1.0  0.85350  0.92450  0.99171  1.0000 -0.5084515592
O   O29       1.0  0.64650  0.42450  0.99171  1.0000 -0.5084515592
O   O30       1.0  0.85350  0.07550  0.49171  1.0000 -0.5084515592
O   O31       1.0  0.35350  0.42450  0.50830  1.0000 -0.5084515592
O   O32       1.0  0.14650  0.07550  0.00830  1.0000 -0.5084515592
O   O33       1.0  0.91930  0.36970  0.93685  1.0000 -0.5586233443
O   O34       1.0  0.58070  0.13030  0.43685  1.0000 -0.5586233443
O   O35       1.0  0.08070  0.36970  0.56315  1.0000 -0.5586233443
O   O36       1.0  0.41930  0.13030  0.06315  1.0000 -0.5586233443
O   O37       1.0  0.08070  0.63030  0.06315  1.0000 -0.5586233443
O   O38       1.0  0.41930  0.86970  0.56315  1.0000 -0.5586233443
O   O39       1.0  0.91930  0.63030  0.43685  1.0000 -0.5586233443
O   O40       1.0  0.58070  0.86970  0.93685  1.0000 -0.5586233443
