# DDEC6 charges by PACMAN v1.1 (https://github.com/mtap-research/PACMAN-charge/)
data_2006[In][sod]3[ASR]1
_chemical_formula_sum              "In24 H48 C240 N96 O192"
_cell_length_a       25.4866
_cell_length_b       25.4866
_cell_length_c       25.4866
_cell_angle_alpha    60
_cell_angle_beta     60
_cell_angle_gamma    60

_symmetry_space_group_name_H-M    "P 1"
_symmetry_Int_Tables_number       1

loop_
  _symmetry_equiv_pos_as_xyz
  'x, y, z'

loop_
  _atom_site_type_symbol
  _atom_site_label
  _atom_site_symmetry_multiplicity
  _atom_site_fract_x
  _atom_site_fract_y
  _atom_site_fract_z
  _atom_site_occupancy
  _atom_site_charge
In  In1       1.0  0.38896  0.86104  0.12500  1.0000 1.1637663872
In  In2       1.0  0.12500  0.38896  0.86104  1.0000 1.1637663872
In  In3       1.0  0.86104  0.12500  0.38896  1.0000 1.1637663872
In  In4       1.0  0.86104  0.38896  0.62500  1.0000 1.1637663872
In  In5       1.0  0.12500  0.62500  0.38896  1.0000 1.1637663872
In  In6       1.0  0.62500  0.12500  0.86104  1.0000 1.1637663872
In  In7       1.0  0.12500  0.86104  0.62500  1.0000 1.1637663872
In  In8       1.0  0.62500  0.38896  0.12500  1.0000 1.1637663872
In  In9       1.0  0.38896  0.62500  0.86104  1.0000 1.1637663872
In  In10      1.0  0.38896  0.12500  0.62500  1.0000 1.1637663872
In  In11      1.0  0.86104  0.62500  0.12500  1.0000 1.1637663872
In  In12      1.0  0.62500  0.86104  0.38896  1.0000 1.1637663872
In  In13      1.0  0.36104  0.88896  0.62500  1.0000 1.1637663872
In  In14      1.0  0.62500  0.36104  0.88896  1.0000 1.1637663872
In  In15      1.0  0.88896  0.62500  0.36104  1.0000 1.1637663872
In  In16      1.0  0.88896  0.36104  0.12500  1.0000 1.1637663872
In  In17      1.0  0.62500  0.12500  0.36104  1.0000 1.1637663872
In  In18      1.0  0.12500  0.62500  0.88896  1.0000 1.1637663872
In  In19      1.0  0.62500  0.88896  0.12500  1.0000 1.1637663872
In  In20      1.0  0.12500  0.36104  0.62500  1.0000 1.1637663872
In  In21      1.0  0.36104  0.12500  0.88896  1.0000 1.1637663872
In  In22      1.0  0.36104  0.62500  0.12500  1.0000 1.1637663872
In  In23      1.0  0.88896  0.12500  0.62500  1.0000 1.1637663872
In  In24      1.0  0.12500  0.88896  0.36104  1.0000 1.1637663872
H   H1        1.0  0.53220  0.82040  0.12960  1.0000 0.1433807792
H   H2        1.0  0.12960  0.53220  0.82040  1.0000 0.1433807792
H   H3        1.0  0.82040  0.12960  0.53220  1.0000 0.1433807792
H   H4        1.0  0.71780  0.42960  0.73220  1.0000 0.1433807792
H   H5        1.0  0.12040  0.73220  0.42960  1.0000 0.1433807792
H   H6        1.0  0.73220  0.12040  0.71780  1.0000 0.1433807792
H   H7        1.0  0.12040  0.71780  0.73220  1.0000 0.1433807792
H   H8        1.0  0.73220  0.42960  0.12040  1.0000 0.1433807792
H   H9        1.0  0.42960  0.73220  0.71780  1.0000 0.1433807792
H   H10       1.0  0.42960  0.12040  0.73220  1.0000 0.1433807792
H   H11       1.0  0.71780  0.73220  0.12040  1.0000 0.1433807792
H   H12       1.0  0.73220  0.71780  0.42960  1.0000 0.1433807792
H   H13       1.0  0.82040  0.53220  0.51780  1.0000 0.1433807792
H   H14       1.0  0.53220  0.12960  0.51780  1.0000 0.1433807792
H   H15       1.0  0.12960  0.82040  0.51780  1.0000 0.1433807792
H   H16       1.0  0.51780  0.12960  0.82040  1.0000 0.1433807792
H   H17       1.0  0.51780  0.82040  0.53220  1.0000 0.1433807792
H   H18       1.0  0.51780  0.53220  0.12960  1.0000 0.1433807792
H   H19       1.0  0.12960  0.51780  0.53220  1.0000 0.1433807792
H   H20       1.0  0.82040  0.51780  0.12960  1.0000 0.1433807792
H   H21       1.0  0.53220  0.51780  0.82040  1.0000 0.1433807792
H   H22       1.0  0.42960  0.71780  0.12040  1.0000 0.1433807792
H   H23       1.0  0.71780  0.12040  0.42960  1.0000 0.1433807792
H   H24       1.0  0.12040  0.42960  0.71780  1.0000 0.1433807792
H   H25       1.0  0.21780  0.92960  0.62040  1.0000 0.1433807792
H   H26       1.0  0.62040  0.21780  0.92960  1.0000 0.1433807792
H   H27       1.0  0.92960  0.62040  0.21780  1.0000 0.1433807792
H   H28       1.0  0.03220  0.32040  0.01780  1.0000 0.1433807792
H   H29       1.0  0.62960  0.01780  0.32040  1.0000 0.1433807792
H   H30       1.0  0.01780  0.62960  0.03220  1.0000 0.1433807792
H   H31       1.0  0.62960  0.03220  0.01780  1.0000 0.1433807792
H   H32       1.0  0.01780  0.32040  0.62960  1.0000 0.1433807792
H   H33       1.0  0.32040  0.01780  0.03220  1.0000 0.1433807792
H   H34       1.0  0.32040  0.62960  0.01780  1.0000 0.1433807792
H   H35       1.0  0.03220  0.01780  0.62960  1.0000 0.1433807792
H   H36       1.0  0.01780  0.03220  0.32040  1.0000 0.1433807792
H   H37       1.0  0.92960  0.21780  0.23220  1.0000 0.1433807792
H   H38       1.0  0.21780  0.62040  0.23220  1.0000 0.1433807792
H   H39       1.0  0.62040  0.92960  0.23220  1.0000 0.1433807792
H   H40       1.0  0.23220  0.62040  0.92960  1.0000 0.1433807792
H   H41       1.0  0.23220  0.92960  0.21780  1.0000 0.1433807792
H   H42       1.0  0.23220  0.21780  0.62040  1.0000 0.1433807792
H   H43       1.0  0.62040  0.23220  0.21780  1.0000 0.1433807792
H   H44       1.0  0.92960  0.23220  0.62040  1.0000 0.1433807792
H   H45       1.0  0.21780  0.23220  0.92960  1.0000 0.1433807792
H   H46       1.0  0.32040  0.03220  0.62960  1.0000 0.1433807792
H   H47       1.0  0.03220  0.62960  0.32040  1.0000 0.1433807792
H   H48       1.0  0.62960  0.32040  0.03220  1.0000 0.1433807792
C   C1        1.0  0.43080  0.94820  0.14600  1.0000 0.0710580492
C   C2        1.0  0.14600  0.43080  0.94820  1.0000 0.0710580492
C   C3        1.0  0.94820  0.14600  0.43080  1.0000 0.0710580492
C   C4        1.0  0.81920  0.30180  0.77500  1.0000 0.0710580492
C   C5        1.0  0.10400  0.77500  0.30180  1.0000 0.0710580492
C   C6        1.0  0.77500  0.10400  0.81920  1.0000 0.0710580492
C   C7        1.0  0.10400  0.81920  0.77500  1.0000 0.0710580492
C   C8        1.0  0.77500  0.30180  0.10400  1.0000 0.0710580492
C   C9        1.0  0.30180  0.77500  0.81920  1.0000 0.0710580492
C   C10       1.0  0.30180  0.10400  0.77500  1.0000 0.0710580492
C   C11       1.0  0.81920  0.77500  0.10400  1.0000 0.0710580492
C   C12       1.0  0.77500  0.81920  0.30180  1.0000 0.0710580492
C   C13       1.0  0.94820  0.43080  0.47500  1.0000 0.0710580492
C   C14       1.0  0.43080  0.14600  0.47500  1.0000 0.0710580492
C   C15       1.0  0.14600  0.94820  0.47500  1.0000 0.0710580492
C   C16       1.0  0.47500  0.14600  0.94820  1.0000 0.0710580492
C   C17       1.0  0.47500  0.94820  0.43080  1.0000 0.0710580492
C   C18       1.0  0.47500  0.43080  0.14600  1.0000 0.0710580492
C   C19       1.0  0.14600  0.47500  0.43080  1.0000 0.0710580492
C   C20       1.0  0.94820  0.47500  0.14600  1.0000 0.0710580492
C   C21       1.0  0.43080  0.47500  0.94820  1.0000 0.0710580492
C   C22       1.0  0.30180  0.81920  0.10400  1.0000 0.0710580492
C   C23       1.0  0.81920  0.10400  0.30180  1.0000 0.0710580492
C   C24       1.0  0.10400  0.30180  0.81920  1.0000 0.0710580492
C   C25       1.0  0.31920  0.80180  0.60400  1.0000 0.0710580492
C   C26       1.0  0.60400  0.31920  0.80180  1.0000 0.0710580492
C   C27       1.0  0.80180  0.60400  0.31920  1.0000 0.0710580492
C   C28       1.0  0.93080  0.44820  0.97500  1.0000 0.0710580492
C   C29       1.0  0.64600  0.97500  0.44820  1.0000 0.0710580492
C   C30       1.0  0.97500  0.64600  0.93080  1.0000 0.0710580492
C   C31       1.0  0.64600  0.93080  0.97500  1.0000 0.0710580492
C   C32       1.0  0.97500  0.44820  0.64600  1.0000 0.0710580492
C   C33       1.0  0.44820  0.97500  0.93080  1.0000 0.0710580492
C   C34       1.0  0.44820  0.64600  0.97500  1.0000 0.0710580492
C   C35       1.0  0.93080  0.97500  0.64600  1.0000 0.0710580492
C   C36       1.0  0.97500  0.93080  0.44820  1.0000 0.0710580492
C   C37       1.0  0.80180  0.31920  0.27500  1.0000 0.0710580492
C   C38       1.0  0.31920  0.60400  0.27500  1.0000 0.0710580492
C   C39       1.0  0.60400  0.80180  0.27500  1.0000 0.0710580492
C   C40       1.0  0.27500  0.60400  0.80180  1.0000 0.0710580492
C   C41       1.0  0.27500  0.80180  0.31920  1.0000 0.0710580492
C   C42       1.0  0.27500  0.31920  0.60400  1.0000 0.0710580492
C   C43       1.0  0.60400  0.27500  0.31920  1.0000 0.0710580492
C   C44       1.0  0.80180  0.27500  0.60400  1.0000 0.0710580492
C   C45       1.0  0.31920  0.27500  0.80180  1.0000 0.0710580492
C   C46       1.0  0.44820  0.93080  0.64600  1.0000 0.0710580492
C   C47       1.0  0.93080  0.64600  0.44820  1.0000 0.0710580492
C   C48       1.0  0.64600  0.44820  0.93080  1.0000 0.0710580492
C   C49       1.0  0.36320  0.99440  0.15220  1.0000 0.5412220353
C   C50       1.0  0.15220  0.36320  0.99440  1.0000 0.5412220353
C   C51       1.0  0.99440  0.15220  0.36320  1.0000 0.5412220353
C   C52       1.0  0.88680  0.25560  0.75980  1.0000 0.5412220353
C   C53       1.0  0.09780  0.75980  0.25560  1.0000 0.5412220353
C   C54       1.0  0.75980  0.09780  0.88680  1.0000 0.5412220353
C   C55       1.0  0.09780  0.88680  0.75980  1.0000 0.5412220353
C   C56       1.0  0.75980  0.25560  0.09780  1.0000 0.5412220353
C   C57       1.0  0.25560  0.75980  0.88680  1.0000 0.5412220353
C   C58       1.0  0.25560  0.09780  0.75980  1.0000 0.5412220353
C   C59       1.0  0.88680  0.75980  0.09780  1.0000 0.5412220353
C   C60       1.0  0.75980  0.88680  0.25560  1.0000 0.5412220353
C   C61       1.0  0.99440  0.36320  0.49020  1.0000 0.5412220353
C   C62       1.0  0.36320  0.15220  0.49020  1.0000 0.5412220353
C   C63       1.0  0.15220  0.99440  0.49020  1.0000 0.5412220353
C   C64       1.0  0.49020  0.15220  0.99440  1.0000 0.5412220353
C   C65       1.0  0.49020  0.99440  0.36320  1.0000 0.5412220353
C   C66       1.0  0.49020  0.36320  0.15220  1.0000 0.5412220353
C   C67       1.0  0.15220  0.49020  0.36320  1.0000 0.5412220353
C   C68       1.0  0.99440  0.49020  0.15220  1.0000 0.5412220353
C   C69       1.0  0.36320  0.49020  0.99440  1.0000 0.5412220353
C   C70       1.0  0.25560  0.88680  0.09780  1.0000 0.5412220353
C   C71       1.0  0.88680  0.09780  0.25560  1.0000 0.5412220353
C   C72       1.0  0.09780  0.25560  0.88680  1.0000 0.5412220353
C   C73       1.0  0.38680  0.75560  0.59780  1.0000 0.5412220353
C   C74       1.0  0.59780  0.38680  0.75560  1.0000 0.5412220353
C   C75       1.0  0.75560  0.59780  0.38680  1.0000 0.5412220353
C   C76       1.0  0.86320  0.49440  0.99020  1.0000 0.5412220353
C   C77       1.0  0.65220  0.99020  0.49440  1.0000 0.5412220353
C   C78       1.0  0.99020  0.65220  0.86320  1.0000 0.5412220353
C   C79       1.0  0.65220  0.86320  0.99020  1.0000 0.5412220353
C   C80       1.0  0.99020  0.49440  0.65220  1.0000 0.5412220353
C   C81       1.0  0.49440  0.99020  0.86320  1.0000 0.5412220353
C   C82       1.0  0.49440  0.65220  0.99020  1.0000 0.5412220353
C   C83       1.0  0.86320  0.99020  0.65220  1.0000 0.5412220353
C   C84       1.0  0.99020  0.86320  0.49440  1.0000 0.5412220353
C   C85       1.0  0.75560  0.38680  0.25980  1.0000 0.5412220353
C   C86       1.0  0.38680  0.59780  0.25980  1.0000 0.5412220353
C   C87       1.0  0.59780  0.75560  0.25980  1.0000 0.5412220353
C   C88       1.0  0.25980  0.59780  0.75560  1.0000 0.5412220353
C   C89       1.0  0.25980  0.75560  0.38680  1.0000 0.5412220353
C   C90       1.0  0.25980  0.38680  0.59780  1.0000 0.5412220353
C   C91       1.0  0.59780  0.25980  0.38680  1.0000 0.5412220353
C   C92       1.0  0.75560  0.25980  0.59780  1.0000 0.5412220353
C   C93       1.0  0.38680  0.25980  0.75560  1.0000 0.5412220353
C   C94       1.0  0.49440  0.86320  0.65220  1.0000 0.5412220353
C   C95       1.0  0.86320  0.65220  0.49440  1.0000 0.5412220353
C   C96       1.0  0.65220  0.49440  0.86320  1.0000 0.5412220353
C   C97       1.0  0.50840  0.86040  0.13500  1.0000 0.2354171231
C   C98       1.0  0.13500  0.50840  0.86040  1.0000 0.2354171231
C   C99       1.0  0.86040  0.13500  0.50840  1.0000 0.2354171231
C   C100      1.0  0.74160  0.38960  0.75380  1.0000 0.2346649797
C   C101      1.0  0.11500  0.75380  0.38960  1.0000 0.2354171231
C   C102      1.0  0.75380  0.11500  0.74160  1.0000 0.2354171231
C   C103      1.0  0.11500  0.74160  0.75380  1.0000 0.2354171231
C   C104      1.0  0.75380  0.38960  0.11500  1.0000 0.2354171231
C   C105      1.0  0.38960  0.75380  0.74160  1.0000 0.2354171231
C   C106      1.0  0.38960  0.11500  0.75380  1.0000 0.2354171231
C   C107      1.0  0.74160  0.75380  0.11500  1.0000 0.2354171231
C   C108      1.0  0.75380  0.74160  0.38960  1.0000 0.2346649797
C   C109      1.0  0.86040  0.50840  0.49620  1.0000 0.2346649797
C   C110      1.0  0.50840  0.13500  0.49620  1.0000 0.2354171231
C   C111      1.0  0.13500  0.86040  0.49620  1.0000 0.2354171231
C   C112      1.0  0.49620  0.13500  0.86040  1.0000 0.2354171231
C   C113      1.0  0.49620  0.86040  0.50840  1.0000 0.2354171231
C   C114      1.0  0.49620  0.50840  0.13500  1.0000 0.2354171231
C   C115      1.0  0.13500  0.49620  0.50840  1.0000 0.2354171231
C   C116      1.0  0.86040  0.49620  0.13500  1.0000 0.2354171231
C   C117      1.0  0.50840  0.49620  0.86040  1.0000 0.2354171231
C   C118      1.0  0.38960  0.74160  0.11500  1.0000 0.2354171231
C   C119      1.0  0.74160  0.11500  0.38960  1.0000 0.2346649797
C   C120      1.0  0.11500  0.38960  0.74160  1.0000 0.2354171231
C   C121      1.0  0.24160  0.88960  0.61500  1.0000 0.2354171231
C   C122      1.0  0.61500  0.24160  0.88960  1.0000 0.2354171231
C   C123      1.0  0.88960  0.61500  0.24160  1.0000 0.2346649797
C   C124      1.0  0.00840  0.36040  0.99620  1.0000 0.2354171231
C   C125      1.0  0.63500  0.99620  0.36040  1.0000 0.2346649797
C   C126      1.0  0.99620  0.63500  0.00840  1.0000 0.2346649797
C   C127      1.0  0.63500  0.00840  0.99620  1.0000 0.2354171231
C   C128      1.0  0.99620  0.36040  0.63500  1.0000 0.2346649797
C   C129      1.0  0.36040  0.99620  0.00840  1.0000 0.2354171231
C   C130      1.0  0.36040  0.63500  0.99620  1.0000 0.2354171231
C   C131      1.0  0.00840  0.99620  0.63500  1.0000 0.2354171231
C   C132      1.0  0.99620  0.00840  0.36040  1.0000 0.2354171231
C   C133      1.0  0.88960  0.24160  0.25380  1.0000 0.2354171231
C   C134      1.0  0.24160  0.61500  0.25380  1.0000 0.2354171231
C   C135      1.0  0.61500  0.88960  0.25380  1.0000 0.2354171231
C   C136      1.0  0.25380  0.61500  0.88960  1.0000 0.2354171231
C   C137      1.0  0.25380  0.88960  0.24160  1.0000 0.2354171231
C   C138      1.0  0.25380  0.24160  0.61500  1.0000 0.2354171231
C   C139      1.0  0.61500  0.25380  0.24160  1.0000 0.2346649797
C   C140      1.0  0.88960  0.25380  0.61500  1.0000 0.2346649797
C   C141      1.0  0.24160  0.25380  0.88960  1.0000 0.2354171231
C   C142      1.0  0.36040  0.00840  0.63500  1.0000 0.2354171231
C   C143      1.0  0.00840  0.63500  0.36040  1.0000 0.2354171231
C   C144      1.0  0.63500  0.36040  0.00840  1.0000 0.2346649797
C   C145      1.0  0.48430  0.94970  0.14490  1.0000 0.0585909148
C   C146      1.0  0.14490  0.48430  0.94970  1.0000 0.0585909148
C   C147      1.0  0.94970  0.14490  0.48430  1.0000 0.0585909148
C   C148      1.0  0.76570  0.30030  0.82890  1.0000 0.0585909148
C   C149      1.0  0.10510  0.82890  0.30030  1.0000 0.0585909148
C   C150      1.0  0.82890  0.10510  0.76570  1.0000 0.0585909148
C   C151      1.0  0.10510  0.76570  0.82890  1.0000 0.0585909148
C   C152      1.0  0.82890  0.30030  0.10510  1.0000 0.0585909148
C   C153      1.0  0.30030  0.82890  0.76570  1.0000 0.0585909148
C   C154      1.0  0.30030  0.10510  0.82890  1.0000 0.0585909148
C   C155      1.0  0.76570  0.82890  0.10510  1.0000 0.0585909148
C   C156      1.0  0.82890  0.76570  0.30030  1.0000 0.0585909148
C   C157      1.0  0.94970  0.48430  0.42110  1.0000 0.0585909148
C   C158      1.0  0.48430  0.14490  0.42110  1.0000 0.0585909148
C   C159      1.0  0.14490  0.94970  0.42110  1.0000 0.0585909148
C   C160      1.0  0.42110  0.14490  0.94970  1.0000 0.0585909148
C   C161      1.0  0.42110  0.94970  0.48430  1.0000 0.0585909148
C   C162      1.0  0.42110  0.48430  0.14490  1.0000 0.0585909148
C   C163      1.0  0.14490  0.42110  0.48430  1.0000 0.0585909148
C   C164      1.0  0.94970  0.42110  0.14490  1.0000 0.0585909148
C   C165      1.0  0.48430  0.42110  0.94970  1.0000 0.0585909148
C   C166      1.0  0.30030  0.76570  0.10510  1.0000 0.0585909148
C   C167      1.0  0.76570  0.10510  0.30030  1.0000 0.0585909148
C   C168      1.0  0.10510  0.30030  0.76570  1.0000 0.0585909148
C   C169      1.0  0.26570  0.80030  0.60510  1.0000 0.0585909148
C   C170      1.0  0.60510  0.26570  0.80030  1.0000 0.0585909148
C   C171      1.0  0.80030  0.60510  0.26570  1.0000 0.0585909148
C   C172      1.0  0.98430  0.44970  0.92110  1.0000 0.0585909148
C   C173      1.0  0.64490  0.92110  0.44970  1.0000 0.0585909148
C   C174      1.0  0.92110  0.64490  0.98430  1.0000 0.0585909148
C   C175      1.0  0.64490  0.98430  0.92110  1.0000 0.0585909148
C   C176      1.0  0.92110  0.44970  0.64490  1.0000 0.0585909148
C   C177      1.0  0.44970  0.92110  0.98430  1.0000 0.0585909148
C   C178      1.0  0.44970  0.64490  0.92110  1.0000 0.0585909148
C   C179      1.0  0.98430  0.92110  0.64490  1.0000 0.0585909148
C   C180      1.0  0.92110  0.98430  0.44970  1.0000 0.0585909148
C   C181      1.0  0.80030  0.26570  0.32890  1.0000 0.0585909148
C   C182      1.0  0.26570  0.60510  0.32890  1.0000 0.0585909148
C   C183      1.0  0.60510  0.80030  0.32890  1.0000 0.0585909148
C   C184      1.0  0.32890  0.60510  0.80030  1.0000 0.0585909148
C   C185      1.0  0.32890  0.80030  0.26570  1.0000 0.0585909148
C   C186      1.0  0.32890  0.26570  0.60510  1.0000 0.0585909148
C   C187      1.0  0.60510  0.32890  0.26570  1.0000 0.0585909148
C   C188      1.0  0.80030  0.32890  0.60510  1.0000 0.0585909148
C   C189      1.0  0.26570  0.32890  0.80030  1.0000 0.0585909148
C   C190      1.0  0.44970  0.98430  0.64490  1.0000 0.0585909148
C   C191      1.0  0.98430  0.64490  0.44970  1.0000 0.0585909148
C   C192      1.0  0.64490  0.44970  0.98430  1.0000 0.0585909148
C   C193      1.0  0.49830  0.99730  0.15110  1.0000 0.556654516
C   C194      1.0  0.15110  0.49830  0.99730  1.0000 0.556654516
C   C195      1.0  0.99730  0.15110  0.49830  1.0000 0.556654516
C   C196      1.0  0.75170  0.25270  0.89670  1.0000 0.556654516
C   C197      1.0  0.09890  0.89670  0.25270  1.0000 0.556654516
C   C198      1.0  0.89670  0.09890  0.75170  1.0000 0.556654516
C   C199      1.0  0.09890  0.75170  0.89670  1.0000 0.556654516
C   C200      1.0  0.89670  0.25270  0.09890  1.0000 0.556654516
C   C201      1.0  0.25270  0.89670  0.75170  1.0000 0.556654516
C   C202      1.0  0.25270  0.09890  0.89670  1.0000 0.556654516
C   C203      1.0  0.75170  0.89670  0.09890  1.0000 0.556654516
C   C204      1.0  0.89670  0.75170  0.25270  1.0000 0.556654516
C   C205      1.0  0.99730  0.49830  0.35330  1.0000 0.556654516
C   C206      1.0  0.49830  0.15110  0.35330  1.0000 0.556654516
C   C207      1.0  0.15110  0.99730  0.35330  1.0000 0.556654516
C   C208      1.0  0.35330  0.15110  0.99730  1.0000 0.556654516
C   C209      1.0  0.35330  0.99730  0.49830  1.0000 0.556654516
C   C210      1.0  0.35330  0.49830  0.15110  1.0000 0.556654516
C   C211      1.0  0.15110  0.35330  0.49830  1.0000 0.556654516
C   C212      1.0  0.99730  0.35330  0.15110  1.0000 0.556654516
C   C213      1.0  0.49830  0.35330  0.99730  1.0000 0.556654516
C   C214      1.0  0.25270  0.75170  0.09890  1.0000 0.556654516
C   C215      1.0  0.75170  0.09890  0.25270  1.0000 0.556654516
C   C216      1.0  0.09890  0.25270  0.75170  1.0000 0.556654516
C   C217      1.0  0.25170  0.75270  0.59890  1.0000 0.556654516
C   C218      1.0  0.59890  0.25170  0.75270  1.0000 0.556654516
C   C219      1.0  0.75270  0.59890  0.25170  1.0000 0.556654516
C   C220      1.0  0.99830  0.49730  0.85330  1.0000 0.556654516
C   C221      1.0  0.65110  0.85330  0.49730  1.0000 0.556654516
C   C222      1.0  0.85330  0.65110  0.99830  1.0000 0.556654516
C   C223      1.0  0.65110  0.99830  0.85330  1.0000 0.556654516
C   C224      1.0  0.85330  0.49730  0.65110  1.0000 0.556654516
C   C225      1.0  0.49730  0.85330  0.99830  1.0000 0.556654516
C   C226      1.0  0.49730  0.65110  0.85330  1.0000 0.556654516
C   C227      1.0  0.99830  0.85330  0.65110  1.0000 0.556654516
C   C228      1.0  0.85330  0.99830  0.49730  1.0000 0.556654516
C   C229      1.0  0.75270  0.25170  0.39670  1.0000 0.556654516
C   C230      1.0  0.25170  0.59890  0.39670  1.0000 0.556654516
C   C231      1.0  0.59890  0.75270  0.39670  1.0000 0.556654516
C   C232      1.0  0.39670  0.59890  0.75270  1.0000 0.556654516
C   C233      1.0  0.39670  0.75270  0.25170  1.0000 0.556654516
C   C234      1.0  0.39670  0.25170  0.59890  1.0000 0.556654516
C   C235      1.0  0.59890  0.39670  0.25170  1.0000 0.556654516
C   C236      1.0  0.75270  0.39670  0.59890  1.0000 0.556654516
C   C237      1.0  0.25170  0.39670  0.75270  1.0000 0.556654516
C   C238      1.0  0.49730  0.99830  0.65110  1.0000 0.556654516
C   C239      1.0  0.99830  0.65110  0.49730  1.0000 0.556654516
C   C240      1.0  0.65110  0.49730  0.99830  1.0000 0.556654516
N   N1        1.0  0.44620  0.89100  0.14020  1.0000 -0.3236198444
N   N2        1.0  0.14020  0.44620  0.89100  1.0000 -0.3236198444
N   N3        1.0  0.89100  0.14020  0.44620  1.0000 -0.3236198444
N   N4        1.0  0.80380  0.35900  0.72740  1.0000 -0.3236198444
N   N5        1.0  0.10980  0.72740  0.35900  1.0000 -0.3236198444
N   N6        1.0  0.72740  0.10980  0.80380  1.0000 -0.3236198444
N   N7        1.0  0.10980  0.80380  0.72740  1.0000 -0.3236198444
N   N8        1.0  0.72740  0.35900  0.10980  1.0000 -0.3236198444
N   N9        1.0  0.35900  0.72740  0.80380  1.0000 -0.3236198444
N   N10       1.0  0.35900  0.10980  0.72740  1.0000 -0.3236198444
N   N11       1.0  0.80380  0.72740  0.10980  1.0000 -0.3236198444
N   N12       1.0  0.72740  0.80380  0.35900  1.0000 -0.3236198444
N   N13       1.0  0.89100  0.44620  0.52260  1.0000 -0.3236198444
N   N14       1.0  0.44620  0.14020  0.52260  1.0000 -0.3236198444
N   N15       1.0  0.14020  0.89100  0.52260  1.0000 -0.3236198444
N   N16       1.0  0.52260  0.14020  0.89100  1.0000 -0.3236198444
N   N17       1.0  0.52260  0.89100  0.44620  1.0000 -0.3236198444
N   N18       1.0  0.52260  0.44620  0.14020  1.0000 -0.3236198444
N   N19       1.0  0.14020  0.52260  0.44620  1.0000 -0.3236198444
N   N20       1.0  0.89100  0.52260  0.14020  1.0000 -0.3236198444
N   N21       1.0  0.44620  0.52260  0.89100  1.0000 -0.3236198444
N   N22       1.0  0.35900  0.80380  0.10980  1.0000 -0.3236198444
N   N23       1.0  0.80380  0.10980  0.35900  1.0000 -0.3236198444
N   N24       1.0  0.10980  0.35900  0.80380  1.0000 -0.3236198444
N   N25       1.0  0.30380  0.85900  0.60980  1.0000 -0.3236198444
N   N26       1.0  0.60980  0.30380  0.85900  1.0000 -0.3236198444
N   N27       1.0  0.85900  0.60980  0.30380  1.0000 -0.3236198444
N   N28       1.0  0.94620  0.39100  0.02260  1.0000 -0.3236198444
N   N29       1.0  0.64020  0.02260  0.39100  1.0000 -0.3236198444
N   N30       1.0  0.02260  0.64020  0.94620  1.0000 -0.3236198444
N   N31       1.0  0.64020  0.94620  0.02260  1.0000 -0.3236198444
N   N32       1.0  0.02260  0.39100  0.64020  1.0000 -0.3236198444
N   N33       1.0  0.39100  0.02260  0.94620  1.0000 -0.3236198444
N   N34       1.0  0.39100  0.64020  0.02260  1.0000 -0.3236198444
N   N35       1.0  0.94620  0.02260  0.64020  1.0000 -0.3236198444
N   N36       1.0  0.02260  0.94620  0.39100  1.0000 -0.3236198444
N   N37       1.0  0.85900  0.30380  0.22740  1.0000 -0.3236198444
N   N38       1.0  0.30380  0.60980  0.22740  1.0000 -0.3236198444
N   N39       1.0  0.60980  0.85900  0.22740  1.0000 -0.3236198444
N   N40       1.0  0.22740  0.60980  0.85900  1.0000 -0.3236198444
N   N41       1.0  0.22740  0.85900  0.30380  1.0000 -0.3236198444
N   N42       1.0  0.22740  0.30380  0.60980  1.0000 -0.3236198444
N   N43       1.0  0.60980  0.22740  0.30380  1.0000 -0.3236198444
N   N44       1.0  0.85900  0.22740  0.60980  1.0000 -0.3236198444
N   N45       1.0  0.30380  0.22740  0.85900  1.0000 -0.3236198444
N   N46       1.0  0.39100  0.94620  0.64020  1.0000 -0.3236198444
N   N47       1.0  0.94620  0.64020  0.39100  1.0000 -0.3236198444
N   N48       1.0  0.64020  0.39100  0.94620  1.0000 -0.3236198444
N   N49       1.0  0.53150  0.89450  0.13850  1.0000 -0.293328243
N   N50       1.0  0.13850  0.53150  0.89450  1.0000 -0.293328243
N   N51       1.0  0.89450  0.13850  0.53150  1.0000 -0.293328243
N   N52       1.0  0.71850  0.35550  0.81450  1.0000 -0.293328243
N   N53       1.0  0.11150  0.81450  0.35550  1.0000 -0.293328243
N   N54       1.0  0.81450  0.11150  0.71850  1.0000 -0.293328243
N   N55       1.0  0.11150  0.71850  0.81450  1.0000 -0.293328243
N   N56       1.0  0.81450  0.35550  0.11150  1.0000 -0.293328243
N   N57       1.0  0.35550  0.81450  0.71850  1.0000 -0.293328243
N   N58       1.0  0.35550  0.11150  0.81450  1.0000 -0.293328243
N   N59       1.0  0.71850  0.81450  0.11150  1.0000 -0.293328243
N   N60       1.0  0.81450  0.71850  0.35550  1.0000 -0.293328243
N   N61       1.0  0.89450  0.53150  0.43550  1.0000 -0.293328243
N   N62       1.0  0.53150  0.13850  0.43550  1.0000 -0.293328243
N   N63       1.0  0.13850  0.89450  0.43550  1.0000 -0.293328243
N   N64       1.0  0.43550  0.13850  0.89450  1.0000 -0.293328243
N   N65       1.0  0.43550  0.89450  0.53150  1.0000 -0.293328243
N   N66       1.0  0.43550  0.53150  0.13850  1.0000 -0.293328243
N   N67       1.0  0.13850  0.43550  0.53150  1.0000 -0.293328243
N   N68       1.0  0.89450  0.43550  0.13850  1.0000 -0.293328243
N   N69       1.0  0.53150  0.43550  0.89450  1.0000 -0.293328243
N   N70       1.0  0.35550  0.71850  0.11150  1.0000 -0.293328243
N   N71       1.0  0.71850  0.11150  0.35550  1.0000 -0.293328243
N   N72       1.0  0.11150  0.35550  0.71850  1.0000 -0.293328243
N   N73       1.0  0.21850  0.85550  0.61150  1.0000 -0.293328243
N   N74       1.0  0.61150  0.21850  0.85550  1.0000 -0.293328243
N   N75       1.0  0.85550  0.61150  0.21850  1.0000 -0.293328243
N   N76       1.0  0.03150  0.39450  0.93550  1.0000 -0.293328243
N   N77       1.0  0.63850  0.93550  0.39450  1.0000 -0.293328243
N   N78       1.0  0.93550  0.63850  0.03150  1.0000 -0.293328243
N   N79       1.0  0.63850  0.03150  0.93550  1.0000 -0.293328243
N   N80       1.0  0.93550  0.39450  0.63850  1.0000 -0.293328243
N   N81       1.0  0.39450  0.93550  0.03150  1.0000 -0.293328243
N   N82       1.0  0.39450  0.63850  0.93550  1.0000 -0.293328243
N   N83       1.0  0.03150  0.93550  0.63850  1.0000 -0.293328243
N   N84       1.0  0.93550  0.03150  0.39450  1.0000 -0.293328243
N   N85       1.0  0.85550  0.21850  0.31450  1.0000 -0.293328243
N   N86       1.0  0.21850  0.61150  0.31450  1.0000 -0.293328243
N   N87       1.0  0.61150  0.85550  0.31450  1.0000 -0.293328243
N   N88       1.0  0.31450  0.61150  0.85550  1.0000 -0.293328243
N   N89       1.0  0.31450  0.85550  0.21850  1.0000 -0.293328243
N   N90       1.0  0.31450  0.21850  0.61150  1.0000 -0.293328243
N   N91       1.0  0.61150  0.31450  0.21850  1.0000 -0.293328243
N   N92       1.0  0.85550  0.31450  0.61150  1.0000 -0.293328243
N   N93       1.0  0.21850  0.31450  0.85550  1.0000 -0.293328243
N   N94       1.0  0.39450  0.03150  0.63850  1.0000 -0.293328243
N   N95       1.0  0.03150  0.63850  0.39450  1.0000 -0.293328243
N   N96       1.0  0.63850  0.39450  0.03150  1.0000 -0.293328243
O   O1        1.0  0.32500  0.98520  0.14600  1.0000 -0.4371685347
O   O2        1.0  0.14600  0.32500  0.98520  1.0000 -0.4371685347
O   O3        1.0  0.98520  0.14600  0.32500  1.0000 -0.4338306726
O   O4        1.0  0.92500  0.26480  0.70620  1.0000 -0.4371685347
O   O5        1.0  0.10400  0.70620  0.26480  1.0000 -0.4371685347
O   O6        1.0  0.70620  0.10400  0.92500  1.0000 -0.4371685347
O   O7        1.0  0.10400  0.92500  0.70620  1.0000 -0.4371685347
O   O8        1.0  0.70620  0.26480  0.10400  1.0000 -0.4338306726
O   O9        1.0  0.26480  0.70620  0.92500  1.0000 -0.4371685347
O   O10       1.0  0.26480  0.10400  0.70620  1.0000 -0.4371685347
O   O11       1.0  0.92500  0.70620  0.10400  1.0000 -0.4338306726
O   O12       1.0  0.70620  0.92500  0.26480  1.0000 -0.4371685347
O   O13       1.0  0.98520  0.32500  0.54380  1.0000 -0.4371685347
O   O14       1.0  0.32500  0.14600  0.54380  1.0000 -0.4371685347
O   O15       1.0  0.14600  0.98520  0.54380  1.0000 -0.4371685347
O   O16       1.0  0.54380  0.14600  0.98520  1.0000 -0.4371685347
O   O17       1.0  0.54380  0.98520  0.32500  1.0000 -0.4371685347
O   O18       1.0  0.54380  0.32500  0.14600  1.0000 -0.4371685347
O   O19       1.0  0.14600  0.54380  0.32500  1.0000 -0.4338306726
O   O20       1.0  0.98520  0.54380  0.14600  1.0000 -0.4338306726
O   O21       1.0  0.32500  0.54380  0.98520  1.0000 -0.4338306726
O   O22       1.0  0.26480  0.92500  0.10400  1.0000 -0.4371685347
O   O23       1.0  0.92500  0.10400  0.26480  1.0000 -0.4371685347
O   O24       1.0  0.10400  0.26480  0.92500  1.0000 -0.4371685347
O   O25       1.0  0.42500  0.76480  0.60400  1.0000 -0.4371685347
O   O26       1.0  0.60400  0.42500  0.76480  1.0000 -0.4371685347
O   O27       1.0  0.76480  0.60400  0.42500  1.0000 -0.4338306726
O   O28       1.0  0.82500  0.48520  0.04380  1.0000 -0.4371685347
O   O29       1.0  0.64600  0.04380  0.48520  1.0000 -0.4338306726
O   O30       1.0  0.04380  0.64600  0.82500  1.0000 -0.4371685347
O   O31       1.0  0.64600  0.82500  0.04380  1.0000 -0.4371685347
O   O32       1.0  0.04380  0.48520  0.64600  1.0000 -0.4371685347
O   O33       1.0  0.48520  0.04380  0.82500  1.0000 -0.4371685347
O   O34       1.0  0.48520  0.64600  0.04380  1.0000 -0.4371685347
O   O35       1.0  0.82500  0.04380  0.64600  1.0000 -0.4371685347
O   O36       1.0  0.04380  0.82500  0.48520  1.0000 -0.4371685347
O   O37       1.0  0.76480  0.42500  0.20620  1.0000 -0.4371685347
O   O38       1.0  0.42500  0.60400  0.20620  1.0000 -0.4338306726
O   O39       1.0  0.60400  0.76480  0.20620  1.0000 -0.4338306726
O   O40       1.0  0.20620  0.60400  0.76480  1.0000 -0.4371685347
O   O41       1.0  0.20620  0.76480  0.42500  1.0000 -0.4371685347
O   O42       1.0  0.20620  0.42500  0.60400  1.0000 -0.4371685347
O   O43       1.0  0.60400  0.20620  0.42500  1.0000 -0.4371685347
O   O44       1.0  0.76480  0.20620  0.60400  1.0000 -0.4371685347
O   O45       1.0  0.42500  0.20620  0.76480  1.0000 -0.4371685347
O   O46       1.0  0.48520  0.82500  0.64600  1.0000 -0.4371685347
O   O47       1.0  0.82500  0.64600  0.48520  1.0000 -0.4338306726
O   O48       1.0  0.64600  0.48520  0.82500  1.0000 -0.4371685347
O   O49       1.0  0.35240  0.04420  0.16500  1.0000 -0.3591983157
O   O50       1.0  0.16500  0.35240  0.04420  1.0000 -0.3591983157
O   O51       1.0  0.04420  0.16500  0.35240  1.0000 -0.3591983157
O   O52       1.0  0.89760  0.20580  0.81160  1.0000 -0.3591983157
O   O53       1.0  0.08500  0.81160  0.20580  1.0000 -0.3591983157
O   O54       1.0  0.81160  0.08500  0.89760  1.0000 -0.3591983157
O   O55       1.0  0.08500  0.89760  0.81160  1.0000 -0.3591983157
O   O56       1.0  0.81160  0.20580  0.08500  1.0000 -0.3591983157
O   O57       1.0  0.20580  0.81160  0.89760  1.0000 -0.3591983157
O   O58       1.0  0.20580  0.08500  0.81160  1.0000 -0.3591983157
O   O59       1.0  0.89760  0.81160  0.08500  1.0000 -0.3591983157
O   O60       1.0  0.81160  0.89760  0.20580  1.0000 -0.3591983157
O   O61       1.0  0.04420  0.35240  0.43840  1.0000 -0.3591983157
O   O62       1.0  0.35240  0.16500  0.43840  1.0000 -0.3591983157
O   O63       1.0  0.16500  0.04420  0.43840  1.0000 -0.3591983157
O   O64       1.0  0.43840  0.16500  0.04420  1.0000 -0.3591983157
O   O65       1.0  0.43840  0.04420  0.35240  1.0000 -0.3591983157
O   O66       1.0  0.43840  0.35240  0.16500  1.0000 -0.3591983157
O   O67       1.0  0.16500  0.43840  0.35240  1.0000 -0.3591983157
O   O68       1.0  0.04420  0.43840  0.16500  1.0000 -0.3591983157
O   O69       1.0  0.35240  0.43840  0.04420  1.0000 -0.3591983157
O   O70       1.0  0.20580  0.89760  0.08500  1.0000 -0.3591983157
O   O71       1.0  0.89760  0.08500  0.20580  1.0000 -0.3591983157
O   O72       1.0  0.08500  0.20580  0.89760  1.0000 -0.3591983157
O   O73       1.0  0.39760  0.70580  0.58500  1.0000 -0.3591983157
O   O74       1.0  0.58500  0.39760  0.70580  1.0000 -0.3591983157
O   O75       1.0  0.70580  0.58500  0.39760  1.0000 -0.3591983157
O   O76       1.0  0.85240  0.54420  0.93840  1.0000 -0.3591983157
O   O77       1.0  0.66500  0.93840  0.54420  1.0000 -0.3591983157
O   O78       1.0  0.93840  0.66500  0.85240  1.0000 -0.3591983157
O   O79       1.0  0.66500  0.85240  0.93840  1.0000 -0.3591983157
O   O80       1.0  0.93840  0.54420  0.66500  1.0000 -0.3591983157
O   O81       1.0  0.54420  0.93840  0.85240  1.0000 -0.3537187247
O   O82       1.0  0.54420  0.66500  0.93840  1.0000 -0.3591983157
O   O83       1.0  0.85240  0.93840  0.66500  1.0000 -0.3591983157
O   O84       1.0  0.93840  0.85240  0.54420  1.0000 -0.3591983157
O   O85       1.0  0.70580  0.39760  0.31160  1.0000 -0.3591983157
O   O86       1.0  0.39760  0.58500  0.31160  1.0000 -0.3591983157
O   O87       1.0  0.58500  0.70580  0.31160  1.0000 -0.3591983157
O   O88       1.0  0.31160  0.58500  0.70580  1.0000 -0.3591983157
O   O89       1.0  0.31160  0.70580  0.39760  1.0000 -0.3591983157
O   O90       1.0  0.31160  0.39760  0.58500  1.0000 -0.3591983157
O   O91       1.0  0.58500  0.31160  0.39760  1.0000 -0.3591983157
O   O92       1.0  0.70580  0.31160  0.58500  1.0000 -0.3591983157
O   O93       1.0  0.39760  0.31160  0.70580  1.0000 -0.3591983157
O   O94       1.0  0.54420  0.85240  0.66500  1.0000 -0.3591983157
O   O95       1.0  0.85240  0.66500  0.54420  1.0000 -0.3591983157
O   O96       1.0  0.66500  0.54420  0.85240  1.0000 -0.3537187247
O   O97       1.0  0.55510  0.98470  0.14210  1.0000 -0.4676115892
O   O98       1.0  0.14210  0.55510  0.98470  1.0000 -0.4676115892
O   O99       1.0  0.98470  0.14210  0.55510  1.0000 -0.4676115892
O   O100      1.0  0.69490  0.26530  0.93190  1.0000 -0.4676115892
O   O101      1.0  0.10790  0.93190  0.26530  1.0000 -0.4676115892
O   O102      1.0  0.93190  0.10790  0.69490  1.0000 -0.4676115892
O   O103      1.0  0.10790  0.69490  0.93190  1.0000 -0.4676115892
O   O104      1.0  0.93190  0.26530  0.10790  1.0000 -0.4676115892
O   O105      1.0  0.26530  0.93190  0.69490  1.0000 -0.4676115892
O   O106      1.0  0.26530  0.10790  0.93190  1.0000 -0.4676115892
O   O107      1.0  0.69490  0.93190  0.10790  1.0000 -0.4676115892
O   O108      1.0  0.93190  0.69490  0.26530  1.0000 -0.4676115892
O   O109      1.0  0.98470  0.55510  0.31810  1.0000 -0.4676115892
O   O110      1.0  0.55510  0.14210  0.31810  1.0000 -0.4676115892
O   O111      1.0  0.14210  0.98470  0.31810  1.0000 -0.4676115892
O   O112      1.0  0.31810  0.14210  0.98470  1.0000 -0.4676115892
O   O113      1.0  0.31810  0.98470  0.55510  1.0000 -0.4676115892
O   O114      1.0  0.31810  0.55510  0.14210  1.0000 -0.4676115892
O   O115      1.0  0.14210  0.31810  0.55510  1.0000 -0.4676115892
O   O116      1.0  0.98470  0.31810  0.14210  1.0000 -0.4676115892
O   O117      1.0  0.55510  0.31810  0.98470  1.0000 -0.4676115892
O   O118      1.0  0.26530  0.69490  0.10790  1.0000 -0.4676115892
O   O119      1.0  0.69490  0.10790  0.26530  1.0000 -0.4676115892
O   O120      1.0  0.10790  0.26530  0.69490  1.0000 -0.4676115892
O   O121      1.0  0.19490  0.76530  0.60790  1.0000 -0.4676115892
O   O122      1.0  0.60790  0.19490  0.76530  1.0000 -0.4676115892
O   O123      1.0  0.76530  0.60790  0.19490  1.0000 -0.4676115892
O   O124      1.0  0.05510  0.48470  0.81810  1.0000 -0.4676115892
O   O125      1.0  0.64210  0.81810  0.48470  1.0000 -0.4676115892
O   O126      1.0  0.81810  0.64210  0.05510  1.0000 -0.4676115892
O   O127      1.0  0.64210  0.05510  0.81810  1.0000 -0.4676115892
O   O128      1.0  0.81810  0.48470  0.64210  1.0000 -0.4676115892
O   O129      1.0  0.48470  0.81810  0.05510  1.0000 -0.4676115892
O   O130      1.0  0.48470  0.64210  0.81810  1.0000 -0.4676115892
O   O131      1.0  0.05510  0.81810  0.64210  1.0000 -0.4676115892
O   O132      1.0  0.81810  0.05510  0.48470  1.0000 -0.4676115892
O   O133      1.0  0.76530  0.19490  0.43190  1.0000 -0.4676115892
O   O134      1.0  0.19490  0.60790  0.43190  1.0000 -0.4676115892
O   O135      1.0  0.60790  0.76530  0.43190  1.0000 -0.4676115892
O   O136      1.0  0.43190  0.60790  0.76530  1.0000 -0.4676115892
O   O137      1.0  0.43190  0.76530  0.19490  1.0000 -0.4676115892
O   O138      1.0  0.43190  0.19490  0.60790  1.0000 -0.4676115892
O   O139      1.0  0.60790  0.43190  0.19490  1.0000 -0.4676115892
O   O140      1.0  0.76530  0.43190  0.60790  1.0000 -0.4676115892
O   O141      1.0  0.19490  0.43190  0.76530  1.0000 -0.4676115892
O   O142      1.0  0.48470  0.05510  0.64210  1.0000 -0.4676115892
O   O143      1.0  0.05510  0.64210  0.48470  1.0000 -0.4676115892
O   O144      1.0  0.64210  0.48470  0.05510  1.0000 -0.4676115892
O   O145      1.0  0.45170  0.04350  0.16350  1.0000 -0.3088852252
O   O146      1.0  0.16350  0.45170  0.04350  1.0000 -0.3088852252
O   O147      1.0  0.04350  0.16350  0.45170  1.0000 -0.3035074143
O   O148      1.0  0.79830  0.20650  0.90870  1.0000 -0.3035074143
O   O149      1.0  0.08650  0.90870  0.20650  1.0000 -0.3088852252
O   O150      1.0  0.90870  0.08650  0.79830  1.0000 -0.3088852252
O   O151      1.0  0.08650  0.79830  0.90870  1.0000 -0.3088852252
O   O152      1.0  0.90870  0.20650  0.08650  1.0000 -0.3088852252
O   O153      1.0  0.20650  0.90870  0.79830  1.0000 -0.3035074143
O   O154      1.0  0.20650  0.08650  0.90870  1.0000 -0.3035074143
O   O155      1.0  0.79830  0.90870  0.08650  1.0000 -0.3088852252
O   O156      1.0  0.90870  0.79830  0.20650  1.0000 -0.3088852252
O   O157      1.0  0.04350  0.45170  0.34130  1.0000 -0.3088852252
O   O158      1.0  0.45170  0.16350  0.34130  1.0000 -0.3088852252
O   O159      1.0  0.16350  0.04350  0.34130  1.0000 -0.3088852252
O   O160      1.0  0.34130  0.16350  0.04350  1.0000 -0.3088852252
O   O161      1.0  0.34130  0.04350  0.45170  1.0000 -0.3088852252
O   O162      1.0  0.34130  0.45170  0.16350  1.0000 -0.3035074143
O   O163      1.0  0.16350  0.34130  0.45170  1.0000 -0.3088852252
O   O164      1.0  0.04350  0.34130  0.16350  1.0000 -0.3088852252
O   O165      1.0  0.45170  0.34130  0.04350  1.0000 -0.3088852252
O   O166      1.0  0.20650  0.79830  0.08650  1.0000 -0.3088852252
O   O167      1.0  0.79830  0.08650  0.20650  1.0000 -0.3035074143
O   O168      1.0  0.08650  0.20650  0.79830  1.0000 -0.3088852252
O   O169      1.0  0.29830  0.70650  0.58650  1.0000 -0.3088852252
O   O170      1.0  0.58650  0.29830  0.70650  1.0000 -0.3088852252
O   O171      1.0  0.70650  0.58650  0.29830  1.0000 -0.3088852252
O   O172      1.0  0.95170  0.54350  0.84130  1.0000 -0.3035074143
O   O173      1.0  0.66350  0.84130  0.54350  1.0000 -0.3088852252
O   O174      1.0  0.84130  0.66350  0.95170  1.0000 -0.3088852252
O   O175      1.0  0.66350  0.95170  0.84130  1.0000 -0.3088852252
O   O176      1.0  0.84130  0.54350  0.66350  1.0000 -0.3088852252
O   O177      1.0  0.54350  0.84130  0.95170  1.0000 -0.3088852252
O   O178      1.0  0.54350  0.66350  0.84130  1.0000 -0.3088852252
O   O179      1.0  0.95170  0.84130  0.66350  1.0000 -0.3088852252
O   O180      1.0  0.84130  0.95170  0.54350  1.0000 -0.3088852252
O   O181      1.0  0.70650  0.29830  0.40870  1.0000 -0.3088852252
O   O182      1.0  0.29830  0.58650  0.40870  1.0000 -0.3088852252
O   O183      1.0  0.58650  0.70650  0.40870  1.0000 -0.3088852252
O   O184      1.0  0.40870  0.58650  0.70650  1.0000 -0.3088852252
O   O185      1.0  0.40870  0.70650  0.29830  1.0000 -0.3088852252
O   O186      1.0  0.40870  0.29830  0.58650  1.0000 -0.3088852252
O   O187      1.0  0.58650  0.40870  0.29830  1.0000 -0.3088852252
O   O188      1.0  0.70650  0.40870  0.58650  1.0000 -0.3088852252
O   O189      1.0  0.29830  0.40870  0.70650  1.0000 -0.3088852252
O   O190      1.0  0.54350  0.95170  0.66350  1.0000 -0.3088852252
O   O191      1.0  0.95170  0.66350  0.54350  1.0000 -0.3088852252
O   O192      1.0  0.66350  0.54350  0.95170  1.0000 -0.3088852252
