# DDEC6 charges by PACMAN v1.1 (https://github.com/mtap-research/PACMAN-charge/)
data_2006[Mn][dia]3[ASR]2
_chemical_formula_sum              "Mn12 H24 C24 O48"
_cell_length_a       11.6829
_cell_length_b       10.1309
_cell_length_c       18.6678
_cell_angle_alpha    90
_cell_angle_beta     127.1
_cell_angle_gamma    90

_symmetry_space_group_name_H-M    "P 1"
_symmetry_Int_Tables_number       1

loop_
  _symmetry_equiv_pos_as_xyz
  'x, y, z'

loop_
  _atom_site_type_symbol
  _atom_site_label
  _atom_site_symmetry_multiplicity
  _atom_site_fract_x
  _atom_site_fract_y
  _atom_site_fract_z
  _atom_site_occupancy
  _atom_site_charge
Mn  Mn1       1.0  0.00000  0.50000  0.00000  1.0000 0.9985152239
Mn  Mn2       1.0  0.00000  0.00000  0.50000  1.0000 0.9985152239
Mn  Mn3       1.0  0.50000  0.50000  0.00000  1.0000 0.9985152239
Mn  Mn4       1.0  0.50000  0.00000  0.50000  1.0000 0.9985152239
Mn  Mn5       1.0  0.42498  0.89867  0.18548  1.0000 0.9781738276
Mn  Mn6       1.0  0.57502  0.39867  0.31452  1.0000 0.9781738276
Mn  Mn7       1.0  0.57502  0.10133  0.81452  1.0000 0.9781738276
Mn  Mn8       1.0  0.42498  0.60133  0.68548  1.0000 0.9781738276
Mn  Mn9       1.0  0.62577  0.41653  0.86900  1.0000 0.973319834
Mn  Mn10      1.0  0.37423  0.91653  0.63100  1.0000 0.973319834
Mn  Mn11      1.0  0.37423  0.58347  0.13100  1.0000 0.973319834
Mn  Mn12      1.0  0.62577  0.08347  0.36900  1.0000 0.973319834
H   H1        1.0  0.50870  0.75180  0.37060  1.0000 0.0732182123
H   H2        1.0  0.49130  0.25180  0.12940  1.0000 0.0732182123
H   H3        1.0  0.49130  0.24820  0.62940  1.0000 0.0732182123
H   H4        1.0  0.50870  0.74820  0.87060  1.0000 0.0732182123
H   H5        1.0  0.51050  0.11440  0.95720  1.0000 0.0732182123
H   H6        1.0  0.48950  0.61440  0.54280  1.0000 0.0732182123
H   H7        1.0  0.48950  0.88560  0.04280  1.0000 0.0732182123
H   H8        1.0  0.51050  0.38560  0.45720  1.0000 0.0732182123
H   H9        1.0  0.76760  0.65980  0.07610  1.0000 0.056510968
H   H10       1.0  0.23240  0.15980  0.42390  1.0000 0.056510968
H   H11       1.0  0.23240  0.34020  0.92390  1.0000 0.056510968
H   H12       1.0  0.76760  0.84020  0.57610  1.0000 0.056510968
H   H13       1.0  0.01530  0.79670  0.01030  1.0000 0.0816924347
H   H14       1.0  0.98470  0.29670  0.48970  1.0000 0.0816924347
H   H15       1.0  0.98470  0.20330  0.98970  1.0000 0.0816924347
H   H16       1.0  0.01530  0.70330  0.51030  1.0000 0.0816924347
H   H17       1.0  0.74300  0.69060  0.76710  1.0000 0.0816924347
H   H18       1.0  0.25700  0.19060  0.73290  1.0000 0.0816924347
H   H19       1.0  0.25700  0.30940  0.23290  1.0000 0.0816924347
H   H20       1.0  0.74300  0.80940  0.26710  1.0000 0.0816924347
H   H21       1.0  0.21420  0.51870  0.73320  1.0000 0.086332945
H   H22       1.0  0.78580  0.01870  0.76680  1.0000 0.086332945
H   H23       1.0  0.78580  0.48130  0.26680  1.0000 0.086332945
H   H24       1.0  0.21420  0.98130  0.23320  1.0000 0.086332945
C   C1        1.0  0.76203  0.63070  0.81413  1.0000 0.4662680655
C   C2        1.0  0.23797  0.13070  0.68587  1.0000 0.4662680655
C   C3        1.0  0.23797  0.36930  0.18587  1.0000 0.4662680655
C   C4        1.0  0.76203  0.86930  0.31413  1.0000 0.4662680655
C   C5        1.0  0.49985  0.68020  0.32965  1.0000 0.4838251191
C   C6        1.0  0.50015  0.18020  0.17035  1.0000 0.4838251191
C   C7        1.0  0.50015  0.31980  0.67035  1.0000 0.4838251191
C   C8        1.0  0.49985  0.81980  0.82965  1.0000 0.4838251191
C   C9        1.0  0.52306  0.20960  0.94936  1.0000 0.4662680655
C   C10       1.0  0.47694  0.70960  0.55064  1.0000 0.4662680655
C   C11       1.0  0.47694  0.79040  0.05064  1.0000 0.4662680655
C   C12       1.0  0.52306  0.29040  0.44936  1.0000 0.4662680655
C   C13       1.0  0.11955  0.78040  0.05405  1.0000 0.4897241647
C   C14       1.0  0.88045  0.28040  0.44595  1.0000 0.4897241647
C   C15       1.0  0.88045  0.21960  0.94595  1.0000 0.4897241647
C   C16       1.0  0.11955  0.71960  0.55405  1.0000 0.4897241647
C   C17       1.0  0.30876  0.51140  0.78916  1.0000 0.4662680655
C   C18       1.0  0.69124  0.01140  0.71084  1.0000 0.4662680655
C   C19       1.0  0.69124  0.48860  0.21084  1.0000 0.4662680655
C   C20       1.0  0.30876  0.98860  0.28916  1.0000 0.4662680655
C   C21       1.0  0.77500  0.60070  0.03280  1.0000 0.4838251191
C   C22       1.0  0.22500  0.10070  0.46720  1.0000 0.4838251191
C   C23       1.0  0.22500  0.39930  0.96720  1.0000 0.4838251191
C   C24       1.0  0.77500  0.89930  0.53280  1.0000 0.4838251191
O   O1        1.0  0.66506  0.52822  0.97893  1.0000 -0.5562855845
O   O2        1.0  0.33494  0.02822  0.52107  1.0000 -0.5562855845
O   O3        1.0  0.33494  0.47178  0.02107  1.0000 -0.5562855845
O   O4        1.0  0.66506  0.97178  0.47893  1.0000 -0.5562855845
O   O5        1.0  0.44101  0.70559  0.24786  1.0000 -0.5506787544
O   O6        1.0  0.55899  0.20559  0.25214  1.0000 -0.5506787544
O   O7        1.0  0.55899  0.29441  0.75214  1.0000 -0.5506787544
O   O8        1.0  0.44101  0.79441  0.74786  1.0000 -0.5506787544
O   O9        1.0  0.54665  0.23793  0.89320  1.0000 -0.5506787544
O   O10       1.0  0.45335  0.73793  0.60680  1.0000 -0.5506787544
O   O11       1.0  0.45335  0.76207  0.10680  1.0000 -0.5506787544
O   O12       1.0  0.54665  0.26207  0.39320  1.0000 -0.5506787544
O   O13       1.0  0.15931  0.66155  0.06071  1.0000 -0.5408802872
O   O14       1.0  0.84069  0.16155  0.43929  1.0000 -0.5408802872
O   O15       1.0  0.84069  0.33845  0.93929  1.0000 -0.5408802872
O   O16       1.0  0.15931  0.83845  0.56071  1.0000 -0.5408802872
O   O17       1.0  0.40852  0.50101  0.78123  1.0000 -0.5506787544
O   O18       1.0  0.59148  0.00101  0.71877  1.0000 -0.5506787544
O   O19       1.0  0.59148  0.49899  0.21877  1.0000 -0.5506787544
O   O20       1.0  0.40852  0.99899  0.28123  1.0000 -0.5506787544
O   O21       1.0  0.32126  0.49930  0.85892  1.0000 -0.489538378
O   O22       1.0  0.67874  0.99930  0.64108  1.0000 -0.489538378
O   O23       1.0  0.67874  0.50070  0.14108  1.0000 -0.489538378
O   O24       1.0  0.32126  0.00070  0.35892  1.0000 -0.489538378
O   O25       1.0  0.19897  0.87724  0.09201  1.0000 -0.4974787677
O   O26       1.0  0.80103  0.37724  0.40799  1.0000 -0.4974787677
O   O27       1.0  0.80103  0.12276  0.90799  1.0000 -0.4974787677
O   O28       1.0  0.19897  0.62276  0.59201  1.0000 -0.4974787677
O   O29       1.0  0.88868  0.61100  0.87648  1.0000 -0.4815034514
O   O30       1.0  0.11132  0.11100  0.62352  1.0000 -0.4815034514
O   O31       1.0  0.11132  0.38900  0.12352  1.0000 -0.4815034514
O   O32       1.0  0.88868  0.88900  0.37648  1.0000 -0.4815034514
O   O33       1.0  0.65431  0.57686  0.80294  1.0000 -0.5506787544
O   O34       1.0  0.34569  0.07686  0.69706  1.0000 -0.5506787544
O   O35       1.0  0.34569  0.42314  0.19706  1.0000 -0.5506787544
O   O36       1.0  0.65431  0.92314  0.30294  1.0000 -0.5506787544
O   O37       1.0  0.55275  0.57301  0.36791  1.0000 -0.4974787677
O   O38       1.0  0.44725  0.07301  0.13209  1.0000 -0.4974787677
O   O39       1.0  0.44725  0.42699  0.63209  1.0000 -0.4974787677
O   O40       1.0  0.55275  0.92699  0.86791  1.0000 -0.4974787677
O   O41       1.0  0.51534  0.28848  0.99666  1.0000 -0.4974787677
O   O42       1.0  0.48466  0.78848  0.50334  1.0000 -0.4974787677
O   O43       1.0  0.48466  0.71152  0.00334  1.0000 -0.4974787677
O   O44       1.0  0.51534  0.21152  0.49666  1.0000 -0.4974787677
O   O45       1.0  0.88372  0.60539  0.03742  1.0000 -0.489538378
O   O46       1.0  0.11628  0.10539  0.46258  1.0000 -0.4974787677
O   O47       1.0  0.11628  0.39461  0.96258  1.0000 -0.4974787677
O   O48       1.0  0.88372  0.89461  0.53742  1.0000 -0.4974787677
