# DDEC6 charges by PACMAN v1.1 (https://github.com/mtap-research/PACMAN-charge/)
data_2006[Ag][nan]3[ASR]3
_chemical_formula_sum              "Ag240 H1440 C1200 N480"
_cell_length_a       45.5646
_cell_length_b       45.5646
_cell_length_c       45.5646
_cell_angle_alpha    94.9421
_cell_angle_beta     94.9421
_cell_angle_gamma    145.863

_symmetry_space_group_name_H-M    "P 1"
_symmetry_Int_Tables_number       1

loop_
  _symmetry_equiv_pos_as_xyz
  'x, y, z'

loop_
  _atom_site_type_symbol
  _atom_site_label
  _atom_site_symmetry_multiplicity
  _atom_site_fract_x
  _atom_site_fract_y
  _atom_site_fract_z
  _atom_site_occupancy
  _atom_site_charge
Ag  Ag1       1.0  0.00757  0.52443  0.06614  1.0000 0.2586600433
Ag  Ag2       1.0  0.02841  0.48058  0.02171  1.0000 0.2301275482
Ag  Ag3       1.0  0.56518  0.58113  0.98827  1.0000 0.2301275482
Ag  Ag4       1.0  0.09756  0.23329  0.33403  1.0000 0.2301275482
Ag  Ag5       1.0  0.11934  0.18804  0.29598  1.0000 0.2087814645
Ag  Ag6       1.0  0.99075  0.10843  0.27848  1.0000 0.2586600433
Ag  Ag7       1.0  0.27595  0.01468  0.91693  1.0000 0.2205055683
Ag  Ag8       1.0  0.22419  0.00422  0.85033  1.0000 0.2205055683
Ag  Ag9       1.0  0.15420  0.94757  0.90347  1.0000 0.2486485268
Ag  Ag10      1.0  0.46812  0.35627  0.66289  1.0000 0.1986761337
Ag  Ag11      1.0  0.43828  0.27139  0.68935  1.0000 0.2205055683
Ag  Ag12      1.0  0.36615  0.22551  0.61490  1.0000 0.2586600433
Ag  Ag13      1.0  0.96615  0.35206  0.19565  1.0000 0.2205055683
Ag  Ag14      1.0  0.85210  0.29314  0.17856  1.0000 0.2301275482
Ag  Ag15      1.0  0.90108  0.31838  0.25252  1.0000 0.2586600433
Ag  Ag16      1.0  0.87793  0.83773  0.15328  1.0000 0.2486485268
Ag  Ag17      1.0  0.92588  0.85334  0.22276  1.0000 0.2301275482
Ag  Ag18      1.0  0.82270  0.72900  0.17248  1.0000 0.1986761337
Ag  Ag19      1.0  0.70746  0.53566  0.38324  1.0000 0.1986761337
Ag  Ag20      1.0  0.78683  0.59948  0.33637  1.0000 0.2486485268
Ag  Ag21      1.0  0.76088  0.64492  0.36526  1.0000 0.2486485268
Ag  Ag22      1.0  0.60237  0.20866  0.23141  1.0000 0.2301275482
Ag  Ag23      1.0  0.58071  0.25392  0.26731  1.0000 0.2301275482
Ag  Ag24      1.0  0.71330  0.33970  0.28278  1.0000 0.2486485268
Ag  Ag25      1.0  0.14117  0.83500  0.07591  1.0000 0.2389856006
Ag  Ag26      1.0  0.25108  0.96696  0.11228  1.0000 0.2389856006
Ag  Ag27      1.0  0.21862  0.87859  0.14547  1.0000 0.2486485268
Ag  Ag28      1.0  0.51518  0.47488  0.49482  1.0000 0.1898840689
Ag  Ag29      1.0  0.46818  0.47702  0.43512  1.0000 0.2486485268
Ag  Ag30      1.0  0.38588  0.39273  0.47989  1.0000 0.2486485268
Ag  Ag31      1.0  0.95829  0.94143  0.43386  1.0000 0.2586600433
Ag  Ag32      1.0  0.95887  0.00670  0.47829  1.0000 0.2301275482
Ag  Ag33      1.0  0.09286  0.57691  0.51173  1.0000 0.2301275482
Ag  Ag34      1.0  0.39926  0.76353  0.16597  1.0000 0.2301275482
Ag  Ag35      1.0  0.39206  0.82336  0.20402  1.0000 0.2087814645
Ag  Ag36      1.0  0.32995  0.71227  0.22152  1.0000 0.2586600433
Ag  Ag37      1.0  0.59775  0.35902  0.58307  1.0000 0.2205055683
Ag  Ag38      1.0  0.65389  0.37386  0.64967  1.0000 0.2205055683
Ag  Ag39      1.0  0.54410  0.25073  0.59653  1.0000 0.2486485268
Ag  Ag40      1.0  0.19338  0.80523  0.83711  1.0000 0.1986761337
Ag  Ag41      1.0  0.08204  0.74893  0.81065  1.0000 0.2205055683
Ag  Ag42      1.0  0.11061  0.75125  0.88510  1.0000 0.2586600433
Ag  Ag43      1.0  0.65641  0.77050  0.30435  1.0000 0.2205055683
Ag  Ag44      1.0  0.61458  0.67354  0.32144  1.0000 0.2301275482
Ag  Ag45      1.0  0.56586  0.64856  0.24748  1.0000 0.2586600433
Ag  Ag46      1.0  0.18445  0.72465  0.34672  1.0000 0.2486485268
Ag  Ag47      1.0  0.13058  0.70312  0.27724  1.0000 0.2301275482
Ag  Ag48      1.0  0.05652  0.65022  0.32752  1.0000 0.1986761337
Ag  Ag49      1.0  0.65242  0.32422  0.11676  1.0000 0.1986761337
Ag  Ag50      1.0  0.76311  0.45046  0.16363  1.0000 0.2486485268
Ag  Ag51      1.0  0.77966  0.39562  0.13474  1.0000 0.2486485268
Ag  Ag52      1.0  0.47725  0.37096  0.26859  1.0000 0.2301275482
Ag  Ag53      1.0  0.48661  0.31340  0.23269  1.0000 0.2301275482
Ag  Ag54      1.0  0.55692  0.43052  0.21722  1.0000 0.2486485268
Ag  Ag55      1.0  0.25909  0.06526  0.42409  1.0000 0.2389856006
Ag  Ag56      1.0  0.35468  0.13880  0.38772  1.0000 0.2389856006
Ag  Ag57      1.0  0.23312  0.07315  0.35453  1.0000 0.2486485268
Ag  Ag58      1.0  0.48006  0.02036  0.00518  1.0000 0.1898840689
Ag  Ag59      1.0  0.54190  0.03306  0.06488  1.0000 0.2486485268
Ag  Ag60      1.0  0.41284  0.90599  0.02011  1.0000 0.2486485268
Ag  Ag61      1.0  0.02443  0.45829  0.51686  1.0000 0.2586600433
Ag  Ag62      1.0  0.98058  0.45887  0.45217  1.0000 0.2301275482
Ag  Ag63      1.0  0.08113  0.59286  0.01595  1.0000 0.2301275482
Ag  Ag64      1.0  0.73329  0.89926  0.13573  1.0000 0.2205055683
Ag  Ag65      1.0  0.68804  0.89206  0.06870  1.0000 0.2087814645
Ag  Ag66      1.0  0.60843  0.82995  0.11768  1.0000 0.2586600433
Ag  Ag67      1.0  0.51468  0.09775  0.73873  1.0000 0.2205055683
Ag  Ag68      1.0  0.50422  0.15389  0.78003  1.0000 0.2205055683
Ag  Ag69      1.0  0.44757  0.04410  0.79337  1.0000 0.2486485268
Ag  Ag70      1.0  0.85627  0.69338  0.88815  1.0000 0.1986761337
Ag  Ag71      1.0  0.77139  0.58204  0.83311  1.0000 0.2205055683
Ag  Ag72      1.0  0.72551  0.61061  0.85936  1.0000 0.2586600433
Ag  Ag73      1.0  0.85206  0.15641  0.38591  1.0000 0.2205055683
Ag  Ag74      1.0  0.79314  0.11458  0.44104  1.0000 0.2301275482
Ag  Ag75      1.0  0.81838  0.06586  0.41730  1.0000 0.2586600433
Ag  Ag76      1.0  0.33773  0.68445  0.95980  1.0000 0.2486485268
Ag  Ag77      1.0  0.35334  0.63058  0.92746  1.0000 0.2301275482
Ag  Ag78      1.0  0.22900  0.55652  0.90630  1.0000 0.1986761337
Ag  Ag79      1.0  0.03566  0.15242  0.82820  1.0000 0.1986761337
Ag  Ag80      1.0  0.09948  0.26311  0.81265  1.0000 0.2486485268
Ag  Ag81      1.0  0.14492  0.27966  0.88404  1.0000 0.2486485268
Ag  Ag82      1.0  0.70866  0.97725  0.60629  1.0000 0.2301275482
Ag  Ag83      1.0  0.75392  0.98661  0.67321  1.0000 0.2301275482
Ag  Ag84      1.0  0.83970  0.05692  0.62640  1.0000 0.2486485268
Ag  Ag85      1.0  0.33500  0.75909  0.69383  1.0000 0.2389856006
Ag  Ag86      1.0  0.46696  0.85468  0.71588  1.0000 0.2389856006
Ag  Ag87      1.0  0.37859  0.73312  0.65997  1.0000 0.2486485268
Ag  Ag88      1.0  0.97488  0.98006  0.95970  1.0000 0.1898840689
Ag  Ag89      1.0  0.97702  0.04190  0.00884  1.0000 0.2486485268
Ag  Ag90      1.0  0.89273  0.91284  0.00685  1.0000 0.2486485268
Ag  Ag91      1.0  0.44143  0.50757  0.98314  1.0000 0.2586600433
Ag  Ag92      1.0  0.50670  0.52841  0.04783  1.0000 0.2301275482
Ag  Ag93      1.0  0.07691  0.06518  0.48405  1.0000 0.2301275482
Ag  Ag94      1.0  0.26353  0.59756  0.36427  1.0000 0.2301275482
Ag  Ag95      1.0  0.32336  0.61934  0.43130  1.0000 0.2087814645
Ag  Ag96      1.0  0.21227  0.49075  0.38232  1.0000 0.2586600433
Ag  Ag97      1.0  0.85902  0.77595  0.76127  1.0000 0.2205055683
Ag  Ag98      1.0  0.87386  0.72419  0.71997  1.0000 0.2205055683
Ag  Ag99      1.0  0.75073  0.65420  0.70663  1.0000 0.2486485268
Ag  Ag100     1.0  0.30523  0.96812  0.61185  1.0000 0.1986761337
Ag  Ag101     1.0  0.24893  0.93828  0.66689  1.0000 0.2205055683
Ag  Ag102     1.0  0.25125  0.86615  0.64064  1.0000 0.2586600433
Ag  Ag103     1.0  0.27050  0.46615  0.11409  1.0000 0.2205055683
Ag  Ag104     1.0  0.17354  0.35210  0.05896  1.0000 0.2205055683
Ag  Ag105     1.0  0.14856  0.40108  0.08270  1.0000 0.2586600433
Ag  Ag106     1.0  0.22465  0.37793  0.54020  1.0000 0.2486485268
Ag  Ag107     1.0  0.20312  0.42588  0.57254  1.0000 0.2301275482
Ag  Ag108     1.0  0.15022  0.32270  0.59370  1.0000 0.1986761337
Ag  Ag109     1.0  0.82422  0.20746  0.67180  1.0000 0.1986761337
Ag  Ag110     1.0  0.95046  0.28683  0.68735  1.0000 0.2486485268
Ag  Ag111     1.0  0.89562  0.26088  0.61596  1.0000 0.2486485268
Ag  Ag112     1.0  0.87096  0.10237  0.89371  1.0000 0.2301275482
Ag  Ag113     1.0  0.81340  0.08071  0.82679  1.0000 0.2301275482
Ag  Ag114     1.0  0.93052  0.21330  0.87360  1.0000 0.2486485268
Ag  Ag115     1.0  0.56526  0.64117  0.80617  1.0000 0.2389856006
Ag  Ag116     1.0  0.63880  0.75108  0.78412  1.0000 0.2389856006
Ag  Ag117     1.0  0.57315  0.71862  0.84003  1.0000 0.2486485268
Ag  Ag118     1.0  0.52036  0.01518  0.54030  1.0000 0.1898840689
Ag  Ag119     1.0  0.53306  0.96818  0.49116  1.0000 0.2486485268
Ag  Ag120     1.0  0.40599  0.88588  0.49315  1.0000 0.2486485268
Ag  Ag121     1.0  0.99243  0.47557  0.93386  1.0000 0.2586600433
Ag  Ag122     1.0  0.97159  0.51942  0.97829  1.0000 0.2301275482
Ag  Ag123     1.0  0.43482  0.41887  0.01173  1.0000 0.2301275482
Ag  Ag124     1.0  0.90244  0.76671  0.66597  1.0000 0.2205055683
Ag  Ag125     1.0  0.88066  0.81196  0.70402  1.0000 0.2087814645
Ag  Ag126     1.0  0.00925  0.89157  0.72152  1.0000 0.2586600433
Ag  Ag127     1.0  0.72405  0.98532  0.08307  1.0000 0.2205055683
Ag  Ag128     1.0  0.77581  0.99578  0.14967  1.0000 0.2205055683
Ag  Ag129     1.0  0.84580  0.05243  0.09653  1.0000 0.2486485268
Ag  Ag130     1.0  0.53188  0.64373  0.33711  1.0000 0.1986761337
Ag  Ag131     1.0  0.56172  0.72861  0.31065  1.0000 0.2205055683
Ag  Ag132     1.0  0.63385  0.77449  0.38510  1.0000 0.2586600433
Ag  Ag133     1.0  0.03385  0.64794  0.80435  1.0000 0.2205055683
Ag  Ag134     1.0  0.14790  0.70686  0.82144  1.0000 0.2301275482
Ag  Ag135     1.0  0.09892  0.68162  0.74748  1.0000 0.2586600433
Ag  Ag136     1.0  0.12207  0.16227  0.84672  1.0000 0.2486485268
Ag  Ag137     1.0  0.07412  0.14666  0.77724  1.0000 0.2301275482
Ag  Ag138     1.0  0.17730  0.27100  0.82752  1.0000 0.1986761337
Ag  Ag139     1.0  0.29254  0.46434  0.61676  1.0000 0.1986761337
Ag  Ag140     1.0  0.21317  0.40052  0.66363  1.0000 0.2486485268
Ag  Ag141     1.0  0.23912  0.35508  0.63474  1.0000 0.2486485268
Ag  Ag142     1.0  0.39763  0.79134  0.76859  1.0000 0.2301275482
Ag  Ag143     1.0  0.41929  0.74608  0.73269  1.0000 0.2301275482
Ag  Ag144     1.0  0.28670  0.66030  0.71722  1.0000 0.2486485268
Ag  Ag145     1.0  0.85883  0.16500  0.92409  1.0000 0.2389856006
Ag  Ag146     1.0  0.74892  0.03304  0.88772  1.0000 0.2389856006
Ag  Ag147     1.0  0.78138  0.12141  0.85453  1.0000 0.2486485268
Ag  Ag148     1.0  0.48482  0.52512  0.50518  1.0000 0.1898840689
Ag  Ag149     1.0  0.53182  0.52298  0.56488  1.0000 0.2486485268
Ag  Ag150     1.0  0.61412  0.60727  0.52011  1.0000 0.2486485268
Ag  Ag151     1.0  0.04171  0.05857  0.56614  1.0000 0.2586600433
Ag  Ag152     1.0  0.04113  0.99330  0.52171  1.0000 0.2301275482
Ag  Ag153     1.0  0.90714  0.42309  0.48827  1.0000 0.2301275482
Ag  Ag154     1.0  0.60074  0.23647  0.83403  1.0000 0.2205055683
Ag  Ag155     1.0  0.60794  0.17664  0.79598  1.0000 0.2087814645
Ag  Ag156     1.0  0.67005  0.28773  0.77848  1.0000 0.2586600433
Ag  Ag157     1.0  0.40225  0.64098  0.41693  1.0000 0.2205055683
Ag  Ag158     1.0  0.34611  0.62614  0.35033  1.0000 0.2205055683
Ag  Ag159     1.0  0.45590  0.74927  0.40347  1.0000 0.2486485268
Ag  Ag160     1.0  0.80662  0.19477  0.16289  1.0000 0.1986761337
Ag  Ag161     1.0  0.91796  0.25107  0.18935  1.0000 0.2205055683
Ag  Ag162     1.0  0.88939  0.24875  0.11490  1.0000 0.2586600433
Ag  Ag163     1.0  0.34359  0.22950  0.69565  1.0000 0.2205055683
Ag  Ag164     1.0  0.38542  0.32646  0.67856  1.0000 0.2301275482
Ag  Ag165     1.0  0.43414  0.35144  0.75252  1.0000 0.2586600433
Ag  Ag166     1.0  0.81555  0.27535  0.65328  1.0000 0.2486485268
Ag  Ag167     1.0  0.86942  0.29688  0.72276  1.0000 0.2301275482
Ag  Ag168     1.0  0.94348  0.34978  0.67248  1.0000 0.1986761337
Ag  Ag169     1.0  0.34758  0.67578  0.88324  1.0000 0.1986761337
Ag  Ag170     1.0  0.23689  0.54954  0.83637  1.0000 0.2486485268
Ag  Ag171     1.0  0.22034  0.60438  0.86526  1.0000 0.2486485268
Ag  Ag172     1.0  0.52275  0.62904  0.73141  1.0000 0.2301275482
Ag  Ag173     1.0  0.51339  0.68660  0.76731  1.0000 0.2301275482
Ag  Ag174     1.0  0.44308  0.56948  0.78278  1.0000 0.2486485268
Ag  Ag175     1.0  0.74091  0.93474  0.57591  1.0000 0.2389856006
Ag  Ag176     1.0  0.64532  0.86120  0.61228  1.0000 0.2389856006
Ag  Ag177     1.0  0.76688  0.92685  0.64547  1.0000 0.2486485268
Ag  Ag178     1.0  0.51994  0.97964  0.99482  1.0000 0.1898840689
Ag  Ag179     1.0  0.45810  0.96694  0.93512  1.0000 0.2486485268
Ag  Ag180     1.0  0.58716  0.09401  0.97989  1.0000 0.2486485268
Ag  Ag181     1.0  0.97557  0.54171  0.48314  1.0000 0.2586600433
Ag  Ag182     1.0  0.01942  0.54113  0.54783  1.0000 0.2301275482
Ag  Ag183     1.0  0.91887  0.40714  0.98405  1.0000 0.2301275482
Ag  Ag184     1.0  0.26671  0.10074  0.86427  1.0000 0.2205055683
Ag  Ag185     1.0  0.31196  0.10794  0.93130  1.0000 0.2087814645
Ag  Ag186     1.0  0.39157  0.17005  0.88232  1.0000 0.2586600433
Ag  Ag187     1.0  0.48532  0.90225  0.26127  1.0000 0.2205055683
Ag  Ag188     1.0  0.49578  0.84611  0.21997  1.0000 0.2205055683
Ag  Ag189     1.0  0.55243  0.95590  0.20663  1.0000 0.2486485268
Ag  Ag190     1.0  0.14373  0.30662  0.11185  1.0000 0.1986761337
Ag  Ag191     1.0  0.22861  0.41796  0.16689  1.0000 0.2205055683
Ag  Ag192     1.0  0.27449  0.38939  0.14064  1.0000 0.2586600433
Ag  Ag193     1.0  0.14794  0.84359  0.61409  1.0000 0.2205055683
Ag  Ag194     1.0  0.20686  0.88542  0.55896  1.0000 0.2301275482
Ag  Ag195     1.0  0.18162  0.93414  0.58270  1.0000 0.2586600433
Ag  Ag196     1.0  0.66227  0.31555  0.04020  1.0000 0.2486485268
Ag  Ag197     1.0  0.64666  0.36942  0.07254  1.0000 0.2301275482
Ag  Ag198     1.0  0.77100  0.44348  0.09370  1.0000 0.1986761337
Ag  Ag199     1.0  0.96434  0.84758  0.17180  1.0000 0.1986761337
Ag  Ag200     1.0  0.90052  0.73689  0.18735  1.0000 0.2486485268
Ag  Ag201     1.0  0.85508  0.72034  0.11596  1.0000 0.2486485268
Ag  Ag202     1.0  0.29134  0.02275  0.39371  1.0000 0.2301275482
Ag  Ag203     1.0  0.24608  0.01339  0.32679  1.0000 0.2301275482
Ag  Ag204     1.0  0.16030  0.94308  0.37360  1.0000 0.2486485268
Ag  Ag205     1.0  0.66500  0.24091  0.30617  1.0000 0.2389856006
Ag  Ag206     1.0  0.53304  0.14532  0.28412  1.0000 0.2389856006
Ag  Ag207     1.0  0.62141  0.26688  0.34003  1.0000 0.2486485268
Ag  Ag208     1.0  0.02512  0.01994  0.04030  1.0000 0.1898840689
Ag  Ag209     1.0  0.02298  0.95810  0.99116  1.0000 0.2486485268
Ag  Ag210     1.0  0.10727  0.08716  0.99315  1.0000 0.2486485268
Ag  Ag211     1.0  0.55857  0.49243  0.01686  1.0000 0.2586600433
Ag  Ag212     1.0  0.49330  0.47159  0.95217  1.0000 0.2301275482
Ag  Ag213     1.0  0.92309  0.93482  0.51595  1.0000 0.2301275482
Ag  Ag214     1.0  0.73647  0.40244  0.63573  1.0000 0.2205055683
Ag  Ag215     1.0  0.67664  0.38066  0.56870  1.0000 0.2087814645
Ag  Ag216     1.0  0.78773  0.50925  0.61768  1.0000 0.2586600433
Ag  Ag217     1.0  0.14098  0.22405  0.23873  1.0000 0.2205055683
Ag  Ag218     1.0  0.12614  0.27581  0.28003  1.0000 0.2205055683
Ag  Ag219     1.0  0.24927  0.34580  0.29337  1.0000 0.2486485268
Ag  Ag220     1.0  0.69477  0.03188  0.38815  1.0000 0.1986761337
Ag  Ag221     1.0  0.75107  0.06172  0.33311  1.0000 0.2205055683
Ag  Ag222     1.0  0.74875  0.13385  0.35936  1.0000 0.2586600433
Ag  Ag223     1.0  0.72950  0.53385  0.88591  1.0000 0.2205055683
Ag  Ag224     1.0  0.82646  0.64790  0.94104  1.0000 0.2205055683
Ag  Ag225     1.0  0.85144  0.59892  0.91730  1.0000 0.2586600433
Ag  Ag226     1.0  0.77535  0.62207  0.45980  1.0000 0.2486485268
Ag  Ag227     1.0  0.79688  0.57412  0.42746  1.0000 0.2301275482
Ag  Ag228     1.0  0.84978  0.67730  0.40630  1.0000 0.1986761337
Ag  Ag229     1.0  0.17578  0.79254  0.32820  1.0000 0.1986761337
Ag  Ag230     1.0  0.04954  0.71317  0.31265  1.0000 0.2486485268
Ag  Ag231     1.0  0.10438  0.73912  0.38404  1.0000 0.2486485268
Ag  Ag232     1.0  0.12904  0.89763  0.10629  1.0000 0.2301275482
Ag  Ag233     1.0  0.18660  0.91929  0.17321  1.0000 0.2301275482
Ag  Ag234     1.0  0.06948  0.78670  0.12640  1.0000 0.2486485268
Ag  Ag235     1.0  0.43474  0.35883  0.19383  1.0000 0.2389856006
Ag  Ag236     1.0  0.36120  0.24892  0.21588  1.0000 0.2389856006
Ag  Ag237     1.0  0.42685  0.28138  0.15997  1.0000 0.2486485268
Ag  Ag238     1.0  0.47964  0.98482  0.45970  1.0000 0.1898840689
Ag  Ag239     1.0  0.46694  0.03182  0.50884  1.0000 0.2486485268
Ag  Ag240     1.0  0.59401  0.11412  0.50685  1.0000 0.2486485268
H   H1        1.0  0.94510  0.46640  0.10710  1.0000 0.1410065991
H   H2        1.0  0.96300  0.46010  0.13430  1.0000 0.1582861444
H   H3        1.0  0.90160  0.40790  0.11290  1.0000 0.1410065991
H   H4        1.0  0.99680  0.39680  0.03780  1.0000 0.1410065991
H   H5        1.0  0.94680  0.34380  0.04860  1.0000 0.1491124682
H   H6        1.0  0.00730  0.39500  0.07150  1.0000 0.1491124682
H   H7        1.0  0.56930  0.55560  0.10070  1.0000 0.1410065991
H   H8        1.0  0.62910  0.61630  0.12080  1.0000 0.1582861444
H   H9        1.0  0.61710  0.57210  0.10960  1.0000 0.1410065991
H   H10       1.0  0.67720  0.65840  0.99820  1.0000 0.1491124682
H   H11       1.0  0.71280  0.66240  0.01560  1.0000 0.1491124682
H   H12       1.0  0.72830  0.70900  0.02730  1.0000 0.1491124682
H   H13       1.0  0.12160  0.68340  0.01180  1.0000 0.1410065991
H   H14       1.0  0.16290  0.73690  0.03960  1.0000 0.1582861444
H   H15       1.0  0.10890  0.70660  0.01970  1.0000 0.1410065991
H   H16       1.0  0.01890  0.58170  0.11600  1.0000 0.1410065991
H   H17       1.0  0.01330  0.61190  0.11420  1.0000 0.1491124682
H   H18       1.0  0.06930  0.64520  0.13350  1.0000 0.1491124682
H   H19       1.0  0.18200  0.32540  0.38760  1.0000 0.1491124682
H   H20       1.0  0.24720  0.38080  0.39620  1.0000 0.1582861444
H   H21       1.0  0.21760  0.33780  0.41540  1.0000 0.1491124682
H   H22       1.0  0.22490  0.24860  0.31490  1.0000 0.1410065991
H   H23       1.0  0.25300  0.26400  0.34920  1.0000 0.1582861444
H   H24       1.0  0.28610  0.31020  0.33190  1.0000 0.1491124682
H   H25       1.0  0.13470  0.14400  0.27170  1.0000 0.1410065991
H   H26       1.0  0.11150  0.10610  0.23920  1.0000 0.1491124682
H   H27       1.0  0.09890  0.08500  0.26910  1.0000 0.1410065991
H   H28       1.0  0.90420  0.00250  0.23110  1.0000 0.1330852375
H   H29       1.0  0.88970  0.95660  0.23270  1.0000 0.1582861444
H   H30       1.0  0.90140  0.97660  0.20240  1.0000 0.1410065991
H   H31       1.0  0.09840  0.38090  0.34950  1.0000 0.1410065991
H   H32       1.0  0.06340  0.35140  0.31440  1.0000 0.1491124682
H   H33       1.0  0.04970  0.36300  0.33970  1.0000 0.1410065991
H   H34       1.0  0.20870  0.57400  0.30670  1.0000 0.1410065991
H   H35       1.0  0.14770  0.53470  0.30100  1.0000 0.1582861444
H   H36       1.0  0.16330  0.52560  0.27550  1.0000 0.1410065991
H   H37       1.0  0.37150  0.05970  0.92260  1.0000 0.1491124682
H   H38       1.0  0.38400  0.04590  0.89790  1.0000 0.1491124682
H   H39       1.0  0.42530  0.10750  0.91160  1.0000 0.1491124682
H   H40       1.0  0.28170  0.04570  0.80440  1.0000 0.1491124682
H   H41       1.0  0.34390  0.09350  0.80420  1.0000 0.1491124682
H   H42       1.0  0.30090  0.03120  0.79090  1.0000 0.1582861444
H   H43       1.0  0.48730  0.19500  0.81330  1.0000 0.1491124682
H   H44       1.0  0.42810  0.15760  0.81290  1.0000 0.1491124682
H   H45       1.0  0.47350  0.19280  0.84490  1.0000 0.1410065991
H   H46       1.0  0.37090  0.98550  0.83040  1.0000 0.1410065991
H   H47       1.0  0.36590  0.00260  0.85930  1.0000 0.1491124682
H   H48       1.0  0.32390  0.97040  0.82610  1.0000 0.1582861444
H   H49       1.0  0.09180  0.89130  0.94830  1.0000 0.1410065991
H   H50       1.0  0.08560  0.85850  0.96650  1.0000 0.1491124682
H   H51       1.0  0.11060  0.90990  0.98490  1.0000 0.1582861444
H   H52       1.0  0.31890  0.02430  0.97520  1.0000 0.1410065991
H   H53       1.0  0.31470  0.02980  0.00910  1.0000 0.1410065991
H   H54       1.0  0.28600  0.97610  0.99070  1.0000 0.1491124682
H   H55       1.0  0.54870  0.46670  0.70420  1.0000 0.1491124682
H   H56       1.0  0.56850  0.49150  0.74040  1.0000 0.1491124682
H   H57       1.0  0.60840  0.50780  0.72360  1.0000 0.1582861444
H   H58       1.0  0.49900  0.30860  0.75100  1.0000 0.1491124682
H   H59       1.0  0.56350  0.36510  0.76620  1.0000 0.1491124682
H   H60       1.0  0.52300  0.34820  0.78280  1.0000 0.1491124682
H   H61       1.0  0.70660  0.49780  0.78000  1.0000 0.1410065991
H   H62       1.0  0.64290  0.43740  0.76650  1.0000 0.1491124682
H   H63       1.0  0.67260  0.48250  0.74890  1.0000 0.1582861444
H   H64       1.0  0.61090  0.53050  0.82800  1.0000 0.1491124682
H   H65       1.0  0.58380  0.50780  0.79180  1.0000 0.1491124682
H   H66       1.0  0.55670  0.46620  0.81170  1.0000 0.1410065991
H   H67       1.0  0.31700  0.20300  0.55220  1.0000 0.1410065991
H   H68       1.0  0.30600  0.22560  0.53940  1.0000 0.1491124682
H   H69       1.0  0.34530  0.23600  0.52710  1.0000 0.1582861444
H   H70       1.0  0.50900  0.43650  0.63930  1.0000 0.1410065991
H   H71       1.0  0.52280  0.44930  0.60730  1.0000 0.1491124682
H   H72       1.0  0.47930  0.43510  0.61600  1.0000 0.1491124682
H   H73       1.0  0.03780  0.41100  0.15420  1.0000 0.1410065991
H   H74       1.0  0.05290  0.45350  0.14240  1.0000 0.1582861444
H   H75       1.0  0.02990  0.40660  0.11830  1.0000 0.1491124682
H   H76       1.0  0.81170  0.28140  0.11910  1.0000 0.1410065991
H   H77       1.0  0.82260  0.28630  0.08610  1.0000 0.1491124682
H   H78       1.0  0.84760  0.33520  0.10920  1.0000 0.1491124682
H   H79       1.0  0.76540  0.25940  0.16140  1.0000 0.1410065991
H   H80       1.0  0.77230  0.29850  0.17660  1.0000 0.1582861444
H   H81       1.0  0.71880  0.23510  0.17490  1.0000 0.1491124682
H   H82       1.0  0.85820  0.32000  0.29960  1.0000 0.1410065991
H   H83       1.0  0.80150  0.28830  0.29900  1.0000 0.1410065991
H   H84       1.0  0.85370  0.35130  0.30000  1.0000 0.1491124682
H   H85       1.0  0.95370  0.34680  0.31370  1.0000 0.1330852375
H   H86       1.0  0.01610  0.40530  0.33260  1.0000 0.1582861444
H   H87       1.0  0.99160  0.35220  0.32820  1.0000 0.1491124682
H   H88       1.0  0.06420  0.40510  0.21210  1.0000 0.1410065991
H   H89       1.0  0.09450  0.40850  0.23700  1.0000 0.1491124682
H   H90       1.0  0.11570  0.45940  0.23970  1.0000 0.1491124682
H   H91       1.0  0.91370  0.92870  0.14500  1.0000 0.1410065991
H   H92       1.0  0.96590  0.99310  0.16000  1.0000 0.1491124682
H   H93       1.0  0.90980  0.95330  0.16810  1.0000 0.1410065991
H   H94       1.0  0.00540  0.95310  0.26950  1.0000 0.1330852375
H   H95       1.0  0.99010  0.97290  0.28020  1.0000 0.1491124682
H   H96       1.0  0.04760  0.01500  0.27340  1.0000 0.1330852375
H   H97       1.0  0.94890  0.86390  0.28640  1.0000 0.1410065991
H   H98       1.0  0.94810  0.83570  0.30580  1.0000 0.1491124682
H   H99       1.0  0.90650  0.82740  0.30630  1.0000 0.1491124682
H   H100      1.0  0.76480  0.63540  0.19520  1.0000 0.1491124682
H   H101      1.0  0.73990  0.62130  0.22360  1.0000 0.1582861444
H   H102      1.0  0.78100  0.62870  0.22350  1.0000 0.1491124682
H   H103      1.0  0.73080  0.62320  0.12780  1.0000 0.1410065991
H   H104      1.0  0.70130  0.59830  0.09180  1.0000 0.1491124682
H   H105      1.0  0.67460  0.59320  0.11600  1.0000 0.1491124682
H   H106      1.0  0.81700  0.81230  0.10050  1.0000 0.1410065991
H   H107      1.0  0.75300  0.76530  0.09150  1.0000 0.1582861444
H   H108      1.0  0.77900  0.76920  0.06720  1.0000 0.1410065991
H   H109      1.0  0.66290  0.44080  0.39470  1.0000 0.1491124682
H   H110      1.0  0.62790  0.38890  0.36780  1.0000 0.1491124682
H   H111      1.0  0.67990  0.42100  0.39290  1.0000 0.1491124682
H   H112      1.0  0.79110  0.54990  0.29960  1.0000 0.1410065991
H   H113      1.0  0.79490  0.51890  0.30540  1.0000 0.1491124682
H   H114      1.0  0.74150  0.48660  0.28230  1.0000 0.1582861444
H   H115      1.0  0.84450  0.64310  0.29180  1.0000 0.1410065991
H   H116      1.0  0.82370  0.64040  0.25990  1.0000 0.1491124682
H   H117      1.0  0.88550  0.69680  0.28030  1.0000 0.1491124682
H   H118      1.0  0.78900  0.72060  0.33680  1.0000 0.1410065991
H   H119      1.0  0.83440  0.76600  0.32040  1.0000 0.1410065991
H   H120      1.0  0.77250  0.70850  0.30040  1.0000 0.1491124682
H   H121      1.0  0.73000  0.67420  0.39160  1.0000 0.1491124682
H   H122      1.0  0.67210  0.63750  0.39420  1.0000 0.1491124682
H   H123      1.0  0.72150  0.67650  0.42460  1.0000 0.1491124682
H   H124      1.0  0.63410  0.47920  0.41750  1.0000 0.1410065991
H   H125      1.0  0.62960  0.49590  0.44710  1.0000 0.1410065991
H   H126      1.0  0.58300  0.45780  0.41520  1.0000 0.1582861444
H   H127      1.0  0.50550  0.09610  0.18560  1.0000 0.1410065991
H   H128      1.0  0.44440  0.04160  0.18760  1.0000 0.1410065991
H   H129      1.0  0.45580  0.06800  0.16060  1.0000 0.1491124682
H   H130      1.0  0.47470  0.19070  0.25220  1.0000 0.1491124682
H   H131      1.0  0.42720  0.15190  0.22070  1.0000 0.1491124682
H   H132      1.0  0.41690  0.12710  0.24840  1.0000 0.1491124682
H   H133      1.0  0.55990  0.29200  0.29350  1.0000 0.1410065991
H   H134      1.0  0.58530  0.33270  0.32520  1.0000 0.1491124682
H   H135      1.0  0.59230  0.34890  0.29380  1.0000 0.1582861444
H   H136      1.0  0.79620  0.44580  0.32500  1.0000 0.1491124682
H   H137      1.0  0.80700  0.48930  0.32510  1.0000 0.1491124682
H   H138      1.0  0.79850  0.46910  0.35500  1.0000 0.1491124682
H   H139      1.0  0.82260  0.40630  0.28610  1.0000 0.1410065991
H   H140      1.0  0.84390  0.39130  0.29160  1.0000 0.1491124682
H   H141      1.0  0.84530  0.40660  0.26090  1.0000 0.1582861444
H   H142      1.0  0.61830  0.16690  0.20800  1.0000 0.1491124682
H   H143      1.0  0.66260  0.19070  0.19190  1.0000 0.1491124682
H   H144      1.0  0.65520  0.17090  0.22170  1.0000 0.1410065991
H   H145      1.0  0.09490  0.79910  0.00940  1.0000 0.1410065991
H   H146      1.0  0.12880  0.82770  0.98470  1.0000 0.1582861444
H   H147      1.0  0.08690  0.81860  0.98730  1.0000 0.1491124682
H   H148      1.0  0.28900  0.04360  0.07800  1.0000 0.1410065991
H   H149      1.0  0.26230  0.03860  0.04830  1.0000 0.1491124682
H   H150      1.0  0.30330  0.04630  0.04660  1.0000 0.1410065991
H   H151      1.0  0.34920  0.07840  0.14080  1.0000 0.1410065991
H   H152      1.0  0.40710  0.11100  0.14830  1.0000 0.1582861444
H   H153      1.0  0.39100  0.11840  0.17440  1.0000 0.1491124682
H   H154      1.0  0.30160  0.92870  0.19810  1.0000 0.1410065991
H   H155      1.0  0.34840  0.98340  0.22600  1.0000 0.1491124682
H   H156      1.0  0.36440  0.97660  0.19920  1.0000 0.1491124682
H   H157      1.0  0.20000  0.80220  0.15920  1.0000 0.1410065991
H   H158      1.0  0.19780  0.77290  0.13450  1.0000 0.1582861444
H   H159      1.0  0.15000  0.73760  0.15080  1.0000 0.1410065991
H   H160      1.0  0.05280  0.72650  0.04170  1.0000 0.1410065991
H   H161      1.0  0.01700  0.66960  0.04600  1.0000 0.1491124682
H   H162      1.0  0.06380  0.70290  0.02910  1.0000 0.1491124682
H   H163      1.0  0.62300  0.53990  0.50630  1.0000 0.1410065991
H   H164      1.0  0.67680  0.58910  0.49570  1.0000 0.1491124682
H   H165      1.0  0.63620  0.52800  0.48060  1.0000 0.1491124682
H   H166      1.0  0.53120  0.52980  0.39120  1.0000 0.1410065991
H   H167      1.0  0.55230  0.51820  0.37630  1.0000 0.1582861444
H   H168      1.0  0.59370  0.57950  0.39120  1.0000 0.1491124682
H   H169      1.0  0.41600  0.45710  0.37630  1.0000 0.1410065991
H   H170      1.0  0.36780  0.43950  0.36510  1.0000 0.1491124682
H   H171      1.0  0.35940  0.39850  0.35290  1.0000 0.1491124682
H   H172      1.0  0.27530  0.32210  0.46420  1.0000 0.1410065991
H   H173      1.0  0.23370  0.27750  0.43140  1.0000 0.1582861444
H   H174      1.0  0.24070  0.31740  0.44370  1.0000 0.1410065991
H   H175      1.0  0.31530  0.31130  0.51440  1.0000 0.1491124682
H   H176      1.0  0.33100  0.32050  0.55050  1.0000 0.1491124682
H   H177      1.0  0.30760  0.27350  0.52610  1.0000 0.1491124682
H   H178      1.0  0.54940  0.46130  0.53830  1.0000 0.1410065991
H   H179      1.0  0.51890  0.40740  0.54410  1.0000 0.1582861444
H   H180      1.0  0.54070  0.45100  0.57130  1.0000 0.1410065991
H   H181      1.0  0.85930  0.83800  0.39290  1.0000 0.1410065991
H   H182      1.0  0.82580  0.82870  0.36570  1.0000 0.1582861444
H   H183      1.0  0.79500  0.78870  0.38710  1.0000 0.1410065991
H   H184      1.0  0.85900  0.95900  0.46220  1.0000 0.1410065991
H   H185      1.0  0.79520  0.89820  0.45140  1.0000 0.1491124682
H   H186      1.0  0.82350  0.93580  0.42850  1.0000 0.1410065991
H   H187      1.0  0.95490  0.46860  0.39930  1.0000 0.1410065991
H   H188      1.0  0.99550  0.50830  0.37920  1.0000 0.1582861444
H   H189      1.0  0.96250  0.50750  0.39040  1.0000 0.1410065991
H   H190      1.0  0.16020  0.67900  0.50180  1.0000 0.1410065991
H   H191      1.0  0.14680  0.69720  0.48440  1.0000 0.1491124682
H   H192      1.0  0.18170  0.70100  0.47270  1.0000 0.1491124682
H   H193      1.0  0.17160  0.10980  0.48820  1.0000 0.1410065991
H   H194      1.0  0.19730  0.12330  0.46040  1.0000 0.1582861444
H   H195      1.0  0.18690  0.08920  0.48030  1.0000 0.1410065991
H   H196      1.0  0.96570  0.90290  0.38400  1.0000 0.1410065991
H   H197      1.0  0.99770  0.89910  0.38580  1.0000 0.1491124682
H   H198      1.0  0.01170  0.93580  0.36650  1.0000 0.1491124682
H   H199      1.0  0.43780  0.79440  0.11240  1.0000 0.1491124682
H   H200      1.0  0.48460  0.85100  0.10380  1.0000 0.1582861444
H   H201      1.0  0.42240  0.80220  0.08460  1.0000 0.1491124682
H   H202      1.0  0.43370  0.91000  0.18510  1.0000 0.1410065991
H   H203      1.0  0.41480  0.90380  0.15080  1.0000 0.1582861444
H   H204      1.0  0.47830  0.95420  0.16810  1.0000 0.1491124682
H   H205      1.0  0.37230  0.86300  0.22830  1.0000 0.1410065991
H   H206      1.0  0.36690  0.87230  0.26080  1.0000 0.1491124682
H   H207      1.0  0.31590  0.82980  0.23090  1.0000 0.1410065991
H   H208      1.0  0.27140  0.67310  0.26890  1.0000 0.1330852375
H   H209      1.0  0.22390  0.65700  0.26730  1.0000 0.1582861444
H   H210      1.0  0.27420  0.69900  0.29760  1.0000 0.1410065991
H   H211      1.0  0.53140  0.74890  0.15050  1.0000 0.1410065991
H   H212      1.0  0.53700  0.74900  0.18560  1.0000 0.1491124682
H   H213      1.0  0.52330  0.71000  0.16030  1.0000 0.1410065991
H   H214      1.0  0.76730  0.90200  0.19330  1.0000 0.1410065991
H   H215      1.0  0.73370  0.84670  0.19900  1.0000 0.1582861444
H   H216      1.0  0.75010  0.88780  0.22450  1.0000 0.1410065991
H   H217      1.0  0.63710  0.44890  0.57740  1.0000 0.1491124682
H   H218      1.0  0.64800  0.48610  0.60210  1.0000 0.1491124682
H   H219      1.0  0.69590  0.51370  0.58840  1.0000 0.1491124682
H   H220      1.0  0.74130  0.47730  0.69560  1.0000 0.1491124682
H   H221      1.0  0.78930  0.53970  0.69580  1.0000 0.1491124682
H   H222      1.0  0.74030  0.51000  0.70910  1.0000 0.1582861444
H   H223      1.0  0.88170  0.67400  0.68670  1.0000 0.1491124682
H   H224      1.0  0.84470  0.61520  0.68710  1.0000 0.1491124682
H   H225      1.0  0.84790  0.62860  0.65510  1.0000 0.1410065991
H   H226      1.0  0.65510  0.54050  0.66960  1.0000 0.1410065991
H   H227      1.0  0.64330  0.50660  0.64070  1.0000 0.1491124682
H   H228      1.0  0.64430  0.49780  0.67390  1.0000 0.1582861444
H   H229      1.0  0.44300  0.14350  0.55170  1.0000 0.1410065991
H   H230      1.0  0.39200  0.11910  0.53350  1.0000 0.1491124682
H   H231      1.0  0.42500  0.12570  0.51510  1.0000 0.1582861444
H   H232      1.0  0.54910  0.34370  0.52480  1.0000 0.1410065991
H   H233      1.0  0.52070  0.30560  0.49090  1.0000 0.1410065991
H   H234      1.0  0.48540  0.29530  0.50930  1.0000 0.1491124682
H   H235      1.0  0.26250  0.84450  0.79580  1.0000 0.1491124682
H   H236      1.0  0.25110  0.82810  0.75960  1.0000 0.1491124682
H   H237      1.0  0.28420  0.88480  0.77640  1.0000 0.1582861444
H   H238      1.0  0.05760  0.74800  0.74900  1.0000 0.1491124682
H   H239      1.0  0.09890  0.79730  0.73380  1.0000 0.1491124682
H   H240      1.0  0.06540  0.74020  0.71720  1.0000 0.1491124682
H   H241      1.0  0.21780  0.92660  0.72000  1.0000 0.1410065991
H   H242      1.0  0.17090  0.87640  0.73350  1.0000 0.1491124682
H   H243      1.0  0.23360  0.92370  0.75110  1.0000 0.1582861444
H   H244      1.0  0.20250  0.78290  0.67200  1.0000 0.1491124682
H   H245      1.0  0.21600  0.79200  0.70820  1.0000 0.1491124682
H   H246      1.0  0.15450  0.74500  0.68830  1.0000 0.1410065991
H   H247      1.0  0.15080  0.76480  0.94780  1.0000 0.1410065991
H   H248      1.0  0.18620  0.76660  0.96060  1.0000 0.1410065991
H   H249      1.0  0.20890  0.81820  0.97290  1.0000 0.1582861444
H   H250      1.0  0.29720  0.86970  0.86070  1.0000 0.1410065991
H   H251      1.0  0.34200  0.91550  0.89270  1.0000 0.1491124682
H   H252      1.0  0.31910  0.86330  0.88400  1.0000 0.1491124682
H   H253      1.0  0.75680  0.88360  0.34580  1.0000 0.1410065991
H   H254      1.0  0.81110  0.91050  0.35760  1.0000 0.1582861444
H   H255      1.0  0.78830  0.91160  0.38170  1.0000 0.1491124682
H   H256      1.0  0.66230  0.69260  0.38090  1.0000 0.1410065991
H   H257      1.0  0.70020  0.73650  0.41390  1.0000 0.1491124682
H   H258      1.0  0.72600  0.73840  0.39080  1.0000 0.1491124682
H   H259      1.0  0.59800  0.60400  0.33860  1.0000 0.1410065991
H   H260      1.0  0.62190  0.59570  0.32340  1.0000 0.1582861444
H   H261      1.0  0.56020  0.54390  0.32510  1.0000 0.1491124682
H   H262      1.0  0.52040  0.55860  0.20040  1.0000 0.1410065991
H   H263      1.0  0.48930  0.50250  0.20100  1.0000 0.1410065991
H   H264      1.0  0.55130  0.55370  0.20000  1.0000 0.1491124682
H   H265      1.0  0.53310  0.64000  0.18630  1.0000 0.1330852375
H   H266      1.0  0.57270  0.68350  0.16740  1.0000 0.1582861444
H   H267      1.0  0.52400  0.66340  0.17180  1.0000 0.1491124682
H   H268      1.0  0.69300  0.85210  0.28790  1.0000 0.1410065991
H   H269      1.0  0.67150  0.85750  0.26300  1.0000 0.1582861444
H   H270      1.0  0.71970  0.87600  0.26030  1.0000 0.1491124682
H   H271      1.0  0.28370  0.76870  0.35500  1.0000 0.1410065991
H   H272      1.0  0.33310  0.80590  0.34000  1.0000 0.1582861444
H   H273      1.0  0.28520  0.74170  0.33190  1.0000 0.1410065991
H   H274      1.0  0.18360  0.73590  0.23050  1.0000 0.1330852375
H   H275      1.0  0.19270  0.70990  0.21980  1.0000 0.1491124682
H   H276      1.0  0.24160  0.77420  0.22660  1.0000 0.1330852375
H   H277      1.0  0.07750  0.66250  0.21360  1.0000 0.1410065991
H   H278      1.0  0.02990  0.64230  0.19420  1.0000 0.1491124682
H   H279      1.0  0.02110  0.60020  0.19370  1.0000 0.1491124682
H   H280      1.0  0.94020  0.56960  0.30480  1.0000 0.1491124682
H   H281      1.0  0.89770  0.51630  0.27640  1.0000 0.1582861444
H   H282      1.0  0.90520  0.55750  0.27650  1.0000 0.1491124682
H   H283      1.0  0.99540  0.60300  0.37220  1.0000 0.1410065991
H   H284      1.0  0.00650  0.60950  0.40820  1.0000 0.1491124682
H   H285      1.0  0.97720  0.55860  0.38400  1.0000 0.1491124682
H   H286      1.0  0.21180  0.71650  0.39950  1.0000 0.1410065991
H   H287      1.0  0.17380  0.66150  0.40850  1.0000 0.1582861444
H   H288      1.0  0.20200  0.71180  0.43280  1.0000 0.1410065991
H   H289      1.0  0.54610  0.26820  0.10530  1.0000 0.1491124682
H   H290      1.0  0.52110  0.26010  0.13220  1.0000 0.1491124682
H   H291      1.0  0.52810  0.28700  0.10710  1.0000 0.1491124682
H   H292      1.0  0.75030  0.49150  0.20040  1.0000 0.1410065991
H   H293      1.0  0.71350  0.48950  0.19460  1.0000 0.1491124682
H   H294      1.0  0.70430  0.45920  0.21770  1.0000 0.1582861444
H   H295      1.0  0.85130  0.55270  0.20820  1.0000 0.1410065991
H   H296      1.0  0.88050  0.56380  0.24010  1.0000 0.1491124682
H   H297      1.0  0.91650  0.60520  0.21970  1.0000 0.1491124682
H   H298      1.0  0.88380  0.45220  0.16320  1.0000 0.1410065991
H   H299      1.0  0.94560  0.51400  0.17960  1.0000 0.1410065991
H   H300      1.0  0.90810  0.47210  0.19960  1.0000 0.1491124682
H   H301      1.0  0.78260  0.33840  0.10840  1.0000 0.1491124682
H   H302      1.0  0.74330  0.27790  0.10580  1.0000 0.1491124682
H   H303      1.0  0.75190  0.29690  0.07540  1.0000 0.1491124682
H   H304      1.0  0.56170  0.21660  0.08250  1.0000 0.1410065991
H   H305      1.0  0.54880  0.18250  0.05290  1.0000 0.1410065991
H   H306      1.0  0.54260  0.16780  0.08480  1.0000 0.1582861444
H   H307      1.0  0.41050  0.31990  0.31440  1.0000 0.1410065991
H   H308      1.0  0.35400  0.25680  0.31240  1.0000 0.1410065991
H   H309      1.0  0.40740  0.29520  0.33940  1.0000 0.1491124682
H   H310      1.0  0.43850  0.22250  0.24780  1.0000 0.1491124682
H   H311      1.0  0.43120  0.20650  0.27930  1.0000 0.1491124682
H   H312      1.0  0.37870  0.16850  0.25160  1.0000 0.1491124682
H   H313      1.0  0.49850  0.26640  0.20650  1.0000 0.1410065991
H   H314      1.0  0.50750  0.26010  0.17480  1.0000 0.1491124682
H   H315      1.0  0.55510  0.29850  0.20620  1.0000 0.1582861444
H   H316      1.0  0.62080  0.47120  0.17500  1.0000 0.1491124682
H   H317      1.0  0.66420  0.48190  0.17490  1.0000 0.1491124682
H   H318      1.0  0.61410  0.44350  0.14500  1.0000 0.1491124682
H   H319      1.0  0.62020  0.53650  0.21390  1.0000 0.1410065991
H   H320      1.0  0.59970  0.55230  0.20840  1.0000 0.1491124682
H   H321      1.0  0.64570  0.58440  0.23910  1.0000 0.1582861444
H   H322      1.0  0.45890  0.41030  0.29200  1.0000 0.1491124682
H   H323      1.0  0.49880  0.47070  0.30810  1.0000 0.1491124682
H   H324      1.0  0.44920  0.43350  0.27830  1.0000 0.1410065991
H   H325      1.0  0.28970  0.08550  0.49060  1.0000 0.1410065991
H   H326      1.0  0.34300  0.14410  0.51530  1.0000 0.1582861444
H   H327      1.0  0.33130  0.09960  0.51270  1.0000 0.1491124682
H   H328      1.0  0.46560  0.21100  0.42200  1.0000 0.1410065991
H   H329      1.0  0.49030  0.21400  0.45170  1.0000 0.1491124682
H   H330      1.0  0.49970  0.25670  0.45340  1.0000 0.1410065991
H   H331      1.0  0.43760  0.20840  0.35920  1.0000 0.1410065991
H   H332      1.0  0.46270  0.25880  0.35170  1.0000 0.1582861444
H   H333      1.0  0.44400  0.21660  0.32560  1.0000 0.1491124682
H   H334      1.0  0.23060  0.10350  0.30190  1.0000 0.1410065991
H   H335      1.0  0.25740  0.12240  0.27400  1.0000 0.1491124682
H   H336      1.0  0.27740  0.16520  0.30080  1.0000 0.1491124682
H   H337      1.0  0.14300  0.04080  0.34080  1.0000 0.1410065991
H   H338      1.0  0.13840  0.06330  0.36550  1.0000 0.1582861444
H   H339      1.0  0.08680  0.99920  0.34920  1.0000 0.1410065991
H   H340      1.0  0.18480  0.01110  0.45830  1.0000 0.1410065991
H   H341      1.0  0.12360  0.97100  0.45400  1.0000 0.1491124682
H   H342      1.0  0.17380  0.03470  0.47090  1.0000 0.1491124682
H   H343      1.0  0.53360  0.11670  0.99370  1.0000 0.1410065991
H   H344      1.0  0.59340  0.18110  0.00430  1.0000 0.1491124682
H   H345      1.0  0.54740  0.15560  0.01940  1.0000 0.1491124682
H   H346      1.0  0.63860  0.14000  0.10880  1.0000 0.1410065991
H   H347      1.0  0.64190  0.17600  0.12370  1.0000 0.1582861444
H   H348      1.0  0.68830  0.20250  0.10880  1.0000 0.1491124682
H   H349      1.0  0.58080  0.03970  0.12370  1.0000 0.1410065991
H   H350      1.0  0.57440  0.00270  0.13490  1.0000 0.1491124682
H   H351      1.0  0.54560  0.00650  0.14710  1.0000 0.1491124682
H   H352      1.0  0.35790  0.81110  0.03580  1.0000 0.1410065991
H   H353      1.0  0.34610  0.80230  0.06860  1.0000 0.1582861444
H   H354      1.0  0.37370  0.79700  0.05630  1.0000 0.1410065991
H   H355      1.0  0.29690  0.80090  0.98560  1.0000 0.1491124682
H   H356      1.0  0.27000  0.78050  0.94950  1.0000 0.1491124682
H   H357      1.0  0.24740  0.78150  0.97390  1.0000 0.1491124682
H   H358      1.0  0.42300  0.01110  0.96170  1.0000 0.1410065991
H   H359      1.0  0.36330  0.97480  0.95590  1.0000 0.1582861444
H   H360      1.0  0.37970  0.96940  0.92870  1.0000 0.1410065991
H   H361      1.0  0.96640  0.35930  0.52130  1.0000 0.1410065991
H   H362      1.0  0.96010  0.32580  0.49710  1.0000 0.1582861444
H   H363      1.0  0.90790  0.29500  0.50630  1.0000 0.1410065991
H   H364      1.0  0.89680  0.35900  0.40000  1.0000 0.1410065991
H   H365      1.0  0.84380  0.29520  0.39700  1.0000 0.1491124682
H   H366      1.0  0.89500  0.32350  0.38770  1.0000 0.1491124682
H   H367      1.0  0.05560  0.45490  0.98630  1.0000 0.1410065991
H   H368      1.0  0.11630  0.49550  0.98720  1.0000 0.1582861444
H   H369      1.0  0.07210  0.46250  0.95500  1.0000 0.1410065991
H   H370      1.0  0.15840  0.66020  0.98120  1.0000 0.1410065991
H   H371      1.0  0.16240  0.64680  0.94960  1.0000 0.1491124682
H   H372      1.0  0.20900  0.68170  0.98070  1.0000 0.1491124682
H   H373      1.0  0.18340  0.67160  0.56180  1.0000 0.1410065991
H   H374      1.0  0.23690  0.69730  0.57400  1.0000 0.1582861444
H   H375      1.0  0.20660  0.68690  0.59770  1.0000 0.1410065991
H   H376      1.0  0.08170  0.46570  0.56280  1.0000 0.1410065991
H   H377      1.0  0.11190  0.49770  0.59860  1.0000 0.1491124682
H   H378      1.0  0.14520  0.51170  0.57590  1.0000 0.1491124682
H   H379      1.0  0.82540  0.93780  0.14340  1.0000 0.1491124682
H   H380      1.0  0.88080  0.98460  0.13360  1.0000 0.1582861444
H   H381      1.0  0.83780  0.92240  0.12020  1.0000 0.1491124682
H   H382      1.0  0.74860  0.93370  0.02370  1.0000 0.1410065991
H   H383      1.0  0.76400  0.91480  0.01100  1.0000 0.1582861444
H   H384      1.0  0.81020  0.97830  0.02410  1.0000 0.1491124682
H   H385      1.0  0.64400  0.87230  0.00930  1.0000 0.1410065991
H   H386      1.0  0.60610  0.86690  0.99460  1.0000 0.1491124682
H   H387      1.0  0.58500  0.81590  0.98610  1.0000 0.1410065991
H   H388      1.0  0.50250  0.77140  0.09830  1.0000 0.1330852375
H   H389      1.0  0.45660  0.72390  0.06690  1.0000 0.1582861444
H   H390      1.0  0.47660  0.77420  0.07520  1.0000 0.1410065991
H   H391      1.0  0.88090  0.03140  0.28250  1.0000 0.1410065991
H   H392      1.0  0.85140  0.03700  0.28800  1.0000 0.1491124682
H   H393      1.0  0.86300  0.02330  0.31330  1.0000 0.1410065991
H   H394      1.0  0.07400  0.26730  0.36530  1.0000 0.1410065991
H   H395      1.0  0.03470  0.23370  0.38700  1.0000 0.1582861444
H   H396      1.0  0.02560  0.25010  0.36230  1.0000 0.1410065991
H   H397      1.0  0.55970  0.13710  0.68820  1.0000 0.1491124682
H   H398      1.0  0.54590  0.14800  0.66190  1.0000 0.1491124682
H   H399      1.0  0.60750  0.19590  0.68220  1.0000 0.1491124682
H   H400      1.0  0.54570  0.24130  0.76400  1.0000 0.1491124682
H   H401      1.0  0.59350  0.28930  0.74960  1.0000 0.1491124682
H   H402      1.0  0.53120  0.24030  0.73030  1.0000 0.1582861444
H   H403      1.0  0.69500  0.38170  0.70770  1.0000 0.1491124682
H   H404      1.0  0.65760  0.34470  0.72950  1.0000 0.1491124682
H   H405      1.0  0.69280  0.34790  0.71930  1.0000 0.1410065991
H   H406      1.0  0.48550  0.15510  0.61460  1.0000 0.1410065991
H   H407      1.0  0.50260  0.14330  0.63670  1.0000 0.1491124682
H   H408      1.0  0.47040  0.14430  0.64650  1.0000 0.1582861444
H   H409      1.0  0.39130  0.94300  0.79950  1.0000 0.1410065991
H   H410      1.0  0.35850  0.89200  0.77290  1.0000 0.1491124682
H   H411      1.0  0.40990  0.92500  0.79930  1.0000 0.1582861444
H   H412      1.0  0.52430  0.04910  0.70540  1.0000 0.1410065991
H   H413      1.0  0.52980  0.02070  0.71510  1.0000 0.1410065991
H   H414      1.0  0.47610  0.98540  0.69010  1.0000 0.1491124682
H   H415      1.0  0.96670  0.76250  0.91800  1.0000 0.1491124682
H   H416      1.0  0.99150  0.75110  0.92300  1.0000 0.1491124682
H   H417      1.0  0.00780  0.78420  0.89940  1.0000 0.1582861444
H   H418      1.0  0.80860  0.55760  0.80960  1.0000 0.1491124682
H   H419      1.0  0.86510  0.59890  0.80160  1.0000 0.1491124682
H   H420      1.0  0.84820  0.56540  0.82520  1.0000 0.1491124682
H   H421      1.0  0.99780  0.71780  0.79120  1.0000 0.1410065991
H   H422      1.0  0.93740  0.67090  0.79450  1.0000 0.1491124682
H   H423      1.0  0.98250  0.73360  0.80990  1.0000 0.1582861444
H   H424      1.0  0.03050  0.70250  0.91960  1.0000 0.1491124682
H   H425      1.0  0.00780  0.71600  0.92400  1.0000 0.1491124682
H   H426      1.0  0.96620  0.65450  0.90950  1.0000 0.1410065991
H   H427      1.0  0.70300  0.65080  0.88600  1.0000 0.1410065991
H   H428      1.0  0.72560  0.68620  0.91960  1.0000 0.1410065991
H   H429      1.0  0.73600  0.70890  0.89070  1.0000 0.1582861444
H   H430      1.0  0.93650  0.79720  0.92750  1.0000 0.1410065991
H   H431      1.0  0.94930  0.84200  0.92650  1.0000 0.1491124682
H   H432      1.0  0.93510  0.81910  0.95580  1.0000 0.1491124682
H   H433      1.0  0.91100  0.25680  0.37320  1.0000 0.1410065991
H   H434      1.0  0.95350  0.31110  0.40060  1.0000 0.1582861444
H   H435      1.0  0.90660  0.28830  0.37670  1.0000 0.1491124682
H   H436      1.0  0.78140  0.16230  0.46970  1.0000 0.1410065991
H   H437      1.0  0.78630  0.20020  0.46370  1.0000 0.1491124682
H   H438      1.0  0.83520  0.22600  0.48760  1.0000 0.1491124682
H   H439      1.0  0.75940  0.09800  0.49400  1.0000 0.1410065991
H   H440      1.0  0.79850  0.12190  0.52620  1.0000 0.1582861444
H   H441      1.0  0.73510  0.06020  0.51630  1.0000 0.1491124682
H   H442      1.0  0.82000  0.02040  0.46180  1.0000 0.1410065991
H   H443      1.0  0.78830  0.98930  0.48680  1.0000 0.1491124682
H   H444      1.0  0.85130  0.05130  0.49760  1.0000 0.1491124682
H   H445      1.0  0.84680  0.03310  0.39310  1.0000 0.1330852375
H   H446      1.0  0.90530  0.07270  0.38920  1.0000 0.1582861444
H   H447      1.0  0.85220  0.02400  0.36060  1.0000 0.1491124682
H   H448      1.0  0.90510  0.19300  0.34090  1.0000 0.1410065991
H   H449      1.0  0.90850  0.17150  0.31400  1.0000 0.1582861444
H   H450      1.0  0.95940  0.21970  0.34370  1.0000 0.1491124682
H   H451      1.0  0.42870  0.78370  0.01500  1.0000 0.1410065991
H   H452      1.0  0.49310  0.83310  0.02720  1.0000 0.1491124682
H   H453      1.0  0.45330  0.78520  0.04350  1.0000 0.1410065991
H   H454      1.0  0.45310  0.68360  0.94770  1.0000 0.1330852375
H   H455      1.0  0.47290  0.69270  0.98280  1.0000 0.1491124682
H   H456      1.0  0.51500  0.74160  0.96740  1.0000 0.1330852375
H   H457      1.0  0.36390  0.57750  0.91500  1.0000 0.1410065991
H   H458      1.0  0.33570  0.52990  0.88760  1.0000 0.1491124682
H   H459      1.0  0.32740  0.52110  0.92090  1.0000 0.1491124682
H   H460      1.0  0.13540  0.44020  0.87060  1.0000 0.1491124682
H   H461      1.0  0.12130  0.39770  0.88140  1.0000 0.1582861444
H   H462      1.0  0.12870  0.40520  0.84770  1.0000 0.1491124682
H   H463      1.0  0.12320  0.49540  0.89240  1.0000 0.1410065991
H   H464      1.0  0.09830  0.50650  0.89700  1.0000 0.1491124682
H   H465      1.0  0.09320  0.47720  0.91860  1.0000 0.1491124682
H   H466      1.0  0.31230  0.71180  0.99530  1.0000 0.1410065991
H   H467      1.0  0.26530  0.67380  0.01230  1.0000 0.1582861444
H   H468      1.0  0.26920  0.70200  0.99020  1.0000 0.1410065991
H   H469      1.0  0.94080  0.04610  0.77790  1.0000 0.1491124682
H   H470      1.0  0.88890  0.02110  0.76100  1.0000 0.1491124682
H   H471      1.0  0.92100  0.02810  0.74110  1.0000 0.1491124682
H   H472      1.0  0.04990  0.25030  0.75880  1.0000 0.1410065991
H   H473      1.0  0.01890  0.21350  0.72400  1.0000 0.1491124682
H   H474      1.0  0.98660  0.20430  0.74510  1.0000 0.1582861444
H   H475      1.0  0.14310  0.35130  0.79860  1.0000 0.1410065991
H   H476      1.0  0.14040  0.38050  0.81670  1.0000 0.1491124682
H   H477      1.0  0.19680  0.41650  0.81130  1.0000 0.1491124682
H   H478      1.0  0.22060  0.38380  0.93160  1.0000 0.1410065991
H   H479      1.0  0.26600  0.44560  0.93160  1.0000 0.1410065991
H   H480      1.0  0.20850  0.40810  0.93600  1.0000 0.1491124682
H   H481      1.0  0.17420  0.28260  0.94420  1.0000 0.1491124682
H   H482      1.0  0.13750  0.24330  0.96540  1.0000 0.1491124682
H   H483      1.0  0.17650  0.25190  0.95500  1.0000 0.1491124682
H   H484      1.0  0.97920  0.06170  0.84510  1.0000 0.1410065991
H   H485      1.0  0.99590  0.04880  0.86630  1.0000 0.1410065991
H   H486      1.0  0.95780  0.04260  0.87480  1.0000 0.1582861444
H   H487      1.0  0.59610  0.91050  0.59060  1.0000 0.1410065991
H   H488      1.0  0.54160  0.85400  0.59720  1.0000 0.1410065991
H   H489      1.0  0.56800  0.90740  0.61220  1.0000 0.1491124682
H   H490      1.0  0.69070  0.93850  0.71600  1.0000 0.1491124682
H   H491      1.0  0.65190  0.93120  0.72470  1.0000 0.1491124682
H   H492      1.0  0.62710  0.87870  0.71020  1.0000 0.1491124682
H   H493      1.0  0.79200  0.99850  0.73210  1.0000 0.1410065991
H   H494      1.0  0.83270  0.00750  0.74740  1.0000 0.1491124682
H   H495      1.0  0.84890  0.05510  0.75660  1.0000 0.1582861444
H   H496      1.0  0.94580  0.12080  0.64960  1.0000 0.1491124682
H   H497      1.0  0.98930  0.16420  0.68230  1.0000 0.1491124682
H   H498      1.0  0.96910  0.11410  0.67060  1.0000 0.1491124682
H   H499      1.0  0.90630  0.12020  0.58370  1.0000 0.1410065991
H   H500      1.0  0.89130  0.09970  0.54740  1.0000 0.1491124682
H   H501      1.0  0.90660  0.14570  0.56130  1.0000 0.1582861444
H   H502      1.0  0.66690  0.95890  0.54860  1.0000 0.1491124682
H   H503      1.0  0.69070  0.99880  0.52810  1.0000 0.1491124682
H   H504      1.0  0.67090  0.94920  0.51570  1.0000 0.1410065991
H   H505      1.0  0.29910  0.78970  0.70420  1.0000 0.1410065991
H   H506      1.0  0.32770  0.84300  0.69890  1.0000 0.1582861444
H   H507      1.0  0.31860  0.83130  0.73170  1.0000 0.1491124682
H   H508      1.0  0.54360  0.96560  0.75460  1.0000 0.1410065991
H   H509      1.0  0.53860  0.99030  0.77630  1.0000 0.1491124682
H   H510      1.0  0.54630  0.99970  0.74300  1.0000 0.1410065991
H   H511      1.0  0.57840  0.93760  0.72920  1.0000 0.1410065991
H   H512      1.0  0.61100  0.96270  0.70390  1.0000 0.1582861444
H   H513      1.0  0.61840  0.94400  0.72740  1.0000 0.1491124682
H   H514      1.0  0.42870  0.73060  0.62710  1.0000 0.1410065991
H   H515      1.0  0.48340  0.75740  0.63500  1.0000 0.1491124682
H   H516      1.0  0.47660  0.77740  0.61220  1.0000 0.1491124682
H   H517      1.0  0.30220  0.64300  0.60220  1.0000 0.1410065991
H   H518      1.0  0.27290  0.63840  0.57510  1.0000 0.1582861444
H   H519      1.0  0.23760  0.58680  0.58760  1.0000 0.1410065991
H   H520      1.0  0.22650  0.68480  0.67370  1.0000 0.1410065991
H   H521      1.0  0.16960  0.62360  0.65260  1.0000 0.1491124682
H   H522      1.0  0.20290  0.67380  0.63910  1.0000 0.1491124682
H   H523      1.0  0.03990  0.03360  0.91690  1.0000 0.1410065991
H   H524      1.0  0.08910  0.09340  0.91230  1.0000 0.1491124682
H   H525      1.0  0.02800  0.04740  0.89180  1.0000 0.1491124682
H   H526      1.0  0.02980  0.13860  0.99860  1.0000 0.1410065991
H   H527      1.0  0.01820  0.14190  0.96590  1.0000 0.1582861444
H   H528      1.0  0.07950  0.18830  0.98580  1.0000 0.1491124682
H   H529      1.0  0.95710  0.08080  0.04110  1.0000 0.1410065991
H   H530      1.0  0.93950  0.07440  0.07170  1.0000 0.1491124682
H   H531      1.0  0.89850  0.04560  0.03910  1.0000 0.1491124682
H   H532      1.0  0.82210  0.85790  0.04680  1.0000 0.1410065991
H   H533      1.0  0.77750  0.84610  0.04380  1.0000 0.1582861444
H   H534      1.0  0.81740  0.87370  0.07670  1.0000 0.1410065991
H   H535      1.0  0.81130  0.79690  0.99600  1.0000 0.1491124682
H   H536      1.0  0.82050  0.77000  0.98950  1.0000 0.1491124682
H   H537      1.0  0.77350  0.74740  0.96590  1.0000 0.1491124682
H   H538      1.0  0.96130  0.92300  0.91190  1.0000 0.1410065991
H   H539      1.0  0.90740  0.86330  0.88850  1.0000 0.1582861444
H   H540      1.0  0.95100  0.87970  0.91030  1.0000 0.1410065991
H   H541      1.0  0.33800  0.44510  0.97870  1.0000 0.1410065991
H   H542      1.0  0.32870  0.46300  0.00290  1.0000 0.1582861444
H   H543      1.0  0.28870  0.40160  0.99370  1.0000 0.1410065991
H   H544      1.0  0.45900  0.49680  0.10000  1.0000 0.1410065991
H   H545      1.0  0.39820  0.44680  0.10300  1.0000 0.1491124682
H   H546      1.0  0.43580  0.50730  0.11230  1.0000 0.1491124682
H   H547      1.0  0.96860  0.06930  0.51370  1.0000 0.1410065991
H   H548      1.0  0.00830  0.12910  0.51280  1.0000 0.1582861444
H   H549      1.0  0.00750  0.11710  0.54500  1.0000 0.1410065991
H   H550      1.0  0.17900  0.17720  0.51880  1.0000 0.1491124682
H   H551      1.0  0.19720  0.21280  0.55040  1.0000 0.1491124682
H   H552      1.0  0.20100  0.22830  0.51930  1.0000 0.1491124682
H   H553      1.0  0.60980  0.62160  0.93820  1.0000 0.1410065991
H   H554      1.0  0.62330  0.66290  0.92600  1.0000 0.1582861444
H   H555      1.0  0.58920  0.60890  0.90230  1.0000 0.1410065991
H   H556      1.0  0.40290  0.51890  0.93720  1.0000 0.1410065991
H   H557      1.0  0.39910  0.51330  0.90140  1.0000 0.1491124682
H   H558      1.0  0.43580  0.56930  0.92410  1.0000 0.1491124682
H   H559      1.0  0.29440  0.68200  0.35660  1.0000 0.1491124682
H   H560      1.0  0.35100  0.74720  0.36640  1.0000 0.1582861444
H   H561      1.0  0.30220  0.71760  0.37980  1.0000 0.1491124682
H   H562      1.0  0.41000  0.72490  0.47630  1.0000 0.1410065991
H   H563      1.0  0.40380  0.75300  0.48900  1.0000 0.1582861444
H   H564      1.0  0.45420  0.78610  0.47590  1.0000 0.1491124682
H   H565      1.0  0.36300  0.63470  0.49070  1.0000 0.1410065991
H   H566      1.0  0.37230  0.61150  0.50540  1.0000 0.1491124682
H   H567      1.0  0.32980  0.59890  0.51390  1.0000 0.1410065991
H   H568      1.0  0.17310  0.40420  0.40170  1.0000 0.1330852375
H   H569      1.0  0.15700  0.38970  0.43310  1.0000 0.1582861444
H   H570      1.0  0.19900  0.40140  0.42480  1.0000 0.1410065991
H   H571      1.0  0.24890  0.59840  0.21750  1.0000 0.1410065991
H   H572      1.0  0.24900  0.56340  0.21200  1.0000 0.1491124682
H   H573      1.0  0.21000  0.54970  0.18670  1.0000 0.1410065991
H   H574      1.0  0.40200  0.70870  0.13470  1.0000 0.1410065991
H   H575      1.0  0.34670  0.64770  0.11300  1.0000 0.1582861444
H   H576      1.0  0.38780  0.66330  0.13770  1.0000 0.1410065991
H   H577      1.0  0.94890  0.87150  0.81180  1.0000 0.1491124682
H   H578      1.0  0.98610  0.88400  0.83810  1.0000 0.1491124682
H   H579      1.0  0.01370  0.92530  0.81780  1.0000 0.1491124682
H   H580      1.0  0.97730  0.78170  0.73600  1.0000 0.1491124682
H   H581      1.0  0.03970  0.84390  0.75040  1.0000 0.1491124682
H   H582      1.0  0.01000  0.80090  0.76970  1.0000 0.1582861444
H   H583      1.0  0.17400  0.98730  0.79230  1.0000 0.1491124682
H   H584      1.0  0.11520  0.92810  0.77050  1.0000 0.1491124682
H   H585      1.0  0.12860  0.97350  0.78070  1.0000 0.1410065991
H   H586      1.0  0.04050  0.87090  0.88540  1.0000 0.1410065991
H   H587      1.0  0.00660  0.86590  0.86330  1.0000 0.1491124682
H   H588      1.0  0.99780  0.82390  0.85350  1.0000 0.1582861444
H   H589      1.0  0.64350  0.59180  0.70050  1.0000 0.1410065991
H   H590      1.0  0.61910  0.58560  0.72710  1.0000 0.1491124682
H   H591      1.0  0.62570  0.61060  0.70070  1.0000 0.1582861444
H   H592      1.0  0.84370  0.81890  0.79460  1.0000 0.1410065991
H   H593      1.0  0.80560  0.81470  0.78490  1.0000 0.1410065991
H   H594      1.0  0.79530  0.78600  0.80990  1.0000 0.1491124682
H   H595      1.0  0.34450  0.04870  0.58200  1.0000 0.1491124682
H   H596      1.0  0.32810  0.06850  0.57700  1.0000 0.1491124682
H   H597      1.0  0.38480  0.10840  0.60060  1.0000 0.1582861444
H   H598      1.0  0.24800  0.99900  0.69040  1.0000 0.1491124682
H   H599      1.0  0.29730  0.06350  0.69840  1.0000 0.1491124682
H   H600      1.0  0.24020  0.02300  0.67480  1.0000 0.1491124682
H   H601      1.0  0.42660  0.20660  0.70880  1.0000 0.1410065991
H   H602      1.0  0.37640  0.14290  0.70550  1.0000 0.1491124682
H   H603      1.0  0.42370  0.17260  0.69010  1.0000 0.1582861444
H   H604      1.0  0.28290  0.11090  0.58040  1.0000 0.1491124682
H   H605      1.0  0.29200  0.08380  0.57600  1.0000 0.1491124682
H   H606      1.0  0.24500  0.05670  0.59050  1.0000 0.1410065991
H   H607      1.0  0.26480  0.81700  0.61400  1.0000 0.1410065991
H   H608      1.0  0.26660  0.80600  0.58040  1.0000 0.1410065991
H   H609      1.0  0.31820  0.84530  0.60930  1.0000 0.1582861444
H   H610      1.0  0.36970  0.00900  0.57250  1.0000 0.1410065991
H   H611      1.0  0.41550  0.02280  0.57350  1.0000 0.1491124682
H   H612      1.0  0.36330  0.97930  0.54420  1.0000 0.1491124682
H   H613      1.0  0.38360  0.53780  0.12680  1.0000 0.1410065991
H   H614      1.0  0.41050  0.55290  0.09940  1.0000 0.1582861444
H   H615      1.0  0.41160  0.52990  0.12330  1.0000 0.1491124682
H   H616      1.0  0.19260  0.31170  0.03030  1.0000 0.1410065991
H   H617      1.0  0.23650  0.32260  0.03630  1.0000 0.1491124682
H   H618      1.0  0.23840  0.34760  0.01240  1.0000 0.1491124682
H   H619      1.0  0.10400  0.26540  0.00600  1.0000 0.1410065991
H   H620      1.0  0.09570  0.27230  0.97380  1.0000 0.1582861444
H   H621      1.0  0.04390  0.21880  0.98370  1.0000 0.1491124682
H   H622      1.0  0.05860  0.35820  0.03820  1.0000 0.1410065991
H   H623      1.0  0.00250  0.30150  0.01320  1.0000 0.1410065991
H   H624      1.0  0.05370  0.35370  0.00240  1.0000 0.1491124682
H   H625      1.0  0.14000  0.45370  0.10690  1.0000 0.1330852375
H   H626      1.0  0.18350  0.51610  0.11080  1.0000 0.1582861444
H   H627      1.0  0.16340  0.49160  0.13940  1.0000 0.1491124682
H   H628      1.0  0.35210  0.56420  0.15910  1.0000 0.1410065991
H   H629      1.0  0.35750  0.59450  0.18600  1.0000 0.1491124682
H   H630      1.0  0.37600  0.61570  0.15630  1.0000 0.1491124682
H   H631      1.0  0.26870  0.41370  0.48500  1.0000 0.1410065991
H   H632      1.0  0.30590  0.46590  0.47280  1.0000 0.1582861444
H   H633      1.0  0.24170  0.40980  0.45650  1.0000 0.1410065991
H   H634      1.0  0.23590  0.50540  0.55230  1.0000 0.1330852375
H   H635      1.0  0.20990  0.49010  0.51720  1.0000 0.1491124682
H   H636      1.0  0.27420  0.54760  0.53260  1.0000 0.1330852375
H   H637      1.0  0.16250  0.44890  0.58500  1.0000 0.1410065991
H   H638      1.0  0.14230  0.44810  0.61240  1.0000 0.1491124682
H   H639      1.0  0.10020  0.40650  0.57910  1.0000 0.1491124682
H   H640      1.0  0.06960  0.26480  0.62940  1.0000 0.1491124682
H   H641      1.0  0.01630  0.23990  0.61860  1.0000 0.1582861444
H   H642      1.0  0.05750  0.28100  0.65230  1.0000 0.1491124682
H   H643      1.0  0.10300  0.23080  0.60760  1.0000 0.1410065991
H   H644      1.0  0.10950  0.20130  0.60300  1.0000 0.1491124682
H   H645      1.0  0.05860  0.17460  0.58140  1.0000 0.1491124682
H   H646      1.0  0.21650  0.31700  0.50470  1.0000 0.1410065991
H   H647      1.0  0.16150  0.25300  0.48770  1.0000 0.1582861444
H   H648      1.0  0.21180  0.27900  0.50980  1.0000 0.1410065991
H   H649      1.0  0.76820  0.16290  0.72210  1.0000 0.1491124682
H   H650      1.0  0.76010  0.12790  0.73900  1.0000 0.1491124682
H   H651      1.0  0.78700  0.17990  0.75890  1.0000 0.1491124682
H   H652      1.0  0.99150  0.29110  0.74120  1.0000 0.1410065991
H   H653      1.0  0.98950  0.29490  0.77600  1.0000 0.1491124682
H   H654      1.0  0.95920  0.24150  0.75490  1.0000 0.1582861444
H   H655      1.0  0.05270  0.34450  0.70140  1.0000 0.1410065991
H   H656      1.0  0.06380  0.32370  0.68330  1.0000 0.1491124682
H   H657      1.0  0.10520  0.38550  0.68870  1.0000 0.1491124682
H   H658      1.0  0.95220  0.28900  0.56840  1.0000 0.1410065991
H   H659      1.0  0.01400  0.33440  0.56840  1.0000 0.1410065991
H   H660      1.0  0.97210  0.27250  0.56400  1.0000 0.1491124682
H   H661      1.0  0.83840  0.23000  0.55580  1.0000 0.1491124682
H   H662      1.0  0.77790  0.17210  0.53460  1.0000 0.1491124682
H   H663      1.0  0.79690  0.22150  0.54500  1.0000 0.1491124682
H   H664      1.0  0.71660  0.13410  0.65490  1.0000 0.1410065991
H   H665      1.0  0.68250  0.12960  0.63370  1.0000 0.1410065991
H   H666      1.0  0.66780  0.08300  0.62520  1.0000 0.1582861444
H   H667      1.0  0.81990  0.00550  0.90940  1.0000 0.1410065991
H   H668      1.0  0.75680  0.94440  0.90280  1.0000 0.1410065991
H   H669      1.0  0.79520  0.95580  0.88780  1.0000 0.1491124682
H   H670      1.0  0.72250  0.97470  0.78400  1.0000 0.1491124682
H   H671      1.0  0.70650  0.92720  0.77530  1.0000 0.1491124682
H   H672      1.0  0.66850  0.91690  0.78980  1.0000 0.1491124682
H   H673      1.0  0.76640  0.05990  0.76790  1.0000 0.1410065991
H   H674      1.0  0.76010  0.08530  0.75260  1.0000 0.1491124682
H   H675      1.0  0.79850  0.09230  0.74340  1.0000 0.1582861444
H   H676      1.0  0.97120  0.29620  0.85040  1.0000 0.1491124682
H   H677      1.0  0.98190  0.30700  0.81770  1.0000 0.1491124682
H   H678      1.0  0.94350  0.29850  0.82940  1.0000 0.1491124682
H   H679      1.0  0.03650  0.32260  0.91630  1.0000 0.1410065991
H   H680      1.0  0.05230  0.34390  0.95260  1.0000 0.1491124682
H   H681      1.0  0.08440  0.34530  0.93870  1.0000 0.1582861444
H   H682      1.0  0.91030  0.11830  0.95140  1.0000 0.1410065991
H   H683      1.0  0.97070  0.16260  0.97190  1.0000 0.1491124682
H   H684      1.0  0.93350  0.15520  0.98430  1.0000 0.1410065991
H   H685      1.0  0.58550  0.59490  0.79580  1.0000 0.1410065991
H   H686      1.0  0.64410  0.62880  0.80110  1.0000 0.1582861444
H   H687      1.0  0.59960  0.58690  0.76830  1.0000 0.1491124682
H   H688      1.0  0.71100  0.78900  0.74540  1.0000 0.1410065991
H   H689      1.0  0.71400  0.76230  0.72370  1.0000 0.1491124682
H   H690      1.0  0.75670  0.80330  0.75700  1.0000 0.1410065991
H   H691      1.0  0.70840  0.84920  0.77080  1.0000 0.1410065991
H   H692      1.0  0.75880  0.90710  0.79610  1.0000 0.1582861444
H   H693      1.0  0.71660  0.89100  0.77260  1.0000 0.1491124682
H   H694      1.0  0.60350  0.80160  0.87290  1.0000 0.1410065991
H   H695      1.0  0.62240  0.84840  0.86500  1.0000 0.1491124682
H   H696      1.0  0.66520  0.86440  0.88780  1.0000 0.1491124682
H   H697      1.0  0.54080  0.70000  0.89780  1.0000 0.1410065991
H   H698      1.0  0.56330  0.69780  0.92490  1.0000 0.1582861444
H   H699      1.0  0.49920  0.65000  0.91240  1.0000 0.1410065991
H   H700      1.0  0.51110  0.55280  0.82630  1.0000 0.1410065991
H   H701      1.0  0.47100  0.51700  0.84740  1.0000 0.1491124682
H   H702      1.0  0.53470  0.56380  0.86090  1.0000 0.1491124682
H   H703      1.0  0.61670  0.12300  0.58310  1.0000 0.1410065991
H   H704      1.0  0.68110  0.17680  0.58770  1.0000 0.1491124682
H   H705      1.0  0.65560  0.13620  0.60820  1.0000 0.1491124682
H   H706      1.0  0.64000  0.03120  0.50140  1.0000 0.1410065991
H   H707      1.0  0.67600  0.05230  0.53410  1.0000 0.1582861444
H   H708      1.0  0.70250  0.09370  0.51420  1.0000 0.1491124682
H   H709      1.0  0.53970  0.91600  0.45890  1.0000 0.1410065991
H   H710      1.0  0.50270  0.86780  0.42830  1.0000 0.1491124682
H   H711      1.0  0.50650  0.85940  0.46090  1.0000 0.1491124682
H   H712      1.0  0.31110  0.77530  0.45320  1.0000 0.1410065991
H   H713      1.0  0.30230  0.73370  0.45620  1.0000 0.1582861444
H   H714      1.0  0.29700  0.74070  0.42330  1.0000 0.1410065991
H   H715      1.0  0.30090  0.81530  0.50400  1.0000 0.1491124682
H   H716      1.0  0.28050  0.83100  0.51050  1.0000 0.1491124682
H   H717      1.0  0.28150  0.80760  0.53410  1.0000 0.1491124682
H   H718      1.0  0.51110  0.04940  0.58810  1.0000 0.1410065991
H   H719      1.0  0.47480  0.01890  0.61150  1.0000 0.1582861444
H   H720      1.0  0.46940  0.04070  0.58970  1.0000 0.1410065991
H   H721      1.0  0.05490  0.53360  0.89290  1.0000 0.1410065991
H   H722      1.0  0.03700  0.53990  0.86570  1.0000 0.1582861444
H   H723      1.0  0.09840  0.59210  0.88710  1.0000 0.1410065991
H   H724      1.0  0.00320  0.60320  0.96220  1.0000 0.1410065991
H   H725      1.0  0.05320  0.65620  0.95140  1.0000 0.1491124682
H   H726      1.0  0.99270  0.60500  0.92850  1.0000 0.1410065991
H   H727      1.0  0.43070  0.44440  0.89930  1.0000 0.1410065991
H   H728      1.0  0.37090  0.38370  0.87920  1.0000 0.1582861444
H   H729      1.0  0.38290  0.42790  0.89040  1.0000 0.1410065991
H   H730      1.0  0.32280  0.34160  0.00180  1.0000 0.1410065991
H   H731      1.0  0.28720  0.33760  0.98440  1.0000 0.1491124682
H   H732      1.0  0.27170  0.29100  0.97270  1.0000 0.1491124682
H   H733      1.0  0.87840  0.31660  0.98820  1.0000 0.1410065991
H   H734      1.0  0.83710  0.26310  0.96040  1.0000 0.1582861444
H   H735      1.0  0.89110  0.29340  0.98030  1.0000 0.1410065991
H   H736      1.0  0.98110  0.41830  0.88400  1.0000 0.1410065991
H   H737      1.0  0.98670  0.38810  0.88580  1.0000 0.1491124682
H   H738      1.0  0.93070  0.35480  0.86650  1.0000 0.1491124682
H   H739      1.0  0.81800  0.67460  0.61240  1.0000 0.1491124682
H   H740      1.0  0.75280  0.61920  0.60380  1.0000 0.1582861444
H   H741      1.0  0.78240  0.66220  0.58460  1.0000 0.1491124682
H   H742      1.0  0.77510  0.75140  0.68510  1.0000 0.1410065991
H   H743      1.0  0.74700  0.73600  0.65080  1.0000 0.1582861444
H   H744      1.0  0.71390  0.68980  0.66810  1.0000 0.1491124682
H   H745      1.0  0.86530  0.85600  0.72830  1.0000 0.1410065991
H   H746      1.0  0.88850  0.89390  0.76080  1.0000 0.1491124682
H   H747      1.0  0.90110  0.91500  0.73090  1.0000 0.1410065991
H   H748      1.0  0.09580  0.99750  0.76890  1.0000 0.1330852375
H   H749      1.0  0.11030  0.04340  0.76730  1.0000 0.1582861444
H   H750      1.0  0.09860  0.02340  0.79760  1.0000 0.1410065991
H   H751      1.0  0.90160  0.61910  0.65050  1.0000 0.1410065991
H   H752      1.0  0.93660  0.64860  0.68560  1.0000 0.1491124682
H   H753      1.0  0.95030  0.63700  0.66030  1.0000 0.1410065991
H   H754      1.0  0.79130  0.42600  0.69330  1.0000 0.1410065991
H   H755      1.0  0.85230  0.46530  0.69900  1.0000 0.1582861444
H   H756      1.0  0.83670  0.47440  0.72450  1.0000 0.1410065991
H   H757      1.0  0.62850  0.94030  0.07740  1.0000 0.1491124682
H   H758      1.0  0.61600  0.95410  0.10210  1.0000 0.1491124682
H   H759      1.0  0.57470  0.89250  0.08840  1.0000 0.1491124682
H   H760      1.0  0.71830  0.95430  0.19560  1.0000 0.1491124682
H   H761      1.0  0.65610  0.90650  0.19580  1.0000 0.1491124682
H   H762      1.0  0.69910  0.96880  0.20910  1.0000 0.1582861444
H   H763      1.0  0.51270  0.80500  0.18670  1.0000 0.1491124682
H   H764      1.0  0.57190  0.84240  0.18710  1.0000 0.1491124682
H   H765      1.0  0.52650  0.80720  0.15510  1.0000 0.1410065991
H   H766      1.0  0.62910  0.01450  0.16960  1.0000 0.1410065991
H   H767      1.0  0.63410  0.99740  0.14070  1.0000 0.1491124682
H   H768      1.0  0.67610  0.02960  0.17390  1.0000 0.1582861444
H   H769      1.0  0.90820  0.10870  0.05170  1.0000 0.1410065991
H   H770      1.0  0.91440  0.14150  0.03350  1.0000 0.1491124682
H   H771      1.0  0.88940  0.09010  0.01510  1.0000 0.1582861444
H   H772      1.0  0.68110  0.97570  0.02480  1.0000 0.1410065991
H   H773      1.0  0.68530  0.97020  0.99090  1.0000 0.1410065991
H   H774      1.0  0.71400  0.02390  0.00930  1.0000 0.1491124682
H   H775      1.0  0.45130  0.53330  0.29580  1.0000 0.1491124682
H   H776      1.0  0.43150  0.50850  0.25960  1.0000 0.1491124682
H   H777      1.0  0.39160  0.49220  0.27640  1.0000 0.1582861444
H   H778      1.0  0.50100  0.69140  0.24900  1.0000 0.1491124682
H   H779      1.0  0.43650  0.63490  0.23380  1.0000 0.1491124682
H   H780      1.0  0.47700  0.65180  0.21720  1.0000 0.1491124682
H   H781      1.0  0.29340  0.50220  0.22000  1.0000 0.1410065991
H   H782      1.0  0.35710  0.56260  0.23350  1.0000 0.1491124682
H   H783      1.0  0.32740  0.51750  0.25110  1.0000 0.1582861444
H   H784      1.0  0.38910  0.46950  0.17200  1.0000 0.1491124682
H   H785      1.0  0.41620  0.49220  0.20820  1.0000 0.1491124682
H   H786      1.0  0.44330  0.53380  0.18830  1.0000 0.1410065991
H   H787      1.0  0.68300  0.79700  0.44780  1.0000 0.1410065991
H   H788      1.0  0.69400  0.77440  0.46060  1.0000 0.1410065991
H   H789      1.0  0.65470  0.76400  0.47290  1.0000 0.1582861444
H   H790      1.0  0.49100  0.56350  0.36070  1.0000 0.1410065991
H   H791      1.0  0.47720  0.55070  0.39270  1.0000 0.1491124682
H   H792      1.0  0.52070  0.56490  0.38400  1.0000 0.1491124682
H   H793      1.0  0.96220  0.58900  0.84580  1.0000 0.1410065991
H   H794      1.0  0.94710  0.54650  0.85760  1.0000 0.1582861444
H   H795      1.0  0.97010  0.59340  0.88170  1.0000 0.1491124682
H   H796      1.0  0.18830  0.71860  0.88090  1.0000 0.1410065991
H   H797      1.0  0.17740  0.71370  0.91390  1.0000 0.1491124682
H   H798      1.0  0.15240  0.66480  0.89080  1.0000 0.1491124682
H   H799      1.0  0.23460  0.74060  0.83860  1.0000 0.1410065991
H   H800      1.0  0.22770  0.70150  0.82340  1.0000 0.1582861444
H   H801      1.0  0.28120  0.76490  0.82510  1.0000 0.1491124682
H   H802      1.0  0.14180  0.68000  0.70040  1.0000 0.1410065991
H   H803      1.0  0.19850  0.71170  0.70100  1.0000 0.1410065991
H   H804      1.0  0.14630  0.64870  0.70000  1.0000 0.1491124682
H   H805      1.0  0.04630  0.65320  0.68630  1.0000 0.1330852375
H   H806      1.0  0.98390  0.59470  0.66740  1.0000 0.1582861444
H   H807      1.0  0.00840  0.64780  0.67180  1.0000 0.1491124682
H   H808      1.0  0.93580  0.59490  0.78790  1.0000 0.1410065991
H   H809      1.0  0.90550  0.59150  0.76300  1.0000 0.1582861444
H   H810      1.0  0.88430  0.54060  0.76030  1.0000 0.1491124682
H   H811      1.0  0.08630  0.07130  0.85500  1.0000 0.1410065991
H   H812      1.0  0.03410  0.00690  0.84000  1.0000 0.1582861444
H   H813      1.0  0.09020  0.04670  0.83190  1.0000 0.1410065991
H   H814      1.0  0.99460  0.04690  0.73050  1.0000 0.1330852375
H   H815      1.0  0.00990  0.02710  0.71980  1.0000 0.1491124682
H   H816      1.0  0.95240  0.98500  0.72660  1.0000 0.1330852375
H   H817      1.0  0.05110  0.13610  0.71360  1.0000 0.1410065991
H   H818      1.0  0.05190  0.16430  0.69420  1.0000 0.1491124682
H   H819      1.0  0.09350  0.17260  0.69370  1.0000 0.1491124682
H   H820      1.0  0.23520  0.36460  0.80480  1.0000 0.1491124682
H   H821      1.0  0.26010  0.37870  0.77640  1.0000 0.1582861444
H   H822      1.0  0.21900  0.37130  0.77650  1.0000 0.1491124682
H   H823      1.0  0.26920  0.37680  0.87220  1.0000 0.1410065991
H   H824      1.0  0.29870  0.40170  0.90820  1.0000 0.1491124682
H   H825      1.0  0.32540  0.40680  0.88400  1.0000 0.1491124682
H   H826      1.0  0.18300  0.18770  0.89950  1.0000 0.1410065991
H   H827      1.0  0.24700  0.23470  0.90850  1.0000 0.1582861444
H   H828      1.0  0.22100  0.23080  0.93280  1.0000 0.1410065991
H   H829      1.0  0.33710  0.55920  0.60530  1.0000 0.1491124682
H   H830      1.0  0.37210  0.61110  0.63220  1.0000 0.1491124682
H   H831      1.0  0.32010  0.57900  0.60710  1.0000 0.1491124682
H   H832      1.0  0.20890  0.45010  0.70040  1.0000 0.1410065991
H   H833      1.0  0.20510  0.48110  0.69460  1.0000 0.1491124682
H   H834      1.0  0.25850  0.51340  0.71770  1.0000 0.1582861444
H   H835      1.0  0.15550  0.35690  0.70820  1.0000 0.1410065991
H   H836      1.0  0.17630  0.35960  0.74010  1.0000 0.1491124682
H   H837      1.0  0.11450  0.30320  0.71970  1.0000 0.1491124682
H   H838      1.0  0.21100  0.27940  0.66320  1.0000 0.1410065991
H   H839      1.0  0.16560  0.23400  0.67960  1.0000 0.1410065991
H   H840      1.0  0.22750  0.29150  0.69960  1.0000 0.1491124682
H   H841      1.0  0.27000  0.32580  0.60840  1.0000 0.1491124682
H   H842      1.0  0.32790  0.36250  0.60580  1.0000 0.1491124682
H   H843      1.0  0.27850  0.32350  0.57540  1.0000 0.1491124682
H   H844      1.0  0.36590  0.52080  0.58250  1.0000 0.1410065991
H   H845      1.0  0.37040  0.50410  0.55290  1.0000 0.1410065991
H   H846      1.0  0.41700  0.54220  0.58480  1.0000 0.1582861444
H   H847      1.0  0.49450  0.90390  0.81440  1.0000 0.1410065991
H   H848      1.0  0.55560  0.95840  0.81240  1.0000 0.1410065991
H   H849      1.0  0.54420  0.93200  0.83940  1.0000 0.1491124682
H   H850      1.0  0.52530  0.80930  0.74780  1.0000 0.1491124682
H   H851      1.0  0.57280  0.84810  0.77930  1.0000 0.1491124682
H   H852      1.0  0.58310  0.87290  0.75160  1.0000 0.1491124682
H   H853      1.0  0.44010  0.70800  0.70650  1.0000 0.1410065991
H   H854      1.0  0.41470  0.66730  0.67480  1.0000 0.1491124682
H   H855      1.0  0.40770  0.65110  0.70620  1.0000 0.1582861444
H   H856      1.0  0.20380  0.55420  0.67500  1.0000 0.1491124682
H   H857      1.0  0.19300  0.51070  0.67490  1.0000 0.1491124682
H   H858      1.0  0.20150  0.53090  0.64500  1.0000 0.1491124682
H   H859      1.0  0.17740  0.59370  0.71390  1.0000 0.1410065991
H   H860      1.0  0.15610  0.60870  0.70840  1.0000 0.1491124682
H   H861      1.0  0.15470  0.59340  0.73910  1.0000 0.1582861444
H   H862      1.0  0.38170  0.83310  0.79200  1.0000 0.1410065991
H   H863      1.0  0.33740  0.80930  0.80810  1.0000 0.1491124682
H   H864      1.0  0.34480  0.82910  0.77830  1.0000 0.1410065991
H   H865      1.0  0.90510  0.20090  0.99060  1.0000 0.1410065991
H   H866      1.0  0.87120  0.17230  0.01530  1.0000 0.1582861444
H   H867      1.0  0.91310  0.18140  0.01270  1.0000 0.1491124682
H   H868      1.0  0.71100  0.95640  0.92200  1.0000 0.1410065991
H   H869      1.0  0.73770  0.96140  0.95170  1.0000 0.1491124682
H   H870      1.0  0.69670  0.95370  0.95340  1.0000 0.1410065991
H   H871      1.0  0.65080  0.92160  0.85920  1.0000 0.1410065991
H   H872      1.0  0.59290  0.88900  0.85170  1.0000 0.1582861444
H   H873      1.0  0.60900  0.88160  0.82560  1.0000 0.1491124682
H   H874      1.0  0.69840  0.07130  0.80190  1.0000 0.1410065991
H   H875      1.0  0.65160  0.01660  0.77400  1.0000 0.1491124682
H   H876      1.0  0.63560  0.02340  0.80080  1.0000 0.1491124682
H   H877      1.0  0.80000  0.19780  0.84080  1.0000 0.1410065991
H   H878      1.0  0.80220  0.22710  0.86550  1.0000 0.1582861444
H   H879      1.0  0.85000  0.26240  0.84920  1.0000 0.1410065991
H   H880      1.0  0.94720  0.27350  0.95830  1.0000 0.1410065991
H   H881      1.0  0.98300  0.33040  0.95400  1.0000 0.1491124682
H   H882      1.0  0.93620  0.29710  0.97090  1.0000 0.1491124682
H   H883      1.0  0.37700  0.46010  0.49370  1.0000 0.1410065991
H   H884      1.0  0.32320  0.41090  0.50430  1.0000 0.1491124682
H   H885      1.0  0.36380  0.47200  0.51940  1.0000 0.1491124682
H   H886      1.0  0.46880  0.47020  0.60880  1.0000 0.1410065991
H   H887      1.0  0.44770  0.48180  0.62370  1.0000 0.1582861444
H   H888      1.0  0.40630  0.42050  0.60880  1.0000 0.1491124682
H   H889      1.0  0.58400  0.54290  0.62370  1.0000 0.1410065991
H   H890      1.0  0.63220  0.56050  0.63490  1.0000 0.1491124682
H   H891      1.0  0.64060  0.60150  0.64710  1.0000 0.1491124682
H   H892      1.0  0.72470  0.67790  0.53580  1.0000 0.1410065991
H   H893      1.0  0.76630  0.72250  0.56860  1.0000 0.1582861444
H   H894      1.0  0.75930  0.68260  0.55630  1.0000 0.1410065991
H   H895      1.0  0.68470  0.68870  0.48560  1.0000 0.1410065991
H   H896      1.0  0.66900  0.67950  0.44950  1.0000 0.1491124682
H   H897      1.0  0.69240  0.72650  0.47390  1.0000 0.1491124682
H   H898      1.0  0.45060  0.53870  0.46170  1.0000 0.1410065991
H   H899      1.0  0.48110  0.59260  0.45590  1.0000 0.1582861444
H   H900      1.0  0.45930  0.54900  0.42870  1.0000 0.1410065991
H   H901      1.0  0.14070  0.16200  0.60710  1.0000 0.1410065991
H   H902      1.0  0.17420  0.17130  0.63430  1.0000 0.1582861444
H   H903      1.0  0.20500  0.21130  0.61290  1.0000 0.1410065991
H   H904      1.0  0.14100  0.04100  0.53780  1.0000 0.1410065991
H   H905      1.0  0.20480  0.10180  0.54860  1.0000 0.1491124682
H   H906      1.0  0.17650  0.06420  0.57150  1.0000 0.1410065991
H   H907      1.0  0.04510  0.53140  0.60070  1.0000 0.1410065991
H   H908      1.0  0.00450  0.49170  0.62080  1.0000 0.1582861444
H   H909      1.0  0.03750  0.49250  0.60960  1.0000 0.1410065991
H   H910      1.0  0.83980  0.32100  0.49820  1.0000 0.1491124682
H   H911      1.0  0.85320  0.30280  0.51560  1.0000 0.1491124682
H   H912      1.0  0.81830  0.29900  0.52730  1.0000 0.1491124682
H   H913      1.0  0.82840  0.89020  0.51180  1.0000 0.1410065991
H   H914      1.0  0.80270  0.87670  0.53960  1.0000 0.1582861444
H   H915      1.0  0.81310  0.91080  0.51970  1.0000 0.1410065991
H   H916      1.0  0.03430  0.09710  0.61600  1.0000 0.1410065991
H   H917      1.0  0.00230  0.10090  0.61420  1.0000 0.1491124682
H   H918      1.0  0.98830  0.06420  0.63350  1.0000 0.1491124682
H   H919      1.0  0.56220  0.20560  0.88760  1.0000 0.1491124682
H   H920      1.0  0.51540  0.14900  0.89620  1.0000 0.1582861444
H   H921      1.0  0.57760  0.19780  0.91540  1.0000 0.1491124682
H   H922      1.0  0.56630  0.09000  0.81490  1.0000 0.1410065991
H   H923      1.0  0.58520  0.09620  0.84920  1.0000 0.1582861444
H   H924      1.0  0.52170  0.04580  0.83190  1.0000 0.1491124682
H   H925      1.0  0.62770  0.13700  0.77170  1.0000 0.1410065991
H   H926      1.0  0.63310  0.12770  0.73920  1.0000 0.1491124682
H   H927      1.0  0.68410  0.17020  0.76910  1.0000 0.1410065991
H   H928      1.0  0.72860  0.32690  0.73110  1.0000 0.1330852375
H   H929      1.0  0.77610  0.34300  0.73270  1.0000 0.1582861444
H   H930      1.0  0.72580  0.30100  0.70240  1.0000 0.1410065991
H   H931      1.0  0.46860  0.25110  0.84950  1.0000 0.1410065991
H   H932      1.0  0.46300  0.25100  0.81440  1.0000 0.1491124682
H   H933      1.0  0.47670  0.29000  0.83970  1.0000 0.1410065991
H   H934      1.0  0.23270  0.09800  0.80670  1.0000 0.1410065991
H   H935      1.0  0.26630  0.15330  0.80100  1.0000 0.1582861444
H   H936      1.0  0.24990  0.11220  0.77550  1.0000 0.1410065991
H   H937      1.0  0.36290  0.55110  0.42260  1.0000 0.1491124682
H   H938      1.0  0.35200  0.51390  0.39790  1.0000 0.1491124682
H   H939      1.0  0.30410  0.48630  0.41160  1.0000 0.1491124682
H   H940      1.0  0.25870  0.52270  0.30440  1.0000 0.1491124682
H   H941      1.0  0.21070  0.46030  0.30420  1.0000 0.1491124682
H   H942      1.0  0.25970  0.49000  0.29090  1.0000 0.1582861444
H   H943      1.0  0.11830  0.32600  0.31330  1.0000 0.1491124682
H   H944      1.0  0.15530  0.38480  0.31290  1.0000 0.1491124682
H   H945      1.0  0.15210  0.37140  0.34490  1.0000 0.1410065991
H   H946      1.0  0.34490  0.45950  0.33040  1.0000 0.1410065991
H   H947      1.0  0.35670  0.49340  0.35930  1.0000 0.1491124682
H   H948      1.0  0.35570  0.50220  0.32610  1.0000 0.1582861444
H   H949      1.0  0.55700  0.85650  0.44830  1.0000 0.1410065991
H   H950      1.0  0.60800  0.88090  0.46650  1.0000 0.1491124682
H   H951      1.0  0.57500  0.87430  0.48490  1.0000 0.1582861444
H   H952      1.0  0.45090  0.65630  0.47520  1.0000 0.1410065991
H   H953      1.0  0.47930  0.69440  0.50910  1.0000 0.1410065991
H   H954      1.0  0.51460  0.70470  0.49070  1.0000 0.1491124682
H   H955      1.0  0.73750  0.15550  0.20420  1.0000 0.1491124682
H   H956      1.0  0.74890  0.17190  0.24040  1.0000 0.1491124682
H   H957      1.0  0.71580  0.11520  0.22360  1.0000 0.1582861444
H   H958      1.0  0.94240  0.25200  0.25100  1.0000 0.1491124682
H   H959      1.0  0.90110  0.20270  0.26620  1.0000 0.1491124682
H   H960      1.0  0.93460  0.25980  0.28280  1.0000 0.1491124682
H   H961      1.0  0.78220  0.07340  0.28000  1.0000 0.1410065991
H   H962      1.0  0.82910  0.12360  0.26650  1.0000 0.1491124682
H   H963      1.0  0.76640  0.07630  0.24890  1.0000 0.1582861444
H   H964      1.0  0.79750  0.21710  0.32800  1.0000 0.1491124682
H   H965      1.0  0.78400  0.20800  0.29180  1.0000 0.1491124682
H   H966      1.0  0.84550  0.25500  0.31170  1.0000 0.1410065991
H   H967      1.0  0.84920  0.23520  0.05220  1.0000 0.1410065991
H   H968      1.0  0.81380  0.23340  0.03940  1.0000 0.1491124682
H   H969      1.0  0.79110  0.18180  0.02710  1.0000 0.1582861444
H   H970      1.0  0.70280  0.13030  0.13930  1.0000 0.1410065991
H   H971      1.0  0.65800  0.08450  0.10730  1.0000 0.1491124682
H   H972      1.0  0.68090  0.13670  0.11600  1.0000 0.1491124682
H   H973      1.0  0.24320  0.11640  0.65420  1.0000 0.1410065991
H   H974      1.0  0.18890  0.08950  0.64240  1.0000 0.1582861444
H   H975      1.0  0.21170  0.08840  0.61830  1.0000 0.1491124682
H   H976      1.0  0.33770  0.30740  0.61910  1.0000 0.1410065991
H   H977      1.0  0.29980  0.26350  0.58610  1.0000 0.1491124682
H   H978      1.0  0.27400  0.26160  0.60920  1.0000 0.1491124682
H   H979      1.0  0.40200  0.39600  0.66140  1.0000 0.1410065991
H   H980      1.0  0.37810  0.40430  0.67660  1.0000 0.1582861444
H   H981      1.0  0.43980  0.45610  0.67490  1.0000 0.1491124682
H   H982      1.0  0.47960  0.44140  0.79960  1.0000 0.1410065991
H   H983      1.0  0.51070  0.49750  0.79900  1.0000 0.1491124682
H   H984      1.0  0.44870  0.44630  0.80000  1.0000 0.1491124682
H   H985      1.0  0.46690  0.36000  0.81370  1.0000 0.1330852375
H   H986      1.0  0.42730  0.31650  0.83260  1.0000 0.1582861444
H   H987      1.0  0.47600  0.33660  0.82820  1.0000 0.1491124682
H   H988      1.0  0.30700  0.14790  0.71210  1.0000 0.1410065991
H   H989      1.0  0.32850  0.14250  0.73700  1.0000 0.1491124682
H   H990      1.0  0.28030  0.12400  0.73970  1.0000 0.1491124682
H   H991      1.0  0.71630  0.23130  0.64500  1.0000 0.1410065991
H   H992      1.0  0.66690  0.19410  0.66000  1.0000 0.1582861444
H   H993      1.0  0.71480  0.25830  0.66810  1.0000 0.1410065991
H   H994      1.0  0.81640  0.26410  0.76950  1.0000 0.1330852375
H   H995      1.0  0.80730  0.29010  0.78020  1.0000 0.1491124682
H   H996      1.0  0.75840  0.22580  0.77340  1.0000 0.1330852375
H   H997      1.0  0.92250  0.33750  0.78640  1.0000 0.1410065991
H   H998      1.0  0.97010  0.35770  0.80580  1.0000 0.1491124682
H   H999      1.0  0.97890  0.39980  0.80630  1.0000 0.1491124682
H   H1000     1.0  0.05980  0.43040  0.69520  1.0000 0.1491124682
H   H1001     1.0  0.10230  0.48370  0.72360  1.0000 0.1582861444
H   H1002     1.0  0.09480  0.44250  0.72350  1.0000 0.1491124682
H   H1003     1.0  0.00460  0.39700  0.62780  1.0000 0.1410065991
H   H1004     1.0  0.99350  0.39050  0.59180  1.0000 0.1491124682
H   H1005     1.0  0.02280  0.44140  0.61600  1.0000 0.1491124682
H   H1006     1.0  0.78820  0.28350  0.60050  1.0000 0.1410065991
H   H1007     1.0  0.82620  0.33850  0.59150  1.0000 0.1582861444
H   H1008     1.0  0.79800  0.28820  0.56720  1.0000 0.1410065991
H   H1009     1.0  0.45390  0.73180  0.89470  1.0000 0.1491124682
H   H1010     1.0  0.47890  0.73990  0.86780  1.0000 0.1491124682
H   H1011     1.0  0.47190  0.71300  0.89290  1.0000 0.1491124682
H   H1012     1.0  0.24970  0.50850  0.79960  1.0000 0.1410065991
H   H1013     1.0  0.28650  0.51050  0.80540  1.0000 0.1491124682
H   H1014     1.0  0.29570  0.54080  0.78230  1.0000 0.1582861444
H   H1015     1.0  0.14870  0.44730  0.79180  1.0000 0.1410065991
H   H1016     1.0  0.11950  0.43620  0.75990  1.0000 0.1491124682
H   H1017     1.0  0.08350  0.39480  0.78030  1.0000 0.1491124682
H   H1018     1.0  0.11620  0.54780  0.83680  1.0000 0.1410065991
H   H1019     1.0  0.05440  0.48600  0.82040  1.0000 0.1410065991
H   H1020     1.0  0.09190  0.52790  0.80040  1.0000 0.1491124682
H   H1021     1.0  0.21740  0.66160  0.89160  1.0000 0.1491124682
H   H1022     1.0  0.25670  0.72210  0.89420  1.0000 0.1491124682
H   H1023     1.0  0.24810  0.70310  0.92460  1.0000 0.1491124682
H   H1024     1.0  0.43830  0.78340  0.91750  1.0000 0.1410065991
H   H1025     1.0  0.45120  0.81750  0.94710  1.0000 0.1410065991
H   H1026     1.0  0.45740  0.83220  0.91520  1.0000 0.1582861444
H   H1027     1.0  0.58950  0.68010  0.68560  1.0000 0.1410065991
H   H1028     1.0  0.64600  0.74320  0.68760  1.0000 0.1410065991
H   H1029     1.0  0.59260  0.70480  0.66060  1.0000 0.1491124682
H   H1030     1.0  0.56150  0.77750  0.75220  1.0000 0.1491124682
H   H1031     1.0  0.56880  0.79350  0.72070  1.0000 0.1491124682
H   H1032     1.0  0.62130  0.83150  0.74840  1.0000 0.1491124682
H   H1033     1.0  0.50150  0.73360  0.79350  1.0000 0.1410065991
H   H1034     1.0  0.49250  0.73990  0.82520  1.0000 0.1491124682
H   H1035     1.0  0.44490  0.70150  0.79380  1.0000 0.1582861444
H   H1036     1.0  0.37920  0.52880  0.82500  1.0000 0.1491124682
H   H1037     1.0  0.33580  0.51810  0.82510  1.0000 0.1491124682
H   H1038     1.0  0.38590  0.55650  0.85500  1.0000 0.1491124682
H   H1039     1.0  0.37980  0.46350  0.78610  1.0000 0.1410065991
H   H1040     1.0  0.40030  0.44770  0.79160  1.0000 0.1491124682
H   H1041     1.0  0.35430  0.41560  0.76090  1.0000 0.1582861444
H   H1042     1.0  0.54110  0.58970  0.70800  1.0000 0.1491124682
H   H1043     1.0  0.50120  0.52930  0.69190  1.0000 0.1491124682
H   H1044     1.0  0.55080  0.56650  0.72170  1.0000 0.1410065991
H   H1045     1.0  0.71030  0.91450  0.50940  1.0000 0.1410065991
H   H1046     1.0  0.65700  0.85590  0.48470  1.0000 0.1582861444
H   H1047     1.0  0.66870  0.90040  0.48730  1.0000 0.1491124682
H   H1048     1.0  0.53440  0.78900  0.57800  1.0000 0.1410065991
H   H1049     1.0  0.50970  0.78600  0.54830  1.0000 0.1491124682
H   H1050     1.0  0.50030  0.74330  0.54660  1.0000 0.1410065991
H   H1051     1.0  0.56240  0.79160  0.64080  1.0000 0.1410065991
H   H1052     1.0  0.53730  0.74120  0.64830  1.0000 0.1582861444
H   H1053     1.0  0.55600  0.78340  0.67440  1.0000 0.1491124682
H   H1054     1.0  0.76940  0.89650  0.69810  1.0000 0.1410065991
H   H1055     1.0  0.74260  0.87760  0.72600  1.0000 0.1491124682
H   H1056     1.0  0.72260  0.83480  0.69920  1.0000 0.1491124682
H   H1057     1.0  0.85700  0.95920  0.65920  1.0000 0.1410065991
H   H1058     1.0  0.86160  0.93670  0.63450  1.0000 0.1582861444
H   H1059     1.0  0.91320  0.00080  0.65080  1.0000 0.1410065991
H   H1060     1.0  0.81520  0.98890  0.54170  1.0000 0.1410065991
H   H1061     1.0  0.87640  0.02900  0.54600  1.0000 0.1491124682
H   H1062     1.0  0.82620  0.96530  0.52910  1.0000 0.1491124682
H   H1063     1.0  0.46640  0.88330  0.00630  1.0000 0.1410065991
H   H1064     1.0  0.40660  0.81890  0.99570  1.0000 0.1491124682
H   H1065     1.0  0.45260  0.84440  0.98060  1.0000 0.1491124682
H   H1066     1.0  0.36140  0.86000  0.89120  1.0000 0.1410065991
H   H1067     1.0  0.35810  0.82400  0.87630  1.0000 0.1582861444
H   H1068     1.0  0.31170  0.79750  0.89120  1.0000 0.1491124682
H   H1069     1.0  0.41920  0.96030  0.87630  1.0000 0.1410065991
H   H1070     1.0  0.42560  0.99730  0.86510  1.0000 0.1491124682
H   H1071     1.0  0.45440  0.99350  0.85290  1.0000 0.1491124682
H   H1072     1.0  0.64210  0.18890  0.96420  1.0000 0.1410065991
H   H1073     1.0  0.65390  0.19770  0.93140  1.0000 0.1582861444
H   H1074     1.0  0.62630  0.20300  0.94370  1.0000 0.1410065991
H   H1075     1.0  0.70310  0.19910  0.01440  1.0000 0.1491124682
H   H1076     1.0  0.73000  0.21950  0.05050  1.0000 0.1491124682
H   H1077     1.0  0.75260  0.21850  0.02610  1.0000 0.1491124682
H   H1078     1.0  0.57700  0.98890  0.03830  1.0000 0.1410065991
H   H1079     1.0  0.63670  0.02520  0.04410  1.0000 0.1582861444
H   H1080     1.0  0.62030  0.03060  0.07130  1.0000 0.1410065991
H   H1081     1.0  0.03360  0.64070  0.47870  1.0000 0.1410065991
H   H1082     1.0  0.03990  0.67420  0.50290  1.0000 0.1582861444
H   H1083     1.0  0.09210  0.70500  0.49370  1.0000 0.1410065991
H   H1084     1.0  0.10320  0.64100  0.60000  1.0000 0.1410065991
H   H1085     1.0  0.15620  0.70480  0.60300  1.0000 0.1491124682
H   H1086     1.0  0.10500  0.67650  0.61230  1.0000 0.1410065991
H   H1087     1.0  0.94440  0.54510  0.01370  1.0000 0.1410065991
H   H1088     1.0  0.88370  0.50450  0.01280  1.0000 0.1582861444
H   H1089     1.0  0.92790  0.53750  0.04500  1.0000 0.1410065991
H   H1090     1.0  0.84160  0.33980  0.01880  1.0000 0.1410065991
H   H1091     1.0  0.83760  0.35320  0.05040  1.0000 0.1491124682
H   H1092     1.0  0.79100  0.31830  0.01930  1.0000 0.1491124682
H   H1093     1.0  0.81660  0.32840  0.43820  1.0000 0.1410065991
H   H1094     1.0  0.76310  0.30270  0.42600  1.0000 0.1582861444
H   H1095     1.0  0.79340  0.31310  0.40230  1.0000 0.1410065991
H   H1096     1.0  0.91830  0.53430  0.43720  1.0000 0.1410065991
H   H1097     1.0  0.88810  0.50230  0.40140  1.0000 0.1491124682
H   H1098     1.0  0.85480  0.48830  0.42410  1.0000 0.1491124682
H   H1099     1.0  0.17460  0.06220  0.85660  1.0000 0.1491124682
H   H1100     1.0  0.11920  0.01540  0.86640  1.0000 0.1582861444
H   H1101     1.0  0.16220  0.07760  0.87980  1.0000 0.1491124682
H   H1102     1.0  0.25140  0.06630  0.97630  1.0000 0.1410065991
H   H1103     1.0  0.23600  0.08520  0.98900  1.0000 0.1582861444
H   H1104     1.0  0.18980  0.02170  0.97590  1.0000 0.1491124682
H   H1105     1.0  0.35600  0.12770  0.99070  1.0000 0.1410065991
H   H1106     1.0  0.39390  0.13310  0.00540  1.0000 0.1491124682
H   H1107     1.0  0.41500  0.18410  0.01390  1.0000 0.1410065991
H   H1108     1.0  0.49750  0.22860  0.90170  1.0000 0.1330852375
H   H1109     1.0  0.54340  0.27610  0.93310  1.0000 0.1582861444
H   H1110     1.0  0.52340  0.22580  0.92480  1.0000 0.1410065991
H   H1111     1.0  0.11910  0.96860  0.71750  1.0000 0.1410065991
H   H1112     1.0  0.14860  0.96300  0.71200  1.0000 0.1491124682
H   H1113     1.0  0.13700  0.97670  0.68670  1.0000 0.1410065991
H   H1114     1.0  0.92600  0.73270  0.63470  1.0000 0.1410065991
H   H1115     1.0  0.96530  0.76630  0.61300  1.0000 0.1582861444
H   H1116     1.0  0.97440  0.74990  0.63770  1.0000 0.1410065991
H   H1117     1.0  0.44030  0.86290  0.31180  1.0000 0.1491124682
H   H1118     1.0  0.45410  0.85200  0.33810  1.0000 0.1491124682
H   H1119     1.0  0.39250  0.80410  0.31780  1.0000 0.1491124682
H   H1120     1.0  0.45430  0.75870  0.23600  1.0000 0.1491124682
H   H1121     1.0  0.40650  0.71070  0.25040  1.0000 0.1491124682
H   H1122     1.0  0.46880  0.75970  0.26970  1.0000 0.1582861444
H   H1123     1.0  0.30500  0.61830  0.29230  1.0000 0.1491124682
H   H1124     1.0  0.34240  0.65530  0.27050  1.0000 0.1491124682
H   H1125     1.0  0.30720  0.65210  0.28070  1.0000 0.1410065991
H   H1126     1.0  0.51450  0.84490  0.38540  1.0000 0.1410065991
H   H1127     1.0  0.49740  0.85670  0.36330  1.0000 0.1491124682
H   H1128     1.0  0.52960  0.85570  0.35350  1.0000 0.1582861444
H   H1129     1.0  0.60870  0.05700  0.20050  1.0000 0.1410065991
H   H1130     1.0  0.64150  0.10800  0.22710  1.0000 0.1491124682
H   H1131     1.0  0.59010  0.07500  0.20070  1.0000 0.1582861444
H   H1132     1.0  0.47570  0.95090  0.29460  1.0000 0.1410065991
H   H1133     1.0  0.47020  0.97930  0.28490  1.0000 0.1410065991
H   H1134     1.0  0.52390  0.01460  0.30990  1.0000 0.1491124682
H   H1135     1.0  0.03330  0.23750  0.08200  1.0000 0.1491124682
H   H1136     1.0  0.00850  0.24890  0.07700  1.0000 0.1491124682
H   H1137     1.0  0.99220  0.21580  0.10060  1.0000 0.1582861444
H   H1138     1.0  0.19140  0.44240  0.19040  1.0000 0.1491124682
H   H1139     1.0  0.13490  0.40110  0.19840  1.0000 0.1491124682
H   H1140     1.0  0.15180  0.43460  0.17480  1.0000 0.1491124682
H   H1141     1.0  0.00220  0.28220  0.20880  1.0000 0.1410065991
H   H1142     1.0  0.06260  0.32910  0.20550  1.0000 0.1491124682
H   H1143     1.0  0.01750  0.26640  0.19010  1.0000 0.1582861444
H   H1144     1.0  0.96950  0.29750  0.08040  1.0000 0.1491124682
H   H1145     1.0  0.99220  0.28400  0.07600  1.0000 0.1491124682
H   H1146     1.0  0.03380  0.34550  0.09050  1.0000 0.1410065991
H   H1147     1.0  0.29700  0.34920  0.11400  1.0000 0.1410065991
H   H1148     1.0  0.27440  0.31380  0.08040  1.0000 0.1491124682
H   H1149     1.0  0.26400  0.29110  0.10930  1.0000 0.1582861444
H   H1150     1.0  0.06350  0.20280  0.07250  1.0000 0.1410065991
H   H1151     1.0  0.05070  0.15800  0.07350  1.0000 0.1491124682
H   H1152     1.0  0.06490  0.18090  0.04420  1.0000 0.1491124682
H   H1153     1.0  0.08900  0.74320  0.62680  1.0000 0.1410065991
H   H1154     1.0  0.04650  0.68890  0.59940  1.0000 0.1582861444
H   H1155     1.0  0.09340  0.71170  0.62330  1.0000 0.1491124682
H   H1156     1.0  0.21860  0.83770  0.53030  1.0000 0.1410065991
H   H1157     1.0  0.21370  0.79980  0.53630  1.0000 0.1491124682
H   H1158     1.0  0.16480  0.77400  0.51240  1.0000 0.1491124682
H   H1159     1.0  0.24060  0.90200  0.50600  1.0000 0.1410065991
H   H1160     1.0  0.20150  0.87810  0.47380  1.0000 0.1582861444
H   H1161     1.0  0.26490  0.93980  0.48370  1.0000 0.1491124682
H   H1162     1.0  0.18000  0.97960  0.53820  1.0000 0.1410065991
H   H1163     1.0  0.21170  0.01070  0.51320  1.0000 0.1410065991
H   H1164     1.0  0.14870  0.94870  0.50240  1.0000 0.1491124682
H   H1165     1.0  0.15320  0.96690  0.60690  1.0000 0.1330852375
H   H1166     1.0  0.09470  0.92730  0.61080  1.0000 0.1582861444
H   H1167     1.0  0.14780  0.97600  0.63940  1.0000 0.1491124682
H   H1168     1.0  0.09490  0.80700  0.65910  1.0000 0.1410065991
H   H1169     1.0  0.09150  0.82850  0.68600  1.0000 0.1582861444
H   H1170     1.0  0.04060  0.78030  0.65630  1.0000 0.1491124682
H   H1171     1.0  0.57130  0.21630  0.98500  1.0000 0.1410065991
H   H1172     1.0  0.50690  0.16690  0.97280  1.0000 0.1491124682
H   H1173     1.0  0.54670  0.21480  0.95650  1.0000 0.1410065991
H   H1174     1.0  0.54690  0.31640  0.05230  1.0000 0.1330852375
H   H1175     1.0  0.52710  0.30730  0.01720  1.0000 0.1491124682
H   H1176     1.0  0.48500  0.25840  0.03260  1.0000 0.1330852375
H   H1177     1.0  0.63610  0.42250  0.08500  1.0000 0.1410065991
H   H1178     1.0  0.66430  0.47010  0.11240  1.0000 0.1491124682
H   H1179     1.0  0.67260  0.47890  0.07910  1.0000 0.1491124682
H   H1180     1.0  0.86460  0.55980  0.12940  1.0000 0.1491124682
H   H1181     1.0  0.87870  0.60230  0.11860  1.0000 0.1582861444
H   H1182     1.0  0.87130  0.59480  0.15230  1.0000 0.1491124682
H   H1183     1.0  0.87680  0.50460  0.10760  1.0000 0.1410065991
H   H1184     1.0  0.90170  0.49350  0.10300  1.0000 0.1491124682
H   H1185     1.0  0.90680  0.52280  0.08140  1.0000 0.1491124682
H   H1186     1.0  0.68770  0.28820  0.00470  1.0000 0.1410065991
H   H1187     1.0  0.73470  0.32620  0.98770  1.0000 0.1582861444
H   H1188     1.0  0.73080  0.29800  0.00980  1.0000 0.1410065991
H   H1189     1.0  0.05920  0.95390  0.22210  1.0000 0.1491124682
H   H1190     1.0  0.11110  0.97890  0.23900  1.0000 0.1491124682
H   H1191     1.0  0.07900  0.97190  0.25890  1.0000 0.1491124682
H   H1192     1.0  0.95010  0.74970  0.24120  1.0000 0.1410065991
H   H1193     1.0  0.98110  0.78650  0.27600  1.0000 0.1491124682
H   H1194     1.0  0.01340  0.79570  0.25490  1.0000 0.1582861444
H   H1195     1.0  0.85690  0.64870  0.20140  1.0000 0.1410065991
H   H1196     1.0  0.85960  0.61950  0.18330  1.0000 0.1491124682
H   H1197     1.0  0.80320  0.58350  0.18870  1.0000 0.1491124682
H   H1198     1.0  0.77940  0.61620  0.06840  1.0000 0.1410065991
H   H1199     1.0  0.73400  0.55440  0.06840  1.0000 0.1410065991
H   H1200     1.0  0.79150  0.59190  0.06400  1.0000 0.1491124682
H   H1201     1.0  0.82580  0.71740  0.05580  1.0000 0.1491124682
H   H1202     1.0  0.86250  0.75670  0.03460  1.0000 0.1491124682
H   H1203     1.0  0.82350  0.74810  0.04500  1.0000 0.1491124682
H   H1204     1.0  0.02080  0.93830  0.15490  1.0000 0.1410065991
H   H1205     1.0  0.00410  0.95120  0.13370  1.0000 0.1410065991
H   H1206     1.0  0.04220  0.95740  0.12520  1.0000 0.1582861444
H   H1207     1.0  0.40390  0.08950  0.40940  1.0000 0.1410065991
H   H1208     1.0  0.45840  0.14600  0.40280  1.0000 0.1410065991
H   H1209     1.0  0.43200  0.09260  0.38780  1.0000 0.1491124682
H   H1210     1.0  0.30930  0.06150  0.28400  1.0000 0.1491124682
H   H1211     1.0  0.34810  0.06880  0.27530  1.0000 0.1491124682
H   H1212     1.0  0.37290  0.12130  0.28980  1.0000 0.1491124682
H   H1213     1.0  0.20800  0.00150  0.26790  1.0000 0.1410065991
H   H1214     1.0  0.16730  0.99250  0.25260  1.0000 0.1491124682
H   H1215     1.0  0.15110  0.94490  0.24340  1.0000 0.1582861444
H   H1216     1.0  0.05420  0.87920  0.35040  1.0000 0.1491124682
H   H1217     1.0  0.01070  0.83580  0.31770  1.0000 0.1491124682
H   H1218     1.0  0.03090  0.88590  0.32940  1.0000 0.1491124682
H   H1219     1.0  0.09370  0.87980  0.41630  1.0000 0.1410065991
H   H1220     1.0  0.10870  0.90030  0.45260  1.0000 0.1491124682
H   H1221     1.0  0.09340  0.85430  0.43870  1.0000 0.1582861444
H   H1222     1.0  0.33310  0.04110  0.45140  1.0000 0.1491124682
H   H1223     1.0  0.30930  0.00120  0.47190  1.0000 0.1491124682
H   H1224     1.0  0.32910  0.05080  0.48430  1.0000 0.1410065991
H   H1225     1.0  0.70090  0.21030  0.29580  1.0000 0.1410065991
H   H1226     1.0  0.67230  0.15700  0.30110  1.0000 0.1582861444
H   H1227     1.0  0.68140  0.16870  0.26830  1.0000 0.1491124682
H   H1228     1.0  0.45640  0.03440  0.24540  1.0000 0.1410065991
H   H1229     1.0  0.46140  0.00970  0.22370  1.0000 0.1491124682
H   H1230     1.0  0.45370  0.00030  0.25700  1.0000 0.1410065991
H   H1231     1.0  0.42160  0.06240  0.27080  1.0000 0.1410065991
H   H1232     1.0  0.38900  0.03730  0.29610  1.0000 0.1582861444
H   H1233     1.0  0.38160  0.05600  0.27260  1.0000 0.1491124682
H   H1234     1.0  0.57130  0.26940  0.37290  1.0000 0.1410065991
H   H1235     1.0  0.51660  0.24260  0.36500  1.0000 0.1491124682
H   H1236     1.0  0.52340  0.22260  0.38780  1.0000 0.1491124682
H   H1237     1.0  0.69780  0.35700  0.39780  1.0000 0.1410065991
H   H1238     1.0  0.72710  0.36160  0.42490  1.0000 0.1582861444
H   H1239     1.0  0.76240  0.41320  0.41240  1.0000 0.1410065991
H   H1240     1.0  0.77350  0.31520  0.32630  1.0000 0.1410065991
H   H1241     1.0  0.83040  0.37640  0.34740  1.0000 0.1491124682
H   H1242     1.0  0.79710  0.32620  0.36090  1.0000 0.1491124682
H   H1243     1.0  0.96010  0.96640  0.08310  1.0000 0.1410065991
H   H1244     1.0  0.91090  0.90660  0.08770  1.0000 0.1491124682
H   H1245     1.0  0.97200  0.95260  0.10820  1.0000 0.1491124682
H   H1246     1.0  0.97020  0.86140  0.00140  1.0000 0.1410065991
H   H1247     1.0  0.98180  0.85810  0.03410  1.0000 0.1582861444
H   H1248     1.0  0.92050  0.81170  0.01420  1.0000 0.1491124682
H   H1249     1.0  0.04290  0.91920  0.95890  1.0000 0.1410065991
H   H1250     1.0  0.06050  0.92560  0.92830  1.0000 0.1491124682
H   H1251     1.0  0.10150  0.95440  0.96090  1.0000 0.1491124682
H   H1252     1.0  0.17790  0.14210  0.95320  1.0000 0.1410065991
H   H1253     1.0  0.22250  0.15390  0.95620  1.0000 0.1582861444
H   H1254     1.0  0.18260  0.12630  0.92330  1.0000 0.1410065991
H   H1255     1.0  0.18870  0.20310  0.00400  1.0000 0.1491124682
H   H1256     1.0  0.17950  0.23000  0.01050  1.0000 0.1491124682
H   H1257     1.0  0.22650  0.25260  0.03410  1.0000 0.1491124682
H   H1258     1.0  0.03870  0.07700  0.08810  1.0000 0.1410065991
H   H1259     1.0  0.09260  0.13670  0.11150  1.0000 0.1582861444
H   H1260     1.0  0.04900  0.12030  0.08970  1.0000 0.1410065991
H   H1261     1.0  0.66200  0.55490  0.02130  1.0000 0.1410065991
H   H1262     1.0  0.67130  0.53700  0.99710  1.0000 0.1582861444
H   H1263     1.0  0.71130  0.59840  0.00630  1.0000 0.1410065991
H   H1264     1.0  0.54100  0.50320  0.90000  1.0000 0.1410065991
H   H1265     1.0  0.60180  0.55320  0.89700  1.0000 0.1491124682
H   H1266     1.0  0.56420  0.49270  0.88770  1.0000 0.1410065991
H   H1267     1.0  0.03140  0.93070  0.48630  1.0000 0.1410065991
H   H1268     1.0  0.99170  0.87090  0.48720  1.0000 0.1582861444
H   H1269     1.0  0.99250  0.88290  0.45500  1.0000 0.1410065991
H   H1270     1.0  0.82100  0.82280  0.48120  1.0000 0.1491124682
H   H1271     1.0  0.80280  0.78720  0.44960  1.0000 0.1491124682
H   H1272     1.0  0.79900  0.77170  0.48070  1.0000 0.1491124682
H   H1273     1.0  0.39020  0.37840  0.06180  1.0000 0.1410065991
H   H1274     1.0  0.37670  0.33710  0.07400  1.0000 0.1582861444
H   H1275     1.0  0.41080  0.39110  0.09770  1.0000 0.1410065991
H   H1276     1.0  0.59710  0.48110  0.06280  1.0000 0.1410065991
H   H1277     1.0  0.60090  0.48670  0.09860  1.0000 0.1491124682
H   H1278     1.0  0.56420  0.43070  0.07590  1.0000 0.1491124682
H   H1279     1.0  0.70560  0.31800  0.64340  1.0000 0.1491124682
H   H1280     1.0  0.64900  0.25280  0.63360  1.0000 0.1582861444
H   H1281     1.0  0.69780  0.28240  0.62020  1.0000 0.1491124682
H   H1282     1.0  0.59000  0.27510  0.52370  1.0000 0.1410065991
H   H1283     1.0  0.59620  0.24700  0.51100  1.0000 0.1582861444
H   H1284     1.0  0.54580  0.21390  0.52410  1.0000 0.1491124682
H   H1285     1.0  0.63700  0.36530  0.50930  1.0000 0.1410065991
H   H1286     1.0  0.62770  0.38850  0.49460  1.0000 0.1491124682
H   H1287     1.0  0.67020  0.40110  0.48610  1.0000 0.1410065991
H   H1288     1.0  0.82690  0.59580  0.59830  1.0000 0.1330852375
H   H1289     1.0  0.84300  0.61030  0.56690  1.0000 0.1582861444
H   H1290     1.0  0.80100  0.59860  0.57520  1.0000 0.1410065991
H   H1291     1.0  0.75110  0.40160  0.78250  1.0000 0.1410065991
H   H1292     1.0  0.75100  0.43660  0.78800  1.0000 0.1491124682
H   H1293     1.0  0.79000  0.45030  0.81330  1.0000 0.1410065991
H   H1294     1.0  0.59800  0.29130  0.86530  1.0000 0.1410065991
H   H1295     1.0  0.65330  0.35230  0.88700  1.0000 0.1582861444
H   H1296     1.0  0.61220  0.33670  0.86230  1.0000 0.1410065991
H   H1297     1.0  0.05110  0.12850  0.18820  1.0000 0.1491124682
H   H1298     1.0  0.01390  0.11600  0.16190  1.0000 0.1491124682
H   H1299     1.0  0.98630  0.07470  0.18220  1.0000 0.1491124682
H   H1300     1.0  0.02270  0.21830  0.26400  1.0000 0.1491124682
H   H1301     1.0  0.96030  0.15610  0.24960  1.0000 0.1491124682
H   H1302     1.0  0.99000  0.19910  0.23030  1.0000 0.1582861444
H   H1303     1.0  0.82600  0.01270  0.20770  1.0000 0.1491124682
H   H1304     1.0  0.88480  0.07190  0.22950  1.0000 0.1491124682
H   H1305     1.0  0.87140  0.02650  0.21930  1.0000 0.1410065991
H   H1306     1.0  0.95950  0.12910  0.11460  1.0000 0.1410065991
H   H1307     1.0  0.99340  0.13410  0.13670  1.0000 0.1491124682
H   H1308     1.0  0.00220  0.17610  0.14650  1.0000 0.1582861444
H   H1309     1.0  0.35650  0.40820  0.29950  1.0000 0.1410065991
H   H1310     1.0  0.38090  0.41440  0.27290  1.0000 0.1491124682
H   H1311     1.0  0.37430  0.38940  0.29930  1.0000 0.1582861444
H   H1312     1.0  0.15630  0.18110  0.20540  1.0000 0.1410065991
H   H1313     1.0  0.19440  0.18530  0.21510  1.0000 0.1410065991
H   H1314     1.0  0.20470  0.21400  0.19010  1.0000 0.1491124682
H   H1315     1.0  0.65550  0.95130  0.41800  1.0000 0.1491124682
H   H1316     1.0  0.67190  0.93150  0.42300  1.0000 0.1491124682
H   H1317     1.0  0.61520  0.89160  0.39940  1.0000 0.1582861444
H   H1318     1.0  0.75200  0.00100  0.30960  1.0000 0.1491124682
H   H1319     1.0  0.70270  0.93650  0.30160  1.0000 0.1491124682
H   H1320     1.0  0.75980  0.97700  0.32520  1.0000 0.1491124682
H   H1321     1.0  0.57340  0.79340  0.29120  1.0000 0.1410065991
H   H1322     1.0  0.62360  0.85710  0.29450  1.0000 0.1491124682
H   H1323     1.0  0.57630  0.82740  0.30990  1.0000 0.1582861444
H   H1324     1.0  0.71710  0.88910  0.41960  1.0000 0.1491124682
H   H1325     1.0  0.70800  0.91620  0.42400  1.0000 0.1491124682
H   H1326     1.0  0.75500  0.94330  0.40950  1.0000 0.1410065991
H   H1327     1.0  0.73520  0.18300  0.38600  1.0000 0.1410065991
H   H1328     1.0  0.73340  0.19400  0.41960  1.0000 0.1491124682
H   H1329     1.0  0.68180  0.15470  0.39070  1.0000 0.1582861444
H   H1330     1.0  0.63030  0.99100  0.42750  1.0000 0.1410065991
H   H1331     1.0  0.58450  0.97720  0.42650  1.0000 0.1491124682
H   H1332     1.0  0.63670  0.02070  0.45580  1.0000 0.1491124682
H   H1333     1.0  0.61640  0.46220  0.87320  1.0000 0.1410065991
H   H1334     1.0  0.58950  0.44710  0.90060  1.0000 0.1582861444
H   H1335     1.0  0.58840  0.47010  0.87670  1.0000 0.1491124682
H   H1336     1.0  0.80740  0.68830  0.96970  1.0000 0.1410065991
H   H1337     1.0  0.76350  0.67740  0.96370  1.0000 0.1491124682
H   H1338     1.0  0.76160  0.65240  0.98760  1.0000 0.1491124682
H   H1339     1.0  0.89600  0.73460  0.99400  1.0000 0.1410065991
H   H1340     1.0  0.90430  0.72770  0.02620  1.0000 0.1582861444
H   H1341     1.0  0.95610  0.78120  0.01630  1.0000 0.1491124682
H   H1342     1.0  0.94140  0.64180  0.96180  1.0000 0.1410065991
H   H1343     1.0  0.99750  0.69850  0.98680  1.0000 0.1491124682
H   H1344     1.0  0.94630  0.64630  0.99760  1.0000 0.1491124682
H   H1345     1.0  0.86000  0.54630  0.89310  1.0000 0.1330852375
H   H1346     1.0  0.81650  0.48390  0.88920  1.0000 0.1582861444
H   H1347     1.0  0.83660  0.50840  0.86060  1.0000 0.1491124682
H   H1348     1.0  0.64790  0.43580  0.84090  1.0000 0.1410065991
H   H1349     1.0  0.64250  0.40550  0.81400  1.0000 0.1582861444
H   H1350     1.0  0.62400  0.38430  0.84370  1.0000 0.1491124682
H   H1351     1.0  0.73130  0.58630  0.51500  1.0000 0.1410065991
H   H1352     1.0  0.69410  0.53410  0.52720  1.0000 0.1491124682
H   H1353     1.0  0.75830  0.59020  0.54350  1.0000 0.1410065991
H   H1354     1.0  0.76410  0.49460  0.44770  1.0000 0.1330852375
H   H1355     1.0  0.79010  0.50990  0.48280  1.0000 0.1491124682
H   H1356     1.0  0.72580  0.45240  0.46740  1.0000 0.1330852375
H   H1357     1.0  0.83750  0.55110  0.41500  1.0000 0.1410065991
H   H1358     1.0  0.85770  0.55190  0.38760  1.0000 0.1491124682
H   H1359     1.0  0.89980  0.59350  0.42090  1.0000 0.1491124682
H   H1360     1.0  0.93040  0.73520  0.37060  1.0000 0.1491124682
H   H1361     1.0  0.98370  0.76010  0.38140  1.0000 0.1582861444
H   H1362     1.0  0.94250  0.71900  0.34770  1.0000 0.1491124682
H   H1363     1.0  0.89700  0.76920  0.39240  1.0000 0.1410065991
H   H1364     1.0  0.89050  0.79870  0.39700  1.0000 0.1491124682
H   H1365     1.0  0.94140  0.82540  0.41860  1.0000 0.1491124682
H   H1366     1.0  0.78350  0.68300  0.49530  1.0000 0.1410065991
H   H1367     1.0  0.83850  0.74700  0.51230  1.0000 0.1582861444
H   H1368     1.0  0.78820  0.72100  0.49020  1.0000 0.1410065991
H   H1369     1.0  0.23180  0.83710  0.27790  1.0000 0.1491124682
H   H1370     1.0  0.23990  0.87210  0.26100  1.0000 0.1491124682
H   H1371     1.0  0.21300  0.82010  0.24110  1.0000 0.1491124682
H   H1372     1.0  0.00850  0.70890  0.25880  1.0000 0.1410065991
H   H1373     1.0  0.01050  0.70510  0.22400  1.0000 0.1491124682
H   H1374     1.0  0.04080  0.75850  0.24510  1.0000 0.1582861444
H   H1375     1.0  0.94730  0.65550  0.29860  1.0000 0.1410065991
H   H1376     1.0  0.93620  0.67630  0.31670  1.0000 0.1491124682
H   H1377     1.0  0.89480  0.61450  0.31130  1.0000 0.1491124682
H   H1378     1.0  0.04780  0.71100  0.43160  1.0000 0.1410065991
H   H1379     1.0  0.98600  0.66560  0.43160  1.0000 0.1410065991
H   H1380     1.0  0.02790  0.72750  0.43600  1.0000 0.1491124682
H   H1381     1.0  0.16160  0.77000  0.44420  1.0000 0.1491124682
H   H1382     1.0  0.22210  0.82790  0.46540  1.0000 0.1491124682
H   H1383     1.0  0.20310  0.77850  0.45500  1.0000 0.1491124682
H   H1384     1.0  0.28340  0.86590  0.34510  1.0000 0.1410065991
H   H1385     1.0  0.31750  0.87040  0.36630  1.0000 0.1410065991
H   H1386     1.0  0.33220  0.91700  0.37480  1.0000 0.1582861444
H   H1387     1.0  0.18010  0.99450  0.09060  1.0000 0.1410065991
H   H1388     1.0  0.24320  0.05560  0.09720  1.0000 0.1410065991
H   H1389     1.0  0.20480  0.04420  0.11220  1.0000 0.1491124682
H   H1390     1.0  0.27750  0.02530  0.21600  1.0000 0.1491124682
H   H1391     1.0  0.29350  0.07280  0.22470  1.0000 0.1491124682
H   H1392     1.0  0.33150  0.08310  0.21020  1.0000 0.1491124682
H   H1393     1.0  0.23360  0.94010  0.23210  1.0000 0.1410065991
H   H1394     1.0  0.23990  0.91470  0.24740  1.0000 0.1491124682
H   H1395     1.0  0.20150  0.90770  0.25660  1.0000 0.1582861444
H   H1396     1.0  0.02880  0.70380  0.14960  1.0000 0.1491124682
H   H1397     1.0  0.01810  0.69300  0.18230  1.0000 0.1491124682
H   H1398     1.0  0.05650  0.70150  0.17060  1.0000 0.1491124682
H   H1399     1.0  0.96350  0.67740  0.08370  1.0000 0.1410065991
H   H1400     1.0  0.94770  0.65610  0.04740  1.0000 0.1491124682
H   H1401     1.0  0.91560  0.65470  0.06130  1.0000 0.1582861444
H   H1402     1.0  0.08970  0.88170  0.04860  1.0000 0.1410065991
H   H1403     1.0  0.02930  0.83740  0.02810  1.0000 0.1491124682
H   H1404     1.0  0.06650  0.84480  0.01570  1.0000 0.1410065991
H   H1405     1.0  0.41450  0.40510  0.20420  1.0000 0.1410065991
H   H1406     1.0  0.35590  0.37120  0.19890  1.0000 0.1582861444
H   H1407     1.0  0.40040  0.41310  0.23170  1.0000 0.1491124682
H   H1408     1.0  0.28900  0.21100  0.25460  1.0000 0.1410065991
H   H1409     1.0  0.28600  0.23770  0.27630  1.0000 0.1491124682
H   H1410     1.0  0.24330  0.19670  0.24300  1.0000 0.1410065991
H   H1411     1.0  0.29160  0.15080  0.22920  1.0000 0.1410065991
H   H1412     1.0  0.24120  0.09290  0.20390  1.0000 0.1582861444
H   H1413     1.0  0.28340  0.10900  0.22740  1.0000 0.1491124682
H   H1414     1.0  0.39650  0.19840  0.12710  1.0000 0.1410065991
H   H1415     1.0  0.37760  0.15160  0.13500  1.0000 0.1491124682
H   H1416     1.0  0.33480  0.13560  0.11220  1.0000 0.1491124682
H   H1417     1.0  0.45920  0.30000  0.10220  1.0000 0.1410065991
H   H1418     1.0  0.43670  0.30220  0.07510  1.0000 0.1582861444
H   H1419     1.0  0.50080  0.35000  0.08760  1.0000 0.1410065991
H   H1420     1.0  0.48890  0.44720  0.17370  1.0000 0.1410065991
H   H1421     1.0  0.52900  0.48300  0.15260  1.0000 0.1491124682
H   H1422     1.0  0.46530  0.43620  0.13910  1.0000 0.1491124682
H   H1423     1.0  0.38330  0.87700  0.41690  1.0000 0.1410065991
H   H1424     1.0  0.31890  0.82320  0.41230  1.0000 0.1491124682
H   H1425     1.0  0.34440  0.86380  0.39180  1.0000 0.1491124682
H   H1426     1.0  0.36000  0.96880  0.49860  1.0000 0.1410065991
H   H1427     1.0  0.32400  0.94770  0.46590  1.0000 0.1582861444
H   H1428     1.0  0.29750  0.90630  0.48580  1.0000 0.1491124682
H   H1429     1.0  0.46030  0.08400  0.54110  1.0000 0.1410065991
H   H1430     1.0  0.49730  0.13220  0.57170  1.0000 0.1491124682
H   H1431     1.0  0.49350  0.14060  0.53910  1.0000 0.1491124682
H   H1432     1.0  0.68890  0.22470  0.54680  1.0000 0.1410065991
H   H1433     1.0  0.69770  0.26630  0.54380  1.0000 0.1582861444
H   H1434     1.0  0.70300  0.25930  0.57670  1.0000 0.1410065991
H   H1435     1.0  0.69910  0.18470  0.49600  1.0000 0.1491124682
H   H1436     1.0  0.71950  0.16900  0.48950  1.0000 0.1491124682
H   H1437     1.0  0.71850  0.19240  0.46590  1.0000 0.1491124682
H   H1438     1.0  0.48890  0.95060  0.41190  1.0000 0.1410065991
H   H1439     1.0  0.52520  0.98110  0.38850  1.0000 0.1582861444
H   H1440     1.0  0.53060  0.95930  0.41030  1.0000 0.1410065991
C   C1        1.0  0.93980  0.44240  0.11340  1.0000 -0.4983691334
C   C2        1.0  0.95480  0.43150  0.09170  1.0000 0.1986761337
C   C3        1.0  0.95450  0.40140  0.09190  1.0000 -0.1105637011
C   C4        1.0  0.97370  0.40650  0.06680  1.0000 0.1816152373
C   C5        1.0  0.98180  0.38370  0.05530  1.0000 -0.4802192597
C   C6        1.0  0.60840  0.58500  0.10400  1.0000 -0.472420226
C   C7        1.0  0.62300  0.60170  0.07590  1.0000 0.1898840689
C   C8        1.0  0.67300  0.64110  0.06930  1.0000 -0.1105637011
C   C9        1.0  0.66130  0.63870  0.03920  1.0000 0.1986761337
C   C10       1.0  0.69830  0.67000  0.01830  1.0000 -0.4802192597
C   C11       1.0  0.12450  0.70150  0.02840  1.0000 -0.472420226
C   C12       1.0  0.09460  0.66750  0.04950  1.0000 0.1816152373
C   C13       1.0  0.08730  0.67510  0.07580  1.0000 -0.09941747
C   C14       1.0  0.05840  0.63040  0.08660  1.0000 0.1986761337
C   C15       1.0  0.03810  0.61600  0.11510  1.0000 -0.4910726559
C   C16       1.0  0.21540  0.34198  0.39498  1.0000 -0.4910726559
C   C17       1.0  0.21457  0.31537  0.37394  1.0000 0.1816152373
C   C18       1.0  0.25250  0.32459  0.37409  1.0000 -0.1105637011
C   C19       1.0  0.22918  0.28750  0.34708  1.0000 0.1898840689
C   C20       1.0  0.25020  0.27660  0.33460  1.0000 -0.472420226
C   C21       1.0  0.10390  0.10630  0.25860  1.0000 -0.472420226
C   C22       1.0  0.05370  0.08228  0.25238  1.0000 0.1721857336
C   C23       1.0  0.00081  0.03060  0.23541  1.0000 -0.09941747
C   C24       1.0  0.97050  0.03110  0.23780  1.0000 0.1898840689
C   C25       1.0  0.91150  0.98810  0.22500  1.0000 -0.4910726559
C   C26       1.0  0.07900  0.37690  0.33333  1.0000 -0.4910726559
C   C27       1.0  0.11720  0.43040  0.32800  1.0000 0.1898840689
C   C28       1.0  0.10800  0.44441  0.30701  1.0000 -0.1105637011
C   C29       1.0  0.15618  0.49940  0.31218  1.0000 0.1816152373
C   C30       1.0  0.17020  0.53660  0.29760  1.0000 -0.472420226
C   C31       1.0  0.38690  0.06930  0.90520  1.0000 -0.4910726559
C   C32       1.0  0.35660  0.06140  0.88000  1.0000 0.1986761337
C   C33       1.0  0.36430  0.07000  0.85170  1.0000 -0.1292980995
C   C34       1.0  0.32510  0.05680  0.83790  1.0000 0.1816152373
C   C35       1.0  0.31170  0.05680  0.80670  1.0000 -0.472420226
C   C36       1.0  0.45880  0.17160  0.82380  1.0000 -0.4910726559
C   C37       1.0  0.43980  0.12519  0.82459  1.0000 0.1986761337
C   C38       1.0  0.39990  0.08194  0.83684  1.0000 -0.1193678637
C   C39       1.0  0.39890  0.05050  0.83060  1.0000 0.1986761337
C   C40       1.0  0.36180  0.99780  0.83720  1.0000 -0.4983691334
C   C41       1.0  0.10820  0.89470  0.96650  1.0000 -0.509361787
C   C42       1.0  0.16310  0.93080  0.96610  1.0000 0.1898840689
C   C43       1.0  0.20040  0.94580  0.98840  1.0000 -0.09941747
C   C44       1.0  0.24460  0.97850  0.97590  1.0000 0.1898840689
C   C45       1.0  0.29540  0.00440  0.98880  1.0000 -0.472420226
C   C46       1.0  0.57040  0.47840  0.72380  1.0000 -0.4802192597
C   C47       1.0  0.54824  0.43076  0.72900  1.0000 0.1986761337
C   C48       1.0  0.56560  0.42820  0.75360  1.0000 -0.1292980995
C   C49       1.0  0.53070  0.37420  0.74610  1.0000 0.1986761337
C   C50       1.0  0.52880  0.34670  0.76290  1.0000 -0.4910726559
C   C51       1.0  0.67120  0.47610  0.76910  1.0000 -0.4802192597
C   C52       1.0  0.65870  0.49210  0.78700  1.0000 0.1898840689
C   C53       1.0  0.61330  0.47260  0.78030  1.0000 -0.1105637011
C   C54       1.0  0.62435  0.50460  0.80415  1.0000 0.1898840689
C   C55       1.0  0.59120  0.50210  0.80930  1.0000 -0.4910726559
C   C56       1.0  0.33320  0.23290  0.54510  1.0000 -0.4910726559
C   C57       1.0  0.38070  0.28480  0.57010  1.0000 0.1898840689
C   C58       1.0  0.41750  0.33880  0.57210  1.0000 -0.1105637011
C   C59       1.0  0.44890  0.36750  0.60260  1.0000 0.1898840689
C   C60       1.0  0.49400  0.42740  0.61760  1.0000 -0.4983691334
C   C61       1.0  0.02770  0.41560  0.13750  1.0000 -0.4802192597
C   C62       1.0  0.97070  0.37860  0.13390  1.0000 0.1986761337
C   C63       1.0  0.93750  0.36920  0.11310  1.0000 -0.1193678637
C   C64       1.0  0.88840  0.33130  0.12090  1.0000 0.1986761337
C   C65       1.0  0.83830  0.30640  0.10770  1.0000 -0.4983691334
C   C66       1.0  0.75820  0.26710  0.17770  1.0000 -0.4910726559
C   C67       1.0  0.78630  0.27950  0.20900  1.0000 0.2087814645
C   C68       1.0  0.78470  0.29080  0.23730  1.0000 -0.1193678637
C   C69       1.0  0.81861  0.30082  0.25803  1.0000 0.1898840689
C   C70       1.0  0.83440  0.31650  0.29210  1.0000 -0.4910726559
C   C71       1.0  0.99080  0.36990  0.31850  1.0000 -0.4910726559
C   C72       1.0  0.00700  0.37770  0.28970  1.0000 0.1986761337
C   C73       1.0  0.05608  0.40746  0.28414  1.0000 -0.09941747
C   C74       1.0  0.04610  0.39780  0.25310  1.0000 0.1816152373
C   C75       1.0  0.08340  0.41960  0.23380  1.0000 -0.4910726559
C   C76       1.0  0.93350  0.95740  0.16350  1.0000 -0.4910726559
C   C77       1.0  0.95040  0.95290  0.18970  1.0000 0.1816152373
C   C78       1.0  0.97920  0.98440  0.22040  1.0000 -0.09941747
C   C79       1.0  0.98410  0.96210  0.23420  1.0000 0.1898840689
C   C80       1.0  0.00890  0.97710  0.26720  1.0000 -0.472420226
C   C81       1.0  0.92560  0.83160  0.29360  1.0000 -0.4910726559
C   C82       1.0  0.88395  0.78111  0.26586  1.0000 0.1986761337
C   C83       1.0  0.84360  0.72740  0.26460  1.0000 -0.1105637011
C   C84       1.0  0.81890  0.70050  0.23300  1.0000 0.1898840689
C   C85       1.0  0.77220  0.64150  0.21750  1.0000 -0.4802192597
C   C86       1.0  0.70910  0.61660  0.11170  1.0000 -0.4910726559
C   C87       1.0  0.74000  0.66980  0.11040  1.0000 0.1898840689
C   C88       1.0  0.72680  0.68150  0.09170  1.0000 -0.1292980995
C   C89       1.0  0.77100  0.73750  0.10090  1.0000 0.2205055683
C   C90       1.0  0.78090  0.77430  0.08900  1.0000 -0.4910726559
C   C91       1.0  0.66460  0.42480  0.38080  1.0000 -0.4802192597
C   C92       1.0  0.69950  0.46030  0.36160  1.0000 0.1816152373
C   C93       1.0  0.71360  0.45490  0.33830  1.0000 -0.0931649193
C   C94       1.0  0.74560  0.50060  0.32760  1.0000 0.2087814645
C   C95       1.0  0.77040  0.51520  0.30140  1.0000 -0.4983691334
C   C96       1.0  0.84780  0.66310  0.28090  1.0000 -0.4910726559
C   C97       1.0  0.83160  0.67660  0.29720  1.0000 0.1898840689
C   C98       1.0  0.83096  0.70440  0.29056  1.0000 -0.1105637011
C   C99       1.0  0.81250  0.70450  0.31400  1.0000 0.2087814645
C   C100      1.0  0.80110  0.72680  0.31830  1.0000 -0.4802192597
C   C101      1.0  0.70410  0.65280  0.40390  1.0000 -0.4910726559
C   C102      1.0  0.68670  0.60733  0.40583  1.0000 0.1898840689
C   C103      1.0  0.65077  0.56754  0.42031  1.0000 -0.1105637011
C   C104      1.0  0.65299  0.53850  0.41589  1.0000 0.1898840689
C   C105      1.0  0.62230  0.48850  0.42480  1.0000 -0.4600869066
C   C106      1.0  0.46990  0.07590  0.18220  1.0000 -0.472420226
C   C107      1.0  0.47600  0.10980  0.20220  1.0000 0.1898840689
C   C108      1.0  0.43480  0.09600  0.20420  1.0000 -0.09941747
C   C109      1.0  0.46400  0.14270  0.22590  1.0000 0.1898840689
C   C110      1.0  0.44400  0.15400  0.23780  1.0000 -0.4983691334
C   C111      1.0  0.59050  0.33030  0.30520  1.0000 -0.4802192597
C   C112      1.0  0.64320  0.35740  0.31000  1.0000 0.1986761337
C   C113      1.0  0.69600  0.41060  0.32540  1.0000 -0.1193678637
C   C114      1.0  0.72770  0.41310  0.32100  1.0000 0.1986761337
C   C115      1.0  0.78740  0.45810  0.33250  1.0000 -0.4983691334
C   C116      1.0  0.82500  0.38860  0.27620  1.0000 -0.472420226
C   C117      1.0  0.76980  0.33080  0.26080  1.0000 0.1816152373
C   C118      1.0  0.75360  0.29060  0.24400  1.0000 -0.09941747
C   C119      1.0  0.69690  0.24546  0.23196  1.0000 0.1986761337
C   C120      1.0  0.65450  0.18840  0.21150  1.0000 -0.4910726559
C   C121      1.0  0.11330  0.82700  0.99890  1.0000 -0.4983691334
C   C122      1.0  0.15860  0.88240  0.02240  1.0000 0.1986761337
C   C123      1.0  0.19400  0.93170  0.01770  1.0000 -0.1292980995
C   C124      1.0  0.22770  0.96920  0.04630  1.0000 0.1816152373
C   C125      1.0  0.27460  0.02960  0.05560  1.0000 -0.4802192597
C   C126      1.0  0.37710  0.09250  0.15660  1.0000 -0.4910726559
C   C127      1.0  0.35360  0.04780  0.16600  1.0000 0.1898840689
C   C128      1.0  0.37720  0.04750  0.18710  1.0000 -0.1292980995
C   C129      1.0  0.33580  0.99300  0.18640  1.0000 0.1986761337
C   C130      1.0  0.33780  0.96840  0.20400  1.0000 -0.4802192597
C   C131      1.0  0.17590  0.76930  0.14280  1.0000 -0.4802192597
C   C132      1.0  0.14530  0.76180  0.11770  1.0000 0.2087814645
C   C133      1.0  0.10750  0.72120  0.08990  1.0000 -0.1105637011
C   C134      1.0  0.09340  0.73520  0.07560  1.0000 0.1898840689
C   C135      1.0  0.05330  0.70600  0.04550  1.0000 -0.4910726559
C   C136      1.0  0.63850  0.55070  0.48880  1.0000 -0.4802192597
C   C137      1.0  0.60740  0.54320  0.46440  1.0000 0.1898840689
C   C138      1.0  0.61508  0.55391  0.43579  1.0000 -0.1193678637
C   C139      1.0  0.57550  0.54046  0.42336  1.0000 0.1986761337
C   C140      1.0  0.56210  0.54220  0.39290  1.0000 -0.4910726559
C   C141      1.0  0.37650  0.42660  0.37050  1.0000 -0.4983691334
C   C142      1.0  0.35520  0.40310  0.39690  1.0000 0.1986761337
C   C143      1.0  0.30076  0.35916  0.39892  1.0000 -0.1193678637
C   C144      1.0  0.30460  0.35500  0.42820  1.0000 0.1986761337
C   C145      1.0  0.25960  0.31440  0.44320  1.0000 -0.4802192597
C   C146      1.0  0.33030  0.31030  0.53020  1.0000 -0.4910726559
C   C147      1.0  0.38660  0.34930  0.52990  1.0000 0.1898840689
C   C148      1.0  0.42400  0.36190  0.54790  1.0000 -0.1193678637
C   C149      1.0  0.47040  0.40365  0.53925  1.0000 0.1898840689
C   C150      1.0  0.52460  0.43340  0.54900  1.0000 -0.472420226
C   C151      1.0  0.82900  0.82640  0.38660  1.0000 -0.4910726559
C   C152      1.0  0.83980  0.86310  0.40830  1.0000 0.1986761337
C   C153      1.0  0.80950  0.86260  0.40810  1.0000 -0.1105637011
C   C154      1.0  0.83970  0.90690  0.43320  1.0000 0.1816152373
C   C155      1.0  0.82840  0.92650  0.44470  1.0000 -0.4802192597
C   C156      1.0  0.98100  0.50440  0.39600  1.0000 -0.472420226
C   C157      1.0  0.02580  0.54710  0.42410  1.0000 0.1898840689
C   C158      1.0  0.07180  0.60370  0.43070  1.0000 -0.1105637011
C   C159      1.0  0.09950  0.62210  0.46080  1.0000 0.1986761337
C   C160      1.0  0.15170  0.68000  0.48170  1.0000 -0.4802192597
C   C161      1.0  0.17310  0.09610  0.47160  1.0000 -0.472420226
C   C162      1.0  0.11800  0.04510  0.45050  1.0000 0.1816152373
C   C163      1.0  0.09930  0.01150  0.42420  1.0000 -0.09941747
C   C164      1.0  0.04380  0.97180  0.41340  1.0000 0.1986761337
C   C165      1.0  0.00090  0.92300  0.38490  1.0000 -0.4910726559
C   C166      1.0  0.44700  0.82042  0.10502  1.0000 -0.4910726559
C   C167      1.0  0.44143  0.84063  0.12606  1.0000 0.1816152373
C   C168      1.0  0.45050  0.87841  0.12591  1.0000 -0.1105637011
C   C169      1.0  0.44042  0.88210  0.15292  1.0000 0.1898840689
C   C170      1.0  0.44200  0.91560  0.16540  1.0000 -0.472420226
C   C171      1.0  0.34770  0.84530  0.24140  1.0000 -0.472420226
C   C172      1.0  0.32990  0.80132  0.24762  1.0000 0.1721857336
C   C173      1.0  0.29519  0.76540  0.26459  1.0000 -0.09941747
C   C174      1.0  0.29330  0.73270  0.26220  1.0000 0.1898840689
C   C175      1.0  0.26310  0.68650  0.27500  1.0000 -0.4910726559
C   C176      1.0  0.54360  0.74570  0.16670  1.0000 -0.4910726559
C   C177      1.0  0.60240  0.78920  0.17200  1.0000 0.1898840689
C   C178      1.0  0.63740  0.80099  0.19299  1.0000 -0.1105637011
C   C179      1.0  0.68722  0.84400  0.18782  1.0000 0.1816152373
C   C180      1.0  0.73900  0.87260  0.20240  1.0000 -0.4802192597
C   C181      1.0  0.66410  0.48170  0.59480  1.0000 -0.4910726559
C   C182      1.0  0.68140  0.47660  0.62000  1.0000 0.1986761337
C   C183      1.0  0.71830  0.51260  0.64830  1.0000 -0.1292980995
C   C184      1.0  0.71890  0.48720  0.66210  1.0000 0.1816152373
C   C185      1.0  0.75010  0.50500  0.69330  1.0000 -0.4802192597
C   C186      1.0  0.84780  0.63500  0.67620  1.0000 -0.4910726559
C   C187      1.0  0.80060  0.61521  0.67541  1.0000 0.1986761337
C   C188      1.0  0.74510  0.56306  0.66316  1.0000 -0.1193678637
C   C189      1.0  0.71990  0.56830  0.66940  1.0000 0.1986761337
C   C190      1.0  0.66060  0.52460  0.66280  1.0000 -0.4983691334
C   C191      1.0  0.42820  0.14170  0.53350  1.0000 -0.509361787
C   C192      1.0  0.46470  0.19700  0.53390  1.0000 0.1898840689
C   C193      1.0  0.45740  0.21200  0.51160  1.0000 -0.09941747
C   C194      1.0  0.50260  0.26870  0.52410  1.0000 0.1898840689
C   C195      1.0  0.51560  0.30660  0.51120  1.0000 -0.472420226
C   C196      1.0  0.25460  0.84660  0.77620  1.0000 -0.4802192597
C   C197      1.0  0.20176  0.81924  0.77100  1.0000 0.1986761337
C   C198      1.0  0.17460  0.81200  0.74640  1.0000 -0.1292980995
C   C199      1.0  0.12810  0.78460  0.75390  1.0000 0.1986761337
C   C200      1.0  0.08380  0.76590  0.73710  1.0000 -0.4910726559
C   C201      1.0  0.20700  0.90210  0.73090  1.0000 -0.4802192597
C   C202      1.0  0.20510  0.87170  0.71300  1.0000 0.1898840689
C   C203      1.0  0.19230  0.83300  0.71970  1.0000 -0.1105637011
C   C204      1.0  0.20045  0.82020  0.69585  1.0000 0.1898840689
C   C205      1.0  0.19280  0.78190  0.69070  1.0000 -0.4910726559
C   C206      1.0  0.18780  0.78810  0.95490  1.0000 -0.4910726559
C   C207      1.0  0.21470  0.81060  0.92990  1.0000 0.1898840689
C   C208      1.0  0.26670  0.84540  0.92790  1.0000 -0.1105637011
C   C209      1.0  0.26490  0.84630  0.89740  1.0000 0.1898840689
C   C210      1.0  0.30980  0.87640  0.88240  1.0000 -0.4983691334
C   C211      1.0  0.77810  0.89020  0.36250  1.0000 -0.4802192597
C   C212      1.0  0.74470  0.83680  0.36610  1.0000 0.1986761337
C   C213      1.0  0.75610  0.82440  0.38690  1.0000 -0.1193678637
C   C214      1.0  0.71040  0.76750  0.37910  1.0000 0.1986761337
C   C215      1.0  0.69870  0.73060  0.39230  1.0000 -0.4983691334
C   C216      1.0  0.58940  0.58050  0.32230  1.0000 -0.4910726559
C   C217      1.0  0.57050  0.57730  0.29100  1.0000 0.2087814645
C   C218      1.0  0.55350  0.54740  0.26270  1.0000 -0.1193678637
C   C219      1.0  0.54279  0.56058  0.24197  1.0000 0.1898840689
C   C220      1.0  0.52440  0.54230  0.20790  1.0000 -0.4910726559
C   C221      1.0  0.55140  0.67230  0.18150  1.0000 -0.4910726559
C   C222      1.0  0.58800  0.71730  0.21030  1.0000 0.2087814645
C   C223      1.0  0.62332  0.77194  0.21586  1.0000 -0.09941747
C   C224      1.0  0.64470  0.79300  0.24690  1.0000 0.1816152373
C   C225      1.0  0.68580  0.84960  0.26620  1.0000 -0.4910726559
C   C226      1.0  0.29390  0.77000  0.33650  1.0000 -0.4910726559
C   C227      1.0  0.26320  0.76070  0.31030  1.0000 0.1816152373
C   C228      1.0  0.26400  0.75880  0.27960  1.0000 -0.09941747
C   C229      1.0  0.22790  0.74990  0.26580  1.0000 0.1898840689
C   C230      1.0  0.20990  0.74170  0.23280  1.0000 -0.472420226
C   C231      1.0  0.03800  0.63200  0.20640  1.0000 -0.4910726559
C   C232      1.0  0.01525  0.61809  0.23414  1.0000 0.1986761337
C   C233      1.0  0.96280  0.57900  0.23540  1.0000 -0.1105637011
C   C234      1.0  0.96750  0.58590  0.26700  1.0000 0.1898840689
C   C235      1.0  0.92400  0.55470  0.28250  1.0000 -0.4802192597
C   C236      1.0  0.00490  0.59740  0.38830  1.0000 -0.4910726559
C   C237      1.0  0.05940  0.62960  0.38960  1.0000 0.1898840689
C   C238      1.0  0.08980  0.63510  0.40830  1.0000 -0.1292980995
C   C239      1.0  0.13660  0.67010  0.39910  1.0000 0.2205055683
C   C240      1.0  0.18530  0.69190  0.41100  1.0000 -0.4910726559
C   C241      1.0  0.54400  0.28380  0.11920  1.0000 -0.4802192597
C   C242      1.0  0.59870  0.33790  0.13840  1.0000 0.1816152373
C   C243      1.0  0.61660  0.37530  0.16170  1.0000 -0.0931649193
C   C244      1.0  0.67300  0.41800  0.17240  1.0000 0.2087814645
C   C245      1.0  0.71380  0.46900  0.19860  1.0000 -0.4910726559
C   C246      1.0  0.88220  0.56690  0.21910  1.0000 -0.4910726559
C   C247      1.0  0.87940  0.53440  0.20280  1.0000 0.1898840689
C   C248      1.0  0.91384  0.54040  0.20944  1.0000 -0.1105637011
C   C249      1.0  0.89050  0.49850  0.18600  1.0000 0.2087814645
C   C250      1.0  0.90850  0.48280  0.18170  1.0000 -0.4802192597
C   C251      1.0  0.74890  0.30020  0.09610  1.0000 -0.4983691334
C   C252      1.0  0.70150  0.28087  0.09417  1.0000 0.1898840689
C   C253      1.0  0.64723  0.23046  0.07969  1.0000 -0.1105637011
C   C254      1.0  0.62261  0.23710  0.08411  1.0000 0.1898840689
C   C255      1.0  0.56370  0.19750  0.07520  1.0000 -0.4600869066
C   C256      1.0  0.39370  0.28770  0.31780  1.0000 -0.472420226
C   C257      1.0  0.40760  0.27380  0.29780  1.0000 0.1898840689
C   C258      1.0  0.39180  0.23060  0.29580  1.0000 -0.09941747
C   C259      1.0  0.41680  0.23810  0.27410  1.0000 0.1898840689
C   C260      1.0  0.41620  0.20620  0.26220  1.0000 -0.4983691334
C   C261      1.0  0.52510  0.28530  0.19480  1.0000 -0.4802192597
C   C262      1.0  0.54740  0.33320  0.19000  1.0000 0.1986761337
C   C263      1.0  0.58520  0.37060  0.17460  1.0000 -0.1193678637
C   C264      1.0  0.59210  0.40670  0.17900  1.0000 0.1986761337
C   C265      1.0  0.62560  0.45490  0.16750  1.0000 -0.4983691334
C   C266      1.0  0.61240  0.54880  0.22380  1.0000 -0.472420226
C   C267      1.0  0.57000  0.50900  0.23920  1.0000 0.1816152373
C   C268      1.0  0.54660  0.50960  0.25600  1.0000 -0.09941747
C   C269      1.0  0.51350  0.46494  0.26804  1.0000 0.1986761337
C   C270      1.0  0.47690  0.44300  0.28850  1.0000 -0.4910726559
C   C271      1.0  0.32810  0.11440  0.50110  1.0000 -0.4983691334
C   C272      1.0  0.36000  0.13620  0.47760  1.0000 0.1986761337
C   C273      1.0  0.41400  0.17630  0.48230  1.0000 -0.1292980995
C   C274      1.0  0.42290  0.18140  0.45370  1.0000 0.1816152373
C   C275      1.0  0.47400  0.21900  0.44440  1.0000 -0.4802192597
C   C276      1.0  0.43590  0.22050  0.34340  1.0000 -0.4910726559
C   C277      1.0  0.38180  0.18760  0.33400  1.0000 0.1898840689
C   C278      1.0  0.36040  0.19010  0.31290  1.0000 -0.1292980995
C   C279      1.0  0.30660  0.14940  0.31360  1.0000 0.1986761337
C   C280      1.0  0.26440  0.13380  0.29600  1.0000 -0.4802192597
C   C281      1.0  0.12650  0.03310  0.35720  1.0000 -0.4802192597
C   C282      1.0  0.14410  0.02760  0.38230  1.0000 0.2087814645
C   C283      1.0  0.13130  0.01760  0.41010  1.0000 -0.1105637011
C   C284      1.0  0.15960  0.01780  0.42440  1.0000 0.1898840689
C   C285      1.0  0.16050  0.00780  0.45450  1.0000 -0.4910726559
C   C286      1.0  0.56190  0.14970  0.01120  1.0000 -0.4802192597
C   C287      1.0  0.57880  0.14300  0.03560  1.0000 0.1898840689
C   C288      1.0  0.61812  0.17929  0.06421  1.0000 -0.1193678637
C   C289      1.0  0.61710  0.15214  0.07664  1.0000 0.1986761337
C   C290      1.0  0.64930  0.16920  0.10710  1.0000 -0.4910726559
C   C291      1.0  0.55610  0.00600  0.12950  1.0000 -0.4983691334
C   C292      1.0  0.50620  0.95830  0.10310  1.0000 0.1986761337
C   C293      1.0  0.46024  0.90184  0.10108  1.0000 -0.1193678637
C   C294      1.0  0.42680  0.87640  0.07180  1.0000 0.1986761337
C   C295      1.0  0.37120  0.81640  0.05680  1.0000 -0.4802192597
C   C296      1.0  0.28010  0.80010  0.96980  1.0000 -0.4910726559
C   C297      1.0  0.31940  0.85670  0.97010  1.0000 0.1898840689
C   C298      1.0  0.31400  0.87610  0.95210  1.0000 -0.1193678637
C   C299      1.0  0.36440  0.93115  0.96075  1.0000 0.1898840689
C   C300      1.0  0.38440  0.97560  0.95100  1.0000 -0.4802192597
C   C301      1.0  0.94240  0.32900  0.50260  1.0000 -0.4910726559
C   C302      1.0  0.93150  0.33980  0.47670  1.0000 0.1986761337
C   C303      1.0  0.90140  0.30950  0.44690  1.0000 -0.1105637011
C   C304      1.0  0.90650  0.33970  0.43280  1.0000 0.1816152373
C   C305      1.0  0.88370  0.32840  0.40190  1.0000 -0.4802192597
C   C306      1.0  0.08500  0.48100  0.97660  1.0000 -0.472420226
C   C307      1.0  0.10170  0.52580  0.97870  1.0000 0.1898840689
C   C308      1.0  0.14110  0.57180  0.96810  1.0000 -0.1105637011
C   C309      1.0  0.13870  0.59950  0.97740  1.0000 0.1986761337
C   C310      1.0  0.17000  0.65170  0.97170  1.0000 -0.4802192597
C   C311      1.0  0.20150  0.67310  0.57700  1.0000 -0.4802192597
C   C312      1.0  0.16750  0.61800  0.57290  1.0000 0.1816152373
C   C313      1.0  0.17510  0.59930  0.58780  1.0000 -0.09941747
C   C314      1.0  0.13040  0.54380  0.57200  1.0000 0.1986761337
C   C315      1.0  0.11600  0.50090  0.57790  1.0000 -0.4910726559
C   C316      1.0  0.84198  0.94700  0.12658  1.0000 -0.4910726559
C   C317      1.0  0.81537  0.94143  0.10080  1.0000 0.1816152373
C   C318      1.0  0.82459  0.95050  0.07209  1.0000 -0.1105637011
C   C319      1.0  0.78750  0.94042  0.05832  1.0000 0.1898840689
C   C320      1.0  0.77660  0.94200  0.02640  1.0000 -0.472420226
C   C321      1.0  0.60630  0.84770  0.00240  1.0000 -0.472420226
C   C322      1.0  0.58228  0.82990  0.02858  1.0000 0.1721857336
C   C323      1.0  0.53060  0.79519  0.02979  1.0000 -0.09941747
C   C324      1.0  0.53110  0.79330  0.06060  1.0000 0.1898840689
C   C325      1.0  0.48810  0.76310  0.07660  1.0000 -0.4910726559
C   C326      1.0  0.87690  0.04360  0.29790  1.0000 -0.4910726559
C   C327      1.0  0.93040  0.10240  0.31320  1.0000 0.1898840689
C   C328      1.0  0.94441  0.13740  0.33641  1.0000 -0.1105637011
C   C329      1.0  0.99940  0.18722  0.34322  1.0000 0.1816152373
C   C330      1.0  0.03660  0.23900  0.36640  1.0000 -0.472420226
C   C331      1.0  0.56930  0.16410  0.68240  1.0000 -0.4910726559
C   C332      1.0  0.56140  0.18140  0.70480  1.0000 0.1986761337
C   C333      1.0  0.57000  0.21830  0.70570  1.0000 -0.1193678637
C   C334      1.0  0.55680  0.21890  0.73170  1.0000 0.1816152373
C   C335      1.0  0.55680  0.25010  0.74510  1.0000 -0.472420226
C   C336      1.0  0.67160  0.34780  0.71280  1.0000 -0.4910726559
C   C337      1.0  0.62519  0.30060  0.68539  1.0000 0.1986761337
C   C338      1.0  0.58194  0.24510  0.68204  1.0000 -0.1193678637
C   C339      1.0  0.55050  0.21990  0.65160  1.0000 0.1986761337
C   C340      1.0  0.49780  0.16060  0.63600  1.0000 -0.4983691334
C   C341      1.0  0.39470  0.92820  0.78650  1.0000 -0.509361787
C   C342      1.0  0.43080  0.96470  0.76770  1.0000 0.1898840689
C   C343      1.0  0.44580  0.95740  0.74540  1.0000 -0.09941747
C   C344      1.0  0.47850  0.00260  0.73390  1.0000 0.1898840689
C   C345      1.0  0.50440  0.01560  0.70900  1.0000 -0.472420226
C   C346      1.0  0.97840  0.75460  0.90800  1.0000 -0.4802192597
C   C347      1.0  0.93076  0.70176  0.88252  1.0000 0.1986761337
C   C348      1.0  0.92820  0.67460  0.86260  1.0000 -0.1292980995
C   C349      1.0  0.87420  0.62810  0.84350  1.0000 0.1986761337
C   C350      1.0  0.84670  0.58380  0.81790  1.0000 -0.4910726559
C   C351      1.0  0.97610  0.70700  0.80490  1.0000 -0.4802192597
C   C352      1.0  0.99210  0.70510  0.83340  1.0000 0.1898840689
C   C353      1.0  0.97260  0.69230  0.85930  1.0000 -0.1105637011
C   C354      1.0  0.00460  0.70045  0.88025  1.0000 0.1898840689
C   C355      1.0  0.00210  0.69280  0.91090  1.0000 -0.4910726559
C   C356      1.0  0.73290  0.68780  0.89970  1.0000 -0.4910726559
C   C357      1.0  0.78480  0.71470  0.90410  1.0000 0.1898840689
C   C358      1.0  0.83880  0.76670  0.92130  1.0000 -0.1105637011
C   C359      1.0  0.86750  0.76490  0.91860  1.0000 0.1898840689
C   C360      1.0  0.92740  0.80980  0.93340  1.0000 -0.4983691334
C   C361      1.0  0.91560  0.27810  0.38790  1.0000 -0.4802192597
C   C362      1.0  0.87860  0.24470  0.40790  1.0000 0.1986761337
C   C363      1.0  0.86920  0.25610  0.43170  1.0000 -0.1193678637
C   C364      1.0  0.83130  0.21040  0.44290  1.0000 0.1986761337
C   C365      1.0  0.80640  0.19870  0.46810  1.0000 -0.4983691334
C   C366      1.0  0.76710  0.08940  0.50890  1.0000 -0.4910726559
C   C367      1.0  0.77950  0.07050  0.49320  1.0000 0.2087814645
C   C368      1.0  0.79080  0.05350  0.50610  1.0000 -0.1193678637
C   C369      1.0  0.80082  0.04279  0.48221  1.0000 0.1898840689
C   C370      1.0  0.81650  0.02440  0.48210  1.0000 -0.4910726559
C   C371      1.0  0.86990  0.05140  0.37910  1.0000 -0.4910726559
C   C372      1.0  0.87770  0.08800  0.37070  1.0000 0.1986761337
C   C373      1.0  0.90746  0.12332  0.35138  1.0000 -0.09941747
C   C374      1.0  0.89780  0.14470  0.35170  1.0000 0.1816152373
C   C375      1.0  0.91960  0.18580  0.33620  1.0000 -0.4910726559
C   C376      1.0  0.45740  0.79390  0.02390  1.0000 -0.4910726559
C   C377      1.0  0.45290  0.76320  0.00250  1.0000 0.1816152373
C   C378      1.0  0.48440  0.76400  0.00520  1.0000 -0.09941747
C   C379      1.0  0.46210  0.72790  0.97800  1.0000 0.1898840689
C   C380      1.0  0.47710  0.70990  0.96820  1.0000 -0.472420226
C   C381      1.0  0.33160  0.53800  0.90600  1.0000 -0.4910726559
C   C382      1.0  0.28111  0.51525  0.89716  1.0000 0.1986761337
C   C383      1.0  0.22740  0.46280  0.88380  1.0000 -0.1105637011
C   C384      1.0  0.20050  0.46750  0.88160  1.0000 0.1898840689
C   C385      1.0  0.14150  0.42400  0.86930  1.0000 -0.4802192597
C   C386      1.0  0.11660  0.50490  0.90750  1.0000 -0.4910726559
C   C387      1.0  0.16980  0.55940  0.92980  1.0000 0.1898840689
C   C388      1.0  0.18150  0.58980  0.95470  1.0000 -0.1292980995
C   C389      1.0  0.23750  0.63660  0.96650  1.0000 0.2205055683
C   C390      1.0  0.27430  0.68530  0.99340  1.0000 -0.4910726559
C   C391      1.0  0.92480  0.04400  0.76020  1.0000 -0.4802192597
C   C392      1.0  0.96030  0.09870  0.76080  1.0000 0.1816152373
C   C393      1.0  0.95490  0.11660  0.74130  1.0000 -0.0931649193
C   C394      1.0  0.00060  0.17300  0.75500  1.0000 0.2087814645
C   C395      1.0  0.01520  0.21380  0.74480  1.0000 -0.4910726559
C   C396      1.0  0.16310  0.38220  0.81530  1.0000 -0.4910726559
C   C397      1.0  0.17660  0.37940  0.84500  1.0000 0.1898840689
C   C398      1.0  0.20440  0.41384  0.87344  1.0000 -0.1105637011
C   C399      1.0  0.20450  0.39050  0.89200  1.0000 0.2087814645
C   C400      1.0  0.22680  0.40850  0.92570  1.0000 -0.4802192597
C   C401      1.0  0.15280  0.24890  0.94870  1.0000 -0.4983691334
C   C402      1.0  0.10733  0.20150  0.92063  1.0000 0.1898840689
C   C403      1.0  0.06754  0.14723  0.91677  1.0000 -0.1105637011
C   C404      1.0  0.03850  0.12261  0.88551  1.0000 0.1898840689
C   C405      1.0  0.98850  0.06370  0.86620  1.0000 -0.4600869066
C   C406      1.0  0.57590  0.89370  0.60600  1.0000 -0.472420226
C   C407      1.0  0.60980  0.90760  0.63380  1.0000 0.1898840689
C   C408      1.0  0.59600  0.89180  0.66120  1.0000 -0.09941747
C   C409      1.0  0.64270  0.91680  0.67870  1.0000 0.1898840689
C   C410      1.0  0.65400  0.91620  0.71000  1.0000 -0.4983691334
C   C411      1.0  0.83030  0.02510  0.73980  1.0000 -0.4802192597
C   C412      1.0  0.85740  0.04740  0.71420  1.0000 0.1986761337
C   C413      1.0  0.91060  0.08520  0.71460  1.0000 -0.1193678637
C   C414      1.0  0.91310  0.09210  0.68540  1.0000 0.1986761337
C   C415      1.0  0.95810  0.12560  0.67070  1.0000 -0.4983691334
C   C416      1.0  0.88860  0.11240  0.56360  1.0000 -0.472420226
C   C417      1.0  0.83080  0.07000  0.56100  1.0000 0.1816152373
C   C418      1.0  0.79060  0.04660  0.53700  1.0000 -0.09941747
C   C419      1.0  0.74546  0.01350  0.54856  1.0000 0.1986761337
C   C420      1.0  0.68840  0.97690  0.53390  1.0000 -0.4910726559
C   C421      1.0  0.32700  0.82810  0.71370  1.0000 -0.4983691334
C   C422      1.0  0.38240  0.86000  0.72380  1.0000 0.1986761337
C   C423      1.0  0.43170  0.91400  0.73770  1.0000 -0.1292980995
C   C424      1.0  0.46920  0.92290  0.74150  1.0000 0.1816152373
C   C425      1.0  0.52960  0.97400  0.75500  1.0000 -0.4802192597
C   C426      1.0  0.59250  0.93590  0.71540  1.0000 -0.4910726559
C   C427      1.0  0.54780  0.88180  0.69420  1.0000 0.1898840689
C   C428      1.0  0.54750  0.86040  0.67030  1.0000 -0.1292980995
C   C429      1.0  0.49300  0.80660  0.65720  1.0000 0.1986761337
C   C430      1.0  0.46840  0.76440  0.63060  1.0000 -0.4802192597
C   C431      1.0  0.26930  0.62650  0.59340  1.0000 -0.4802192597
C   C432      1.0  0.26180  0.64410  0.61650  1.0000 0.2087814645
C   C433      1.0  0.22120  0.63130  0.61370  1.0000 -0.1105637011
C   C434      1.0  0.23520  0.65960  0.64180  1.0000 0.1898840689
C   C435      1.0  0.20600  0.66050  0.65270  1.0000 -0.4910726559
C   C436      1.0  0.05070  0.06190  0.91220  1.0000 -0.4802192597
C   C437      1.0  0.04320  0.07880  0.93580  1.0000 0.1898840689
C   C438      1.0  0.05391  0.11812  0.93883  1.0000 -0.1193678637
C   C439      1.0  0.04046  0.11710  0.96496  1.0000 0.1986761337
C   C440      1.0  0.04220  0.14930  0.98010  1.0000 -0.4910726559
C   C441      1.0  0.92660  0.05610  0.05010  1.0000 -0.4983691334
C   C442      1.0  0.90310  0.00620  0.04790  1.0000 0.1986761337
C   C443      1.0  0.85916  0.96024  0.05840  1.0000 -0.1193678637
C   C444      1.0  0.85500  0.92680  0.05040  1.0000 0.1986761337
C   C445      1.0  0.81440  0.87120  0.05480  1.0000 -0.4802192597
C   C446      1.0  0.81030  0.78010  0.98000  1.0000 -0.4910726559
C   C447      1.0  0.84930  0.81940  0.96270  1.0000 0.1898840689
C   C448      1.0  0.86190  0.81400  0.93790  1.0000 -0.1193678637
C   C449      1.0  0.90365  0.86440  0.93325  1.0000 0.1898840689
C   C450      1.0  0.93340  0.88440  0.90880  1.0000 -0.472420226
C   C451      1.0  0.32640  0.43980  0.99740  1.0000 -0.4910726559
C   C452      1.0  0.36310  0.45480  0.02330  1.0000 0.1986761337
C   C453      1.0  0.36260  0.45450  0.05310  1.0000 -0.1105637011
C   C454      1.0  0.40690  0.47370  0.06720  1.0000 0.1816152373
C   C455      1.0  0.42650  0.48180  0.09810  1.0000 -0.4802192597
C   C456      1.0  0.00440  0.10840  0.52340  1.0000 -0.472420226
C   C457      1.0  0.04710  0.12300  0.52130  1.0000 0.1898840689
C   C458      1.0  0.10370  0.17300  0.53190  1.0000 -0.1105637011
C   C459      1.0  0.12210  0.16130  0.52260  1.0000 0.1986761337
C   C460      1.0  0.18000  0.19830  0.52830  1.0000 -0.4802192597
C   C461      1.0  0.59610  0.62450  0.92300  1.0000 -0.4802192597
C   C462      1.0  0.54510  0.59460  0.92710  1.0000 0.1816152373
C   C463      1.0  0.51150  0.58730  0.91220  1.0000 -0.09941747
C   C464      1.0  0.47180  0.55840  0.92800  1.0000 0.1986761337
C   C465      1.0  0.42300  0.53810  0.92210  1.0000 -0.4910726559
C   C466      1.0  0.32042  0.71540  0.37342  1.0000 -0.4910726559
C   C467      1.0  0.34063  0.71457  0.39920  1.0000 0.1816152373
C   C468      1.0  0.37841  0.75250  0.42791  1.0000 -0.1105637011
C   C469      1.0  0.38210  0.72918  0.44168  1.0000 0.1898840689
C   C470      1.0  0.41560  0.75020  0.47360  1.0000 -0.472420226
C   C471      1.0  0.34530  0.60390  0.49760  1.0000 -0.472420226
C   C472      1.0  0.30132  0.55370  0.47142  1.0000 0.1721857336
C   C473      1.0  0.26540  0.50081  0.47021  1.0000 -0.09941747
C   C474      1.0  0.23270  0.47050  0.43940  1.0000 0.1898840689
C   C475      1.0  0.18650  0.41150  0.42340  1.0000 -0.4910726559
C   C476      1.0  0.24570  0.57900  0.20210  1.0000 -0.4910726559
C   C477      1.0  0.28920  0.61720  0.18680  1.0000 0.1898840689
C   C478      1.0  0.30099  0.60800  0.16359  1.0000 -0.1105637011
C   C479      1.0  0.34400  0.65618  0.15678  1.0000 0.1816152373
C   C480      1.0  0.37260  0.67020  0.13360  1.0000 -0.472420226
C   C481      1.0  0.98170  0.88690  0.81760  1.0000 -0.4910726559
C   C482      1.0  0.97660  0.85660  0.79520  1.0000 0.1986761337
C   C483      1.0  0.01260  0.86430  0.79430  1.0000 -0.1193678637
C   C484      1.0  0.98720  0.82510  0.76830  1.0000 0.1816152373
C   C485      1.0  0.00500  0.81170  0.75490  1.0000 -0.472420226
C   C486      1.0  0.13500  0.95880  0.78720  1.0000 -0.4910726559
C   C487      1.0  0.11521  0.93980  0.81461  1.0000 0.1986761337
C   C488      1.0  0.06306  0.89990  0.81796  1.0000 -0.1193678637
C   C489      1.0  0.06830  0.89890  0.84840  1.0000 0.1986761337
C   C490      1.0  0.02460  0.86180  0.86400  1.0000 -0.4983691334
C   C491      1.0  0.64170  0.60820  0.71350  1.0000 -0.509361787
C   C492      1.0  0.69700  0.66310  0.73230  1.0000 0.1898840689
C   C493      1.0  0.71200  0.70040  0.75460  1.0000 -0.09941747
C   C494      1.0  0.76870  0.74460  0.76610  1.0000 0.1898840689
C   C495      1.0  0.80660  0.79540  0.79100  1.0000 -0.472420226
C   C496      1.0  0.34660  0.07040  0.59200  1.0000 -0.4802192597
C   C497      1.0  0.31924  0.04824  0.61748  1.0000 0.1986761337
C   C498      1.0  0.31200  0.06560  0.63740  1.0000 -0.1292980995
C   C499      1.0  0.28460  0.03070  0.65650  1.0000 0.1986761337
C   C500      1.0  0.26590  0.02880  0.68210  1.0000 -0.4910726559
C   C501      1.0  0.40210  0.17120  0.69510  1.0000 -0.4802192597
C   C502      1.0  0.37170  0.15870  0.66667  1.0000 0.1898840689
C   C503      1.0  0.33300  0.11330  0.64070  1.0000 -0.1105637011
C   C504      1.0  0.32020  0.12435  0.61975  1.0000 0.1898840689
C   C505      1.0  0.28190  0.09120  0.58910  1.0000 -0.4910726559
C   C506      1.0  0.28810  0.83320  0.60030  1.0000 -0.4910726559
C   C507      1.0  0.31060  0.88070  0.59590  1.0000 0.1898840689
C   C508      1.0  0.34540  0.91750  0.57870  1.0000 -0.1105637011
C   C509      1.0  0.34630  0.94890  0.58140  1.0000 0.1898840689
C   C510      1.0  0.37640  0.99400  0.56660  1.0000 -0.4983691334
C   C511      1.0  0.39020  0.52770  0.11210  1.0000 -0.4802192597
C   C512      1.0  0.33680  0.47070  0.09210  1.0000 0.1986761337
C   C513      1.0  0.32440  0.43750  0.06830  1.0000 -0.1193678637
C   C514      1.0  0.26750  0.38840  0.05710  1.0000 0.1986761337
C   C515      1.0  0.23060  0.33830  0.03190  1.0000 -0.4983691334
C   C516      1.0  0.08050  0.25820  0.99110  1.0000 -0.4910726559
C   C517      1.0  0.07730  0.28630  0.00680  1.0000 0.2087814645
C   C518      1.0  0.04740  0.28470  0.99390  1.0000 -0.1193678637
C   C519      1.0  0.06058  0.31861  0.01779  1.0000 0.1898840689
C   C520      1.0  0.04230  0.33440  0.01790  1.0000 -0.4910726559
C   C521      1.0  0.17230  0.49080  0.12090  1.0000 -0.4910726559
C   C522      1.0  0.21730  0.50700  0.12930  1.0000 0.2087814645
C   C523      1.0  0.27194  0.55608  0.14862  1.0000 -0.09941747
C   C524      1.0  0.29300  0.54610  0.14830  1.0000 0.1816152373
C   C525      1.0  0.34960  0.58340  0.16380  1.0000 -0.4910726559
C   C526      1.0  0.27000  0.43350  0.47610  1.0000 -0.4910726559
C   C527      1.0  0.26070  0.45040  0.49750  1.0000 0.1816152373
C   C528      1.0  0.25880  0.47920  0.49480  1.0000 -0.09941747
C   C529      1.0  0.24990  0.48410  0.52200  1.0000 0.1898840689
C   C530      1.0  0.24170  0.50890  0.53180  1.0000 -0.472420226
C   C531      1.0  0.13200  0.42560  0.59400  1.0000 -0.4910726559
C   C532      1.0  0.11809  0.38395  0.60284  1.0000 0.1986761337
C   C533      1.0  0.07900  0.34360  0.61620  1.0000 -0.1105637011
C   C534      1.0  0.08590  0.31890  0.61840  1.0000 0.1898840689
C   C535      1.0  0.05470  0.27220  0.63070  1.0000 -0.4802192597
C   C536      1.0  0.09740  0.20910  0.59250  1.0000 -0.4910726559
C   C537      1.0  0.12960  0.24000  0.57020  1.0000 0.1898840689
C   C538      1.0  0.13510  0.22680  0.54530  1.0000 -0.1292980995
C   C539      1.0  0.17010  0.27100  0.53350  1.0000 0.2205055683
C   C540      1.0  0.19190  0.28090  0.50660  1.0000 -0.4910726559
C   C541      1.0  0.78380  0.16460  0.73980  1.0000 -0.4802192597
C   C542      1.0  0.83790  0.19950  0.73920  1.0000 0.1816152373
C   C543      1.0  0.87530  0.21360  0.75870  1.0000 -0.0931649193
C   C544      1.0  0.91800  0.24560  0.74500  1.0000 0.2087814645
C   C545      1.0  0.96900  0.27040  0.75520  1.0000 -0.4910726559
C   C546      1.0  0.06690  0.34780  0.68470  1.0000 -0.4910726559
C   C547      1.0  0.03440  0.33160  0.65500  1.0000 0.1898840689
C   C548      1.0  0.04040  0.33096  0.62656  1.0000 -0.1105637011
C   C549      1.0  0.99850  0.31250  0.60800  1.0000 0.2087814645
C   C550      1.0  0.98280  0.30110  0.57430  1.0000 -0.4802192597
C   C551      1.0  0.80020  0.20410  0.55130  1.0000 -0.4910726559
C   C552      1.0  0.78087  0.18670  0.57937  1.0000 0.1898840689
C   C553      1.0  0.73046  0.15077  0.58323  1.0000 -0.1105637011
C   C554      1.0  0.73710  0.15299  0.61449  1.0000 0.1898840689
C   C555      1.0  0.69750  0.12230  0.63380  1.0000 -0.4600869066
C   C556      1.0  0.78770  0.96990  0.89400  1.0000 -0.472420226
C   C557      1.0  0.77380  0.97600  0.86620  1.0000 0.1898840689
C   C558      1.0  0.73060  0.93480  0.83880  1.0000 -0.09941747
C   C559      1.0  0.73810  0.96400  0.82130  1.0000 0.1898840689
C   C560      1.0  0.70620  0.94400  0.79000  1.0000 -0.4983691334
C   C561      1.0  0.78530  0.09050  0.76020  1.0000 -0.4802192597
C   C562      1.0  0.83320  0.14320  0.78580  1.0000 0.1986761337
C   C563      1.0  0.87060  0.19600  0.78540  1.0000 -0.1193678637
C   C564      1.0  0.90670  0.22770  0.81460  1.0000 0.1986761337
C   C565      1.0  0.95490  0.28740  0.82930  1.0000 -0.4983691334
C   C566      1.0  0.04880  0.32500  0.93640  1.0000 -0.472420226
C   C567      1.0  0.00900  0.26980  0.93900  1.0000 0.1816152373
C   C568      1.0  0.00960  0.25360  0.96300  1.0000 -0.09941747
C   C569      1.0  0.96494  0.19690  0.95144  1.0000 0.1986761337
C   C570      1.0  0.94300  0.15450  0.96610  1.0000 -0.4910726559
C   C571      1.0  0.61440  0.61330  0.78630  1.0000 -0.4983691334
C   C572      1.0  0.63620  0.65860  0.77620  1.0000 0.1986761337
C   C573      1.0  0.67630  0.69400  0.76230  1.0000 -0.1292980995
C   C574      1.0  0.68140  0.72770  0.75850  1.0000 0.1816152373
C   C575      1.0  0.71900  0.77460  0.74500  1.0000 -0.4802192597
C   C576      1.0  0.72050  0.87710  0.78460  1.0000 -0.4910726559
C   C577      1.0  0.68760  0.85360  0.80580  1.0000 0.1898840689
C   C578      1.0  0.69010  0.87720  0.82970  1.0000 -0.1292980995
C   C579      1.0  0.64940  0.83580  0.84280  1.0000 0.1986761337
C   C580      1.0  0.63380  0.83780  0.86940  1.0000 -0.4802192597
C   C581      1.0  0.53310  0.67590  0.90660  1.0000 -0.4802192597
C   C582      1.0  0.52760  0.64530  0.88350  1.0000 0.2087814645
C   C583      1.0  0.51760  0.60750  0.88630  1.0000 -0.1105637011
C   C584      1.0  0.51780  0.59340  0.85820  1.0000 0.1898840689
C   C585      1.0  0.50780  0.55330  0.84730  1.0000 -0.4910726559
C   C586      1.0  0.64970  0.13850  0.58780  1.0000 -0.4802192597
C   C587      1.0  0.64300  0.10740  0.56420  1.0000 0.1898840689
C   C588      1.0  0.67929  0.11508  0.56117  1.0000 -0.1193678637
C   C589      1.0  0.65214  0.07550  0.53504  1.0000 0.1986761337
C   C590      1.0  0.66920  0.06210  0.51990  1.0000 -0.4910726559
C   C591      1.0  0.50600  0.87650  0.44990  1.0000 -0.4983691334
C   C592      1.0  0.45830  0.85520  0.45210  1.0000 0.1986761337
C   C593      1.0  0.40184  0.80076  0.44160  1.0000 -0.1193678637
C   C594      1.0  0.37640  0.80460  0.44960  1.0000 0.1986761337
C   C595      1.0  0.31640  0.75960  0.44520  1.0000 -0.4802192597
C   C596      1.0  0.30010  0.83030  0.52000  1.0000 -0.4910726559
C   C597      1.0  0.35670  0.88660  0.53730  1.0000 0.1898840689
C   C598      1.0  0.37610  0.92400  0.56210  1.0000 -0.1193678637
C   C599      1.0  0.43115  0.97040  0.56675  1.0000 0.1898840689
C   C600      1.0  0.47560  0.02460  0.59120  1.0000 -0.4802192597
C   C601      1.0  0.06020  0.55760  0.88660  1.0000 -0.4910726559
C   C602      1.0  0.04520  0.56850  0.90830  1.0000 0.1986761337
C   C603      1.0  0.04550  0.59860  0.90810  1.0000 -0.1105637011
C   C604      1.0  0.02630  0.59350  0.93320  1.0000 0.1816152373
C   C605      1.0  0.01820  0.61630  0.94470  1.0000 -0.4802192597
C   C606      1.0  0.39160  0.41500  0.89600  1.0000 -0.472420226
C   C607      1.0  0.37700  0.39830  0.92410  1.0000 0.1898840689
C   C608      1.0  0.32700  0.35890  0.93070  1.0000 -0.1105637011
C   C609      1.0  0.33870  0.36130  0.96080  1.0000 0.1986761337
C   C610      1.0  0.30170  0.33000  0.98170  1.0000 -0.4802192597
C   C611      1.0  0.87550  0.29850  0.97160  1.0000 -0.4802192597
C   C612      1.0  0.90540  0.33250  0.95050  1.0000 0.1816152373
C   C613      1.0  0.91270  0.32490  0.92420  1.0000 -0.09941747
C   C614      1.0  0.94160  0.36960  0.91340  1.0000 0.1986761337
C   C615      1.0  0.96190  0.38400  0.88490  1.0000 -0.4910726559
C   C616      1.0  0.78460  0.65802  0.60502  1.0000 -0.4910726559
C   C617      1.0  0.78543  0.68463  0.62606  1.0000 0.1816152373
C   C618      1.0  0.74750  0.67541  0.62591  1.0000 -0.1105637011
C   C619      1.0  0.77082  0.71250  0.65292  1.0000 0.1898840689
C   C620      1.0  0.74980  0.72340  0.66540  1.0000 -0.472420226
C   C621      1.0  0.89610  0.89370  0.74140  1.0000 -0.472420226
C   C622      1.0  0.94630  0.91772  0.74762  1.0000 0.1721857336
C   C623      1.0  0.99919  0.96940  0.76459  1.0000 -0.09941747
C   C624      1.0  0.02950  0.96890  0.76220  1.0000 0.1898840689
C   C625      1.0  0.08850  0.01190  0.77500  1.0000 -0.4910726559
C   C626      1.0  0.92100  0.62310  0.66667  1.0000 -0.4910726559
C   C627      1.0  0.88280  0.56960  0.67200  1.0000 0.1898840689
C   C628      1.0  0.89200  0.55559  0.69299  1.0000 -0.1105637011
C   C629      1.0  0.84382  0.50060  0.68782  1.0000 0.1816152373
C   C630      1.0  0.82980  0.46340  0.70240  1.0000 -0.4802192597
C   C631      1.0  0.61310  0.93070  0.09480  1.0000 -0.4910726559
C   C632      1.0  0.64340  0.93860  0.12000  1.0000 0.1986761337
C   C633      1.0  0.63570  0.93000  0.14830  1.0000 -0.1193678637
C   C634      1.0  0.67490  0.94320  0.16210  1.0000 0.1816152373
C   C635      1.0  0.68830  0.94320  0.19330  1.0000 -0.4802192597
C   C636      1.0  0.54120  0.82840  0.17620  1.0000 -0.4910726559
C   C637      1.0  0.56020  0.87481  0.17541  1.0000 0.1986761337
C   C638      1.0  0.60010  0.91806  0.16316  1.0000 -0.1193678637
C   C639      1.0  0.60110  0.94950  0.16940  1.0000 0.1986761337
C   C640      1.0  0.63820  0.00220  0.16280  1.0000 -0.4983691334
C   C641      1.0  0.89180  0.10530  0.03350  1.0000 -0.509361787
C   C642      1.0  0.83690  0.06920  0.03390  1.0000 0.1986761337
C   C643      1.0  0.79960  0.05420  0.01160  1.0000 -0.09941747
C   C644      1.0  0.75540  0.02150  0.02410  1.0000 0.1898840689
C   C645      1.0  0.70460  0.99560  0.01120  1.0000 -0.472420226
C   C646      1.0  0.42960  0.52160  0.27620  1.0000 -0.4802192597
C   C647      1.0  0.45176  0.56924  0.27100  1.0000 0.1986761337
C   C648      1.0  0.43440  0.57180  0.24640  1.0000 -0.1292980995
C   C649      1.0  0.46930  0.62580  0.25390  1.0000 0.1986761337
C   C650      1.0  0.47120  0.65330  0.23710  1.0000 -0.4910726559
C   C651      1.0  0.32880  0.52390  0.23090  1.0000 -0.4802192597
C   C652      1.0  0.34130  0.50790  0.21300  1.0000 0.1898840689
C   C653      1.0  0.38670  0.52740  0.21970  1.0000 -0.1105637011
C   C654      1.0  0.37565  0.49540  0.19585  1.0000 0.1898840689
C   C655      1.0  0.40880  0.49790  0.19070  1.0000 -0.4910726559
C   C656      1.0  0.66680  0.76710  0.45490  1.0000 -0.4910726559
C   C657      1.0  0.61930  0.71520  0.42990  1.0000 0.1898840689
C   C658      1.0  0.58250  0.66120  0.42790  1.0000 -0.1105637011
C   C659      1.0  0.55110  0.63250  0.39740  1.0000 0.1898840689
C   C660      1.0  0.50600  0.57260  0.38240  1.0000 -0.4983691334
C   C661      1.0  0.97230  0.58440  0.86250  1.0000 -0.4802192597
C   C662      1.0  0.02930  0.62140  0.86610  1.0000 0.1986761337
C   C663      1.0  0.06250  0.63080  0.88690  1.0000 -0.1193678637
C   C664      1.0  0.11160  0.66870  0.87910  1.0000 0.1986761337
C   C665      1.0  0.16170  0.69360  0.89230  1.0000 -0.4983691334
C   C666      1.0  0.24180  0.73290  0.82230  1.0000 -0.4910726559
C   C667      1.0  0.21370  0.72050  0.79100  1.0000 0.2087814645
C   C668      1.0  0.21530  0.70920  0.76270  1.0000 -0.1193678637
C   C669      1.0  0.18139  0.69918  0.74197  1.0000 0.1898840689
C   C670      1.0  0.16560  0.68350  0.70790  1.0000 -0.4910726559
C   C671      1.0  0.00920  0.63010  0.68150  1.0000 -0.4910726559
C   C672      1.0  0.99300  0.62230  0.71030  1.0000 0.2087814645
C   C673      1.0  0.94392  0.59254  0.71586  1.0000 -0.09941747
C   C674      1.0  0.95390  0.60220  0.74690  1.0000 0.1816152373
C   C675      1.0  0.91660  0.58040  0.76620  1.0000 -0.4910726559
C   C676      1.0  0.06650  0.04260  0.83650  1.0000 -0.4910726559
C   C677      1.0  0.04960  0.04710  0.81030  1.0000 0.1816152373
C   C678      1.0  0.02080  0.01560  0.77960  1.0000 -0.09941747
C   C679      1.0  0.01590  0.03790  0.76580  1.0000 0.1898840689
C   C680      1.0  0.99110  0.02290  0.73280  1.0000 -0.472420226
C   C681      1.0  0.07440  0.16840  0.70640  1.0000 -0.4910726559
C   C682      1.0  0.11605  0.21889  0.73414  1.0000 0.1986761337
C   C683      1.0  0.15640  0.27260  0.73540  1.0000 -0.1193678637
C   C684      1.0  0.18110  0.29950  0.76700  1.0000 0.1898840689
C   C685      1.0  0.22780  0.35850  0.78250  1.0000 -0.4802192597
C   C686      1.0  0.29090  0.38340  0.88830  1.0000 -0.4910726559
C   C687      1.0  0.26000  0.33020  0.88960  1.0000 0.1898840689
C   C688      1.0  0.27320  0.31850  0.90830  1.0000 -0.1292980995
C   C689      1.0  0.22900  0.26250  0.89910  1.0000 0.2205055683
C   C690      1.0  0.21910  0.22570  0.91100  1.0000 -0.4910726559
C   C691      1.0  0.33540  0.57520  0.61920  1.0000 -0.4802192597
C   C692      1.0  0.30050  0.53970  0.63840  1.0000 0.1816152373
C   C693      1.0  0.28640  0.54510  0.66170  1.0000 -0.0931649193
C   C694      1.0  0.25440  0.49940  0.67240  1.0000 0.2087814645
C   C695      1.0  0.22960  0.48480  0.69860  1.0000 -0.4983691334
C   C696      1.0  0.15220  0.33690  0.71910  1.0000 -0.4910726559
C   C697      1.0  0.16840  0.32340  0.70280  1.0000 0.1898840689
C   C698      1.0  0.16904  0.29560  0.70944  1.0000 -0.1105637011
C   C699      1.0  0.18750  0.29550  0.68600  1.0000 0.2087814645
C   C700      1.0  0.19890  0.27320  0.68170  1.0000 -0.4802192597
C   C701      1.0  0.29590  0.34720  0.59610  1.0000 -0.4910726559
C   C702      1.0  0.31330  0.39267  0.59417  1.0000 0.1898840689
C   C703      1.0  0.34923  0.43246  0.57969  1.0000 -0.1105637011
C   C704      1.0  0.34701  0.46150  0.58411  1.0000 0.1898840689
C   C705      1.0  0.37770  0.51150  0.57520  1.0000 -0.4600869066
C   C706      1.0  0.53010  0.92410  0.81780  1.0000 -0.472420226
C   C707      1.0  0.52400  0.89020  0.79780  1.0000 0.1898840689
C   C708      1.0  0.56520  0.90400  0.79580  1.0000 -0.09941747
C   C709      1.0  0.53600  0.85730  0.77410  1.0000 0.1898840689
C   C710      1.0  0.55600  0.84600  0.76220  1.0000 -0.4983691334
C   C711      1.0  0.40950  0.66970  0.69480  1.0000 -0.4802192597
C   C712      1.0  0.35680  0.64260  0.69000  1.0000 0.1986761337
C   C713      1.0  0.30400  0.58940  0.67460  1.0000 -0.1193678637
C   C714      1.0  0.27230  0.58690  0.67900  1.0000 0.1986761337
C   C715      1.0  0.21260  0.54190  0.66750  1.0000 -0.4983691334
C   C716      1.0  0.17500  0.61140  0.72380  1.0000 -0.472420226
C   C717      1.0  0.23020  0.66920  0.73920  1.0000 0.1816152373
C   C718      1.0  0.24640  0.70940  0.75600  1.0000 -0.09941747
C   C719      1.0  0.30310  0.75454  0.76804  1.0000 0.1986761337
C   C720      1.0  0.34550  0.81160  0.78850  1.0000 -0.4910726559
C   C721      1.0  0.88670  0.17300  0.00110  1.0000 -0.4983691334
C   C722      1.0  0.84140  0.11760  0.97760  1.0000 0.1986761337
C   C723      1.0  0.80600  0.06830  0.98230  1.0000 -0.1292980995
C   C724      1.0  0.77230  0.03080  0.95370  1.0000 0.1816152373
C   C725      1.0  0.72540  0.97040  0.94440  1.0000 -0.4802192597
C   C726      1.0  0.62290  0.90750  0.84340  1.0000 -0.4910726559
C   C727      1.0  0.64640  0.95220  0.83400  1.0000 0.1898840689
C   C728      1.0  0.62280  0.95250  0.81290  1.0000 -0.1292980995
C   C729      1.0  0.66420  0.00700  0.81360  1.0000 0.1986761337
C   C730      1.0  0.66220  0.03160  0.79600  1.0000 -0.4802192597
C   C731      1.0  0.82410  0.23070  0.85720  1.0000 -0.4802192597
C   C732      1.0  0.85470  0.23820  0.88230  1.0000 0.2087814645
C   C733      1.0  0.89250  0.27880  0.91010  1.0000 -0.1105637011
C   C734      1.0  0.90660  0.26480  0.92440  1.0000 0.1898840689
C   C735      1.0  0.94670  0.29400  0.95450  1.0000 -0.4910726559
C   C736      1.0  0.36150  0.44930  0.51120  1.0000 -0.4802192597
C   C737      1.0  0.39260  0.45680  0.53560  1.0000 0.1898840689
C   C738      1.0  0.38492  0.44609  0.56421  1.0000 -0.1193678637
C   C739      1.0  0.42450  0.45954  0.57664  1.0000 0.1986761337
C   C740      1.0  0.43790  0.45780  0.60710  1.0000 -0.4910726559
C   C741      1.0  0.62350  0.57340  0.62950  1.0000 -0.4983691334
C   C742      1.0  0.64480  0.59690  0.60310  1.0000 0.1986761337
C   C743      1.0  0.69924  0.64084  0.60108  1.0000 -0.1193678637
C   C744      1.0  0.69540  0.64500  0.57180  1.0000 0.1986761337
C   C745      1.0  0.74040  0.68560  0.55680  1.0000 -0.4802192597
C   C746      1.0  0.66970  0.68970  0.46980  1.0000 -0.4910726559
C   C747      1.0  0.61340  0.65070  0.47010  1.0000 0.1898840689
C   C748      1.0  0.57600  0.63810  0.45210  1.0000 -0.1193678637
C   C749      1.0  0.52960  0.59635  0.46075  1.0000 0.1898840689
C   C750      1.0  0.47540  0.56660  0.45100  1.0000 -0.472420226
C   C751      1.0  0.17100  0.17360  0.61340  1.0000 -0.4910726559
C   C752      1.0  0.16020  0.13690  0.59170  1.0000 0.1986761337
C   C753      1.0  0.19050  0.13740  0.59190  1.0000 -0.1105637011
C   C754      1.0  0.16030  0.09310  0.56680  1.0000 0.1816152373
C   C755      1.0  0.17160  0.07350  0.55530  1.0000 -0.4802192597
C   C756      1.0  0.01900  0.49560  0.60400  1.0000 -0.472420226
C   C757      1.0  0.97420  0.45290  0.57590  1.0000 0.1898840689
C   C758      1.0  0.92820  0.39630  0.56930  1.0000 -0.1105637011
C   C759      1.0  0.90050  0.37790  0.53920  1.0000 0.1986761337
C   C760      1.0  0.84830  0.32000  0.51830  1.0000 -0.4802192597
C   C761      1.0  0.82690  0.90390  0.52840  1.0000 -0.4802192597
C   C762      1.0  0.88200  0.95490  0.54950  1.0000 0.1816152373
C   C763      1.0  0.90070  0.98850  0.57580  1.0000 -0.09941747
C   C764      1.0  0.95620  0.02820  0.58660  1.0000 0.1986761337
C   C765      1.0  0.99910  0.07700  0.61510  1.0000 -0.4910726559
C   C766      1.0  0.55300  0.17958  0.89498  1.0000 -0.4910726559
C   C767      1.0  0.55857  0.15937  0.87394  1.0000 0.1816152373
C   C768      1.0  0.54950  0.12159  0.87409  1.0000 -0.1105637011
C   C769      1.0  0.55958  0.11790  0.84708  1.0000 0.1898840689
C   C770      1.0  0.55800  0.08440  0.83460  1.0000 -0.472420226
C   C771      1.0  0.65230  0.15470  0.75860  1.0000 -0.472420226
C   C772      1.0  0.67010  0.19868  0.75238  1.0000 0.1721857336
C   C773      1.0  0.70481  0.23460  0.73541  1.0000 -0.09941747
C   C774      1.0  0.70670  0.26730  0.73780  1.0000 0.1898840689
C   C775      1.0  0.73690  0.31350  0.72500  1.0000 -0.4910726559
C   C776      1.0  0.45640  0.25430  0.83330  1.0000 -0.4910726559
C   C777      1.0  0.39760  0.21080  0.82800  1.0000 0.1898840689
C   C778      1.0  0.36260  0.19901  0.80701  1.0000 -0.1105637011
C   C779      1.0  0.31278  0.15600  0.81218  1.0000 0.1816152373
C   C780      1.0  0.26100  0.12740  0.79760  1.0000 -0.472420226
C   C781      1.0  0.33590  0.51830  0.40520  1.0000 -0.4910726559
C   C782      1.0  0.31860  0.52340  0.38000  1.0000 0.1986761337
C   C783      1.0  0.28170  0.48740  0.35170  1.0000 -0.1193678637
C   C784      1.0  0.28110  0.51280  0.33790  1.0000 0.1816152373
C   C785      1.0  0.24990  0.49500  0.30670  1.0000 -0.472420226
C   C786      1.0  0.15220  0.36500  0.32380  1.0000 -0.4910726559
C   C787      1.0  0.19940  0.38479  0.32459  1.0000 0.1986761337
C   C788      1.0  0.25490  0.43694  0.33684  1.0000 -0.1193678637
C   C789      1.0  0.28010  0.43170  0.33060  1.0000 0.1986761337
C   C790      1.0  0.33940  0.47540  0.33720  1.0000 -0.4983691334
C   C791      1.0  0.57180  0.85830  0.46650  1.0000 -0.509361787
C   C792      1.0  0.53530  0.80300  0.46610  1.0000 0.1898840689
C   C793      1.0  0.54260  0.78800  0.48840  1.0000 -0.09941747
C   C794      1.0  0.49740  0.73130  0.47590  1.0000 0.1898840689
C   C795      1.0  0.48440  0.69340  0.48880  1.0000 -0.472420226
C   C796      1.0  0.74540  0.15340  0.22380  1.0000 -0.4802192597
C   C797      1.0  0.79824  0.18076  0.22900  1.0000 0.1986761337
C   C798      1.0  0.82540  0.18800  0.25360  1.0000 -0.1292980995
C   C799      1.0  0.87190  0.21540  0.24610  1.0000 0.1986761337
C   C800      1.0  0.91620  0.23410  0.26290  1.0000 -0.4910726559
C   C801      1.0  0.79300  0.09790  0.26910  1.0000 -0.4802192597
C   C802      1.0  0.79490  0.12830  0.28700  1.0000 0.1898840689
C   C803      1.0  0.80770  0.16700  0.28030  1.0000 -0.1105637011
C   C804      1.0  0.79955  0.17980  0.30415  1.0000 0.1898840689
C   C805      1.0  0.80720  0.21810  0.30930  1.0000 -0.4910726559
C   C806      1.0  0.81220  0.21190  0.04510  1.0000 -0.4910726559
C   C807      1.0  0.78530  0.18940  0.07010  1.0000 0.1898840689
C   C808      1.0  0.73330  0.15460  0.07210  1.0000 -0.1105637011
C   C809      1.0  0.73510  0.15370  0.10260  1.0000 0.1898840689
C   C810      1.0  0.69020  0.12360  0.11760  1.0000 -0.4983691334
C   C811      1.0  0.22190  0.10980  0.63750  1.0000 -0.4802192597
C   C812      1.0  0.25530  0.16320  0.63390  1.0000 0.1986761337
C   C813      1.0  0.24390  0.17560  0.61310  1.0000 -0.1193678637
C   C814      1.0  0.28960  0.23250  0.62090  1.0000 0.1986761337
C   C815      1.0  0.30130  0.26940  0.60770  1.0000 -0.4983691334
C   C816      1.0  0.41060  0.41950  0.67770  1.0000 -0.4910726559
C   C817      1.0  0.42950  0.42270  0.70900  1.0000 0.2087814645
C   C818      1.0  0.44650  0.45260  0.73730  1.0000 -0.1193678637
C   C819      1.0  0.45721  0.43942  0.75803  1.0000 0.1898840689
C   C820      1.0  0.47560  0.45770  0.79210  1.0000 -0.4910726559
C   C821      1.0  0.44860  0.32770  0.81850  1.0000 -0.4910726559
C   C822      1.0  0.41200  0.28270  0.78970  1.0000 0.1986761337
C   C823      1.0  0.37668  0.22806  0.78414  1.0000 -0.09941747
C   C824      1.0  0.35530  0.20700  0.75310  1.0000 0.1816152373
C   C825      1.0  0.31420  0.15040  0.73380  1.0000 -0.4910726559
C   C826      1.0  0.70610  0.23000  0.66350  1.0000 -0.4910726559
C   C827      1.0  0.73680  0.23930  0.68970  1.0000 0.1816152373
C   C828      1.0  0.73600  0.24120  0.72040  1.0000 -0.09941747
C   C829      1.0  0.77210  0.25010  0.73420  1.0000 0.1898840689
C   C830      1.0  0.79010  0.25830  0.76720  1.0000 -0.472420226
C   C831      1.0  0.96200  0.36800  0.79360  1.0000 -0.4910726559
C   C832      1.0  0.98475  0.38191  0.76586  1.0000 0.1986761337
C   C833      1.0  0.03720  0.42100  0.76460  1.0000 -0.1105637011
C   C834      1.0  0.03250  0.41410  0.73300  1.0000 0.1898840689
C   C835      1.0  0.07600  0.44530  0.71750  1.0000 -0.4802192597
C   C836      1.0  0.99510  0.40260  0.61170  1.0000 -0.4910726559
C   C837      1.0  0.94060  0.37040  0.61040  1.0000 0.1898840689
C   C838      1.0  0.91020  0.36490  0.59170  1.0000 -0.1292980995
C   C839      1.0  0.86340  0.32990  0.60090  1.0000 0.2205055683
C   C840      1.0  0.81470  0.30810  0.58900  1.0000 -0.4910726559
C   C841      1.0  0.45600  0.71620  0.88080  1.0000 -0.4802192597
C   C842      1.0  0.40130  0.66210  0.86160  1.0000 0.1816152373
C   C843      1.0  0.38340  0.62470  0.83830  1.0000 -0.0931649193
C   C844      1.0  0.32700  0.58200  0.82760  1.0000 0.2087814645
C   C845      1.0  0.28620  0.53100  0.80140  1.0000 -0.4910726559
C   C846      1.0  0.11780  0.43310  0.78090  1.0000 -0.4910726559
C   C847      1.0  0.12060  0.46560  0.79720  1.0000 0.1898840689
C   C848      1.0  0.08616  0.45960  0.79056  1.0000 -0.1105637011
C   C849      1.0  0.10950  0.50150  0.81400  1.0000 0.2087814645
C   C850      1.0  0.09150  0.51720  0.81830  1.0000 -0.4802192597
C   C851      1.0  0.25110  0.69980  0.90390  1.0000 -0.4910726559
C   C852      1.0  0.29850  0.71913  0.90583  1.0000 0.1898840689
C   C853      1.0  0.35277  0.76954  0.92031  1.0000 -0.1105637011
C   C854      1.0  0.37739  0.76290  0.91589  1.0000 0.1898840689
C   C855      1.0  0.43630  0.80250  0.92480  1.0000 -0.4600869066
C   C856      1.0  0.60630  0.71230  0.68220  1.0000 -0.472420226
C   C857      1.0  0.59240  0.72620  0.70220  1.0000 0.1898840689
C   C858      1.0  0.60820  0.76940  0.70420  1.0000 -0.09941747
C   C859      1.0  0.58320  0.76190  0.72590  1.0000 0.1898840689
C   C860      1.0  0.58380  0.79380  0.73780  1.0000 -0.4983691334
C   C861      1.0  0.47490  0.71470  0.80520  1.0000 -0.4802192597
C   C862      1.0  0.45260  0.66680  0.81000  1.0000 0.1986761337
C   C863      1.0  0.41480  0.62940  0.82540  1.0000 -0.1193678637
C   C864      1.0  0.40790  0.59330  0.82100  1.0000 0.1986761337
C   C865      1.0  0.37440  0.54510  0.83250  1.0000 -0.4983691334
C   C866      1.0  0.38760  0.45120  0.77620  1.0000 -0.472420226
C   C867      1.0  0.43000  0.49100  0.76080  1.0000 0.1816152373
C   C868      1.0  0.45340  0.49040  0.74400  1.0000 -0.09941747
C   C869      1.0  0.48650  0.53506  0.73196  1.0000 0.1986761337
C   C870      1.0  0.52310  0.55700  0.71150  1.0000 -0.4910726559
C   C871      1.0  0.67190  0.88560  0.49890  1.0000 -0.4983691334
C   C872      1.0  0.64000  0.86380  0.52240  1.0000 0.1986761337
C   C873      1.0  0.58600  0.82370  0.51770  1.0000 -0.1292980995
C   C874      1.0  0.57710  0.81860  0.54630  1.0000 0.1816152373
C   C875      1.0  0.52600  0.78100  0.55560  1.0000 -0.4802192597
C   C876      1.0  0.56410  0.77950  0.65660  1.0000 -0.4910726559
C   C877      1.0  0.61820  0.81240  0.66600  1.0000 0.1898840689
C   C878      1.0  0.63960  0.80990  0.68710  1.0000 -0.1292980995
C   C879      1.0  0.69340  0.85060  0.68640  1.0000 0.1986761337
C   C880      1.0  0.73560  0.86620  0.70400  1.0000 -0.4802192597
C   C881      1.0  0.87350  0.96690  0.64280  1.0000 -0.4802192597
C   C882      1.0  0.85590  0.97240  0.61770  1.0000 0.2087814645
C   C883      1.0  0.86870  0.98240  0.58990  1.0000 -0.1105637011
C   C884      1.0  0.84040  0.98220  0.57560  1.0000 0.1898840689
C   C885      1.0  0.83950  0.99220  0.54550  1.0000 -0.4910726559
C   C886      1.0  0.43810  0.85030  0.98880  1.0000 -0.4802192597
C   C887      1.0  0.42120  0.85700  0.96440  1.0000 0.1898840689
C   C888      1.0  0.38188  0.82071  0.93579  1.0000 -0.1193678637
C   C889      1.0  0.38290  0.84786  0.92336  1.0000 0.1986761337
C   C890      1.0  0.35070  0.83080  0.89290  1.0000 -0.4910726559
C   C891      1.0  0.44390  0.99400  0.87050  1.0000 -0.4983691334
C   C892      1.0  0.49380  0.04170  0.89690  1.0000 0.1986761337
C   C893      1.0  0.53976  0.09816  0.89892  1.0000 -0.1193678637
C   C894      1.0  0.57320  0.12360  0.92820  1.0000 0.1986761337
C   C895      1.0  0.62880  0.18360  0.94320  1.0000 -0.4802192597
C   C896      1.0  0.71990  0.19990  0.03020  1.0000 -0.4910726559
C   C897      1.0  0.68060  0.14330  0.02990  1.0000 0.1898840689
C   C898      1.0  0.68600  0.12390  0.04790  1.0000 -0.1193678637
C   C899      1.0  0.63560  0.06885  0.03925  1.0000 0.1898840689
C   C900      1.0  0.61560  0.02440  0.04900  1.0000 -0.472420226
C   C901      1.0  0.05760  0.67100  0.49740  1.0000 -0.4910726559
C   C902      1.0  0.06850  0.66020  0.52330  1.0000 0.1986761337
C   C903      1.0  0.09860  0.69050  0.55310  1.0000 -0.1105637011
C   C904      1.0  0.09350  0.66030  0.56720  1.0000 0.1816152373
C   C905      1.0  0.11630  0.67160  0.59810  1.0000 -0.4802192597
C   C906      1.0  0.91500  0.51900  0.02340  1.0000 -0.472420226
C   C907      1.0  0.89830  0.47420  0.02130  1.0000 0.1898840689
C   C908      1.0  0.85890  0.42820  0.03190  1.0000 -0.1105637011
C   C909      1.0  0.86130  0.40050  0.02260  1.0000 0.1986761337
C   C910      1.0  0.83000  0.34830  0.02830  1.0000 -0.4910726559
C   C911      1.0  0.79850  0.32690  0.42300  1.0000 -0.4802192597
C   C912      1.0  0.83250  0.38200  0.42710  1.0000 0.1816152373
C   C913      1.0  0.82490  0.40070  0.41220  1.0000 -0.09941747
C   C914      1.0  0.86960  0.45620  0.42800  1.0000 0.1986761337
C   C915      1.0  0.88400  0.49910  0.42210  1.0000 -0.4910726559
C   C916      1.0  0.15802  0.05300  0.87342  1.0000 -0.4910726559
C   C917      1.0  0.18463  0.05857  0.89920  1.0000 0.1816152373
C   C918      1.0  0.17541  0.04950  0.92791  1.0000 -0.1105637011
C   C919      1.0  0.21250  0.05958  0.94168  1.0000 0.1898840689
C   C920      1.0  0.22340  0.05800  0.97360  1.0000 -0.472420226
C   C921      1.0  0.39370  0.15230  0.99760  1.0000 -0.472420226
C   C922      1.0  0.41772  0.17010  0.97142  1.0000 0.1721857336
C   C923      1.0  0.46940  0.20481  0.97021  1.0000 -0.09941747
C   C924      1.0  0.46890  0.20670  0.93940  1.0000 0.1898840689
C   C925      1.0  0.51190  0.23690  0.92340  1.0000 -0.4910726559
C   C926      1.0  0.12310  0.95640  0.70210  1.0000 -0.4910726559
C   C927      1.0  0.06960  0.89760  0.68680  1.0000 0.1898840689
C   C928      1.0  0.05559  0.86260  0.66359  1.0000 -0.1105637011
C   C929      1.0  0.00060  0.81278  0.65678  1.0000 0.1816152373
C   C930      1.0  0.96340  0.76100  0.63360  1.0000 -0.472420226
C   C931      1.0  0.43070  0.83590  0.31760  1.0000 -0.4910726559
C   C932      1.0  0.43860  0.81860  0.29520  1.0000 0.1986761337
C   C933      1.0  0.43000  0.78170  0.29430  1.0000 -0.1292980995
C   C934      1.0  0.44320  0.78110  0.26830  1.0000 0.1816152373
C   C935      1.0  0.44320  0.74990  0.25490  1.0000 -0.472420226
C   C936      1.0  0.32840  0.65220  0.28720  1.0000 -0.4910726559
C   C937      1.0  0.37481  0.69940  0.31461  1.0000 0.1986761337
C   C938      1.0  0.41806  0.75490  0.31796  1.0000 -0.1193678637
C   C939      1.0  0.44950  0.78010  0.34840  1.0000 0.1986761337
C   C940      1.0  0.50220  0.83940  0.36400  1.0000 -0.4983691334
C   C941      1.0  0.60530  0.07180  0.21350  1.0000 -0.509361787
C   C942      1.0  0.56920  0.03530  0.23230  1.0000 0.1898840689
C   C943      1.0  0.55420  0.04260  0.25460  1.0000 -0.09941747
C   C944      1.0  0.52150  0.99740  0.26610  1.0000 0.1898840689
C   C945      1.0  0.49560  0.98440  0.29100  1.0000 -0.472420226
C   C946      1.0  0.02160  0.24540  0.09200  1.0000 -0.4802192597
C   C947      1.0  0.06924  0.29824  0.11748  1.0000 0.1986761337
C   C948      1.0  0.07180  0.32540  0.13740  1.0000 -0.1292980995
C   C949      1.0  0.12580  0.37190  0.15650  1.0000 0.1986761337
C   C950      1.0  0.15330  0.41620  0.18210  1.0000 -0.4910726559
C   C951      1.0  0.02390  0.29300  0.19510  1.0000 -0.4802192597
C   C952      1.0  0.00790  0.29490  0.16660  1.0000 0.1898840689
C   C953      1.0  0.02740  0.30770  0.14070  1.0000 -0.1105637011
C   C954      1.0  0.99540  0.29955  0.11975  1.0000 0.1898840689
C   C955      1.0  0.99790  0.30720  0.08910  1.0000 -0.4910726559
C   C956      1.0  0.26710  0.31220  0.10030  1.0000 -0.4910726559
C   C957      1.0  0.21520  0.28530  0.09590  1.0000 0.1898840689
C   C958      1.0  0.16120  0.23330  0.07870  1.0000 -0.1105637011
C   C959      1.0  0.13250  0.23510  0.08140  1.0000 0.1898840689
C   C960      1.0  0.07260  0.19020  0.06660  1.0000 -0.4983691334
C   C961      1.0  0.08440  0.72190  0.61210  1.0000 -0.4802192597
C   C962      1.0  0.12140  0.75530  0.59210  1.0000 0.1986761337
C   C963      1.0  0.13080  0.74390  0.56830  1.0000 -0.1193678637
C   C964      1.0  0.16870  0.78960  0.55710  1.0000 0.1986761337
C   C965      1.0  0.19360  0.80130  0.53190  1.0000 -0.4983691334
C   C966      1.0  0.23290  0.91060  0.49110  1.0000 -0.4910726559
C   C967      1.0  0.22050  0.92950  0.50680  1.0000 0.2087814645
C   C968      1.0  0.20920  0.94650  0.49390  1.0000 -0.1193678637
C   C969      1.0  0.19918  0.95721  0.51779  1.0000 0.1898840689
C   C970      1.0  0.18350  0.97560  0.51790  1.0000 -0.4910726559
C   C971      1.0  0.13010  0.94860  0.62090  1.0000 -0.4910726559
C   C972      1.0  0.12230  0.91200  0.62930  1.0000 0.2087814645
C   C973      1.0  0.09254  0.87668  0.64862  1.0000 -0.09941747
C   C974      1.0  0.10220  0.85530  0.64830  1.0000 0.1816152373
C   C975      1.0  0.08040  0.81420  0.66380  1.0000 -0.4910726559
C   C976      1.0  0.54260  0.20610  0.97610  1.0000 -0.4910726559
C   C977      1.0  0.54710  0.23680  0.99750  1.0000 0.1816152373
C   C978      1.0  0.51560  0.23600  0.99480  1.0000 -0.09941747
C   C979      1.0  0.53790  0.27210  0.02200  1.0000 0.1898840689
C   C980      1.0  0.52290  0.29010  0.03180  1.0000 -0.472420226
C   C981      1.0  0.66840  0.46200  0.09400  1.0000 -0.4910726559
C   C982      1.0  0.71889  0.48475  0.10284  1.0000 0.1986761337
C   C983      1.0  0.77260  0.53720  0.11620  1.0000 -0.1105637011
C   C984      1.0  0.79950  0.53250  0.11840  1.0000 0.1898840689
C   C985      1.0  0.85850  0.57600  0.13070  1.0000 -0.4802192597
C   C986      1.0  0.88340  0.49510  0.09250  1.0000 -0.4910726559
C   C987      1.0  0.83020  0.44060  0.07020  1.0000 0.1898840689
C   C988      1.0  0.81850  0.41020  0.04530  1.0000 -0.1292980995
C   C989      1.0  0.76250  0.36340  0.03350  1.0000 0.2205055683
C   C990      1.0  0.72570  0.31470  0.00660  1.0000 -0.4910726559
C   C991      1.0  0.07520  0.95600  0.23980  1.0000 -0.4802192597
C   C992      1.0  0.03970  0.90130  0.23920  1.0000 0.1816152373
C   C993      1.0  0.04510  0.88340  0.25870  1.0000 -0.0931649193
C   C994      1.0  0.99940  0.82700  0.24500  1.0000 0.2087814645
C   C995      1.0  0.98480  0.78620  0.25520  1.0000 -0.4983691334
C   C996      1.0  0.83690  0.61780  0.18470  1.0000 -0.4910726559
C   C997      1.0  0.82340  0.62060  0.15500  1.0000 0.1898840689
C   C998      1.0  0.79560  0.58616  0.12656  1.0000 -0.1105637011
C   C999      1.0  0.79550  0.60950  0.10800  1.0000 0.2087814645
C   C1000     1.0  0.77320  0.59150  0.07430  1.0000 -0.4802192597
C   C1001     1.0  0.84720  0.75110  0.05130  1.0000 -0.4983691334
C   C1002     1.0  0.89267  0.79850  0.07937  1.0000 0.1898840689
C   C1003     1.0  0.93246  0.85277  0.08323  1.0000 -0.1105637011
C   C1004     1.0  0.96150  0.87739  0.11449  1.0000 0.1898840689
C   C1005     1.0  0.01150  0.93630  0.13380  1.0000 -0.4600869066
C   C1006     1.0  0.42410  0.10630  0.39400  1.0000 -0.472420226
C   C1007     1.0  0.39020  0.09240  0.36620  1.0000 0.1898840689
C   C1008     1.0  0.40400  0.10820  0.33880  1.0000 -0.09941747
C   C1009     1.0  0.35730  0.08320  0.32130  1.0000 0.1898840689
C   C1010     1.0  0.34600  0.08380  0.29000  1.0000 -0.4983691334
C   C1011     1.0  0.16970  0.97490  0.26020  1.0000 -0.4802192597
C   C1012     1.0  0.14260  0.95260  0.28580  1.0000 0.1986761337
C   C1013     1.0  0.08940  0.91480  0.28540  1.0000 -0.1193678637
C   C1014     1.0  0.08690  0.90790  0.31460  1.0000 0.1986761337
C   C1015     1.0  0.04190  0.87440  0.32930  1.0000 -0.4983691334
C   C1016     1.0  0.11140  0.88760  0.43640  1.0000 -0.4802192597
C   C1017     1.0  0.16920  0.93000  0.43900  1.0000 0.1816152373
C   C1018     1.0  0.20940  0.95340  0.46300  1.0000 -0.09941747
C   C1019     1.0  0.25454  0.98650  0.45144  1.0000 0.1986761337
C   C1020     1.0  0.31160  0.02310  0.46610  1.0000 -0.4910726559
C   C1021     1.0  0.67300  0.17190  0.28630  1.0000 -0.4983691334
C   C1022     1.0  0.61760  0.14000  0.27620  1.0000 0.1986761337
C   C1023     1.0  0.56830  0.08600  0.26230  1.0000 -0.1292980995
C   C1024     1.0  0.53080  0.07710  0.25850  1.0000 0.1816152373
C   C1025     1.0  0.47040  0.02600  0.24500  1.0000 -0.4802192597
C   C1026     1.0  0.40750  0.06410  0.28460  1.0000 -0.4910726559
C   C1027     1.0  0.45220  0.11820  0.30580  1.0000 0.1898840689
C   C1028     1.0  0.45250  0.13960  0.32970  1.0000 -0.1292980995
C   C1029     1.0  0.50700  0.19340  0.34280  1.0000 0.1986761337
C   C1030     1.0  0.53160  0.23560  0.36940  1.0000 -0.4802192597
C   C1031     1.0  0.73070  0.37350  0.40660  1.0000 -0.4802192597
C   C1032     1.0  0.73820  0.35590  0.38350  1.0000 0.2087814645
C   C1033     1.0  0.77880  0.36870  0.38630  1.0000 -0.1105637011
C   C1034     1.0  0.76480  0.34040  0.35820  1.0000 0.1898840689
C   C1035     1.0  0.79400  0.33950  0.34730  1.0000 -0.4910726559
C   C1036     1.0  0.94930  0.93810  0.08780  1.0000 -0.4802192597
C   C1037     1.0  0.95680  0.92120  0.06420  1.0000 0.1898840689
C   C1038     1.0  0.94609  0.88188  0.06117  1.0000 -0.1105637011
C   C1039     1.0  0.95954  0.88290  0.03504  1.0000 0.1986761337
C   C1040     1.0  0.95780  0.85070  0.01990  1.0000 -0.4910726559
C   C1041     1.0  0.07340  0.94390  0.94990  1.0000 -0.4983691334
C   C1042     1.0  0.09690  0.99380  0.95210  1.0000 0.1986761337
C   C1043     1.0  0.14084  0.03976  0.94160  1.0000 -0.1193678637
C   C1044     1.0  0.14500  0.07320  0.94960  1.0000 0.1986761337
C   C1045     1.0  0.18560  0.12880  0.94520  1.0000 -0.4802192597
C   C1046     1.0  0.18970  0.21990  0.02000  1.0000 -0.4910726559
C   C1047     1.0  0.15070  0.18060  0.03730  1.0000 0.1898840689
C   C1048     1.0  0.13810  0.18600  0.06210  1.0000 -0.1193678637
C   C1049     1.0  0.09635  0.13560  0.06675  1.0000 0.1898840689
C   C1050     1.0  0.06660  0.11560  0.09120  1.0000 -0.472420226
C   C1051     1.0  0.67360  0.56020  0.00260  1.0000 -0.4910726559
C   C1052     1.0  0.63690  0.54520  0.97670  1.0000 0.1986761337
C   C1053     1.0  0.63740  0.54550  0.94690  1.0000 -0.1105637011
C   C1054     1.0  0.59310  0.52630  0.93280  1.0000 0.1816152373
C   C1055     1.0  0.57350  0.51820  0.90190  1.0000 -0.4802192597
C   C1056     1.0  0.99560  0.89160  0.47660  1.0000 -0.472420226
C   C1057     1.0  0.95290  0.87700  0.47870  1.0000 0.1898840689
C   C1058     1.0  0.89630  0.82700  0.46810  1.0000 -0.1105637011
C   C1059     1.0  0.87790  0.83870  0.47740  1.0000 0.1986761337
C   C1060     1.0  0.82000  0.80170  0.47170  1.0000 -0.4802192597
C   C1061     1.0  0.40390  0.37550  0.07700  1.0000 -0.4802192597
C   C1062     1.0  0.45490  0.40540  0.07290  1.0000 0.1816152373
C   C1063     1.0  0.48850  0.41270  0.08780  1.0000 -0.09941747
C   C1064     1.0  0.52820  0.44160  0.07200  1.0000 0.1986761337
C   C1065     1.0  0.57700  0.46190  0.07790  1.0000 -0.4910726559
C   C1066     1.0  0.67958  0.28460  0.62658  1.0000 -0.4910726559
C   C1067     1.0  0.65937  0.28543  0.60080  1.0000 0.1816152373
C   C1068     1.0  0.62159  0.24750  0.57209  1.0000 -0.1105637011
C   C1069     1.0  0.61790  0.27082  0.55832  1.0000 0.1898840689
C   C1070     1.0  0.58440  0.24980  0.52640  1.0000 -0.472420226
C   C1071     1.0  0.65470  0.39610  0.50240  1.0000 -0.472420226
C   C1072     1.0  0.69868  0.44630  0.52858  1.0000 0.1721857336
C   C1073     1.0  0.73460  0.49919  0.52979  1.0000 -0.09941747
C   C1074     1.0  0.76730  0.52950  0.56060  1.0000 0.1898840689
C   C1075     1.0  0.81350  0.58850  0.57660  1.0000 -0.4910726559
C   C1076     1.0  0.75430  0.42100  0.79790  1.0000 -0.4910726559
C   C1077     1.0  0.71080  0.38280  0.81320  1.0000 0.1898840689
C   C1078     1.0  0.69901  0.39200  0.83641  1.0000 -0.1105637011
C   C1079     1.0  0.65600  0.34382  0.84322  1.0000 0.1816152373
C   C1080     1.0  0.62740  0.32980  0.86640  1.0000 -0.472420226
C   C1081     1.0  0.01830  0.11310  0.18240  1.0000 -0.4910726559
C   C1082     1.0  0.02340  0.14340  0.20480  1.0000 0.1986761337
C   C1083     1.0  0.98740  0.13570  0.20570  1.0000 -0.1193678637
C   C1084     1.0  0.01280  0.17490  0.23170  1.0000 0.1816152373
C   C1085     1.0  0.99500  0.18830  0.24510  1.0000 -0.4802192597
C   C1086     1.0  0.86500  0.04120  0.21280  1.0000 -0.4910726559
C   C1087     1.0  0.88479  0.06020  0.18539  1.0000 0.1986761337
C   C1088     1.0  0.93694  0.10010  0.18204  1.0000 -0.1193678637
C   C1089     1.0  0.93170  0.10110  0.15160  1.0000 0.1986761337
C   C1090     1.0  0.97540  0.13820  0.13600  1.0000 -0.4983691334
C   C1091     1.0  0.35830  0.39180  0.28650  1.0000 -0.509361787
C   C1092     1.0  0.30300  0.33690  0.26770  1.0000 0.1898840689
C   C1093     1.0  0.28800  0.29960  0.24540  1.0000 -0.09941747
C   C1094     1.0  0.23130  0.25540  0.23390  1.0000 0.1898840689
C   C1095     1.0  0.19340  0.20460  0.20900  1.0000 -0.472420226
C   C1096     1.0  0.65340  0.92960  0.40800  1.0000 -0.4802192597
C   C1097     1.0  0.68076  0.95176  0.38252  1.0000 0.1986761337
C   C1098     1.0  0.68800  0.93440  0.36260  1.0000 -0.1292980995
C   C1099     1.0  0.71540  0.96930  0.34350  1.0000 0.1986761337
C   C1100     1.0  0.73410  0.97120  0.31790  1.0000 -0.4910726559
C   C1101     1.0  0.59790  0.82880  0.30490  1.0000 -0.4802192597
C   C1102     1.0  0.62830  0.84130  0.33340  1.0000 0.1898840689
C   C1103     1.0  0.66700  0.88670  0.35930  1.0000 -0.1105637011
C   C1104     1.0  0.67980  0.87565  0.38025  1.0000 0.1898840689
C   C1105     1.0  0.71810  0.90880  0.41090  1.0000 -0.4910726559
C   C1106     1.0  0.71190  0.16680  0.39970  1.0000 -0.4910726559
C   C1107     1.0  0.68940  0.11930  0.40410  1.0000 0.1898840689
C   C1108     1.0  0.65460  0.08250  0.42130  1.0000 -0.1105637011
C   C1109     1.0  0.65370  0.05110  0.41860  1.0000 0.1898840689
C   C1110     1.0  0.62360  0.00600  0.43340  1.0000 -0.4983691334
C   C1111     1.0  0.60980  0.47230  0.88790  1.0000 -0.4802192597
C   C1112     1.0  0.66320  0.52930  0.90790  1.0000 0.1986761337
C   C1113     1.0  0.67560  0.56250  0.93170  1.0000 -0.1193678637
C   C1114     1.0  0.73250  0.61160  0.94290  1.0000 0.1986761337
C   C1115     1.0  0.76940  0.66170  0.96810  1.0000 -0.4983691334
C   C1116     1.0  0.91950  0.74180  0.00890  1.0000 -0.4910726559
C   C1117     1.0  0.92270  0.71370  0.99320  1.0000 0.2087814645
C   C1118     1.0  0.95260  0.71530  0.00610  1.0000 -0.1193678637
C   C1119     1.0  0.93942  0.68139  0.98221  1.0000 0.1898840689
C   C1120     1.0  0.95770  0.66560  0.98210  1.0000 -0.4910726559
C   C1121     1.0  0.82770  0.50920  0.87910  1.0000 -0.4910726559
C   C1122     1.0  0.78270  0.49300  0.87070  1.0000 0.2087814645
C   C1123     1.0  0.72806  0.44392  0.85138  1.0000 -0.09941747
C   C1124     1.0  0.70700  0.45390  0.85170  1.0000 0.1816152373
C   C1125     1.0  0.65040  0.41660  0.83620  1.0000 -0.4910726559
C   C1126     1.0  0.73000  0.56650  0.52390  1.0000 -0.4910726559
C   C1127     1.0  0.73930  0.54960  0.50250  1.0000 0.1816152373
C   C1128     1.0  0.74120  0.52080  0.50520  1.0000 -0.09941747
C   C1129     1.0  0.75010  0.51590  0.47800  1.0000 0.1898840689
C   C1130     1.0  0.75830  0.49110  0.46820  1.0000 -0.472420226
C   C1131     1.0  0.86800  0.57440  0.40600  1.0000 -0.4910726559
C   C1132     1.0  0.88191  0.61605  0.39716  1.0000 0.1986761337
C   C1133     1.0  0.92100  0.65640  0.38380  1.0000 -0.1105637011
C   C1134     1.0  0.91410  0.68110  0.38160  1.0000 0.1898840689
C   C1135     1.0  0.94530  0.72780  0.36930  1.0000 -0.4802192597
C   C1136     1.0  0.90260  0.79090  0.40750  1.0000 -0.4910726559
C   C1137     1.0  0.87040  0.76000  0.42980  1.0000 0.1898840689
C   C1138     1.0  0.86490  0.77320  0.45470  1.0000 -0.1292980995
C   C1139     1.0  0.82990  0.72900  0.46650  1.0000 0.2205055683
C   C1140     1.0  0.80810  0.71910  0.49340  1.0000 -0.4910726559
C   C1141     1.0  0.21620  0.83540  0.26020  1.0000 -0.4802192597
C   C1142     1.0  0.16210  0.80050  0.26080  1.0000 0.1816152373
C   C1143     1.0  0.12470  0.78640  0.24130  1.0000 -0.0931649193
C   C1144     1.0  0.08200  0.75440  0.25500  1.0000 0.2087814645
C   C1145     1.0  0.03100  0.72960  0.24480  1.0000 -0.4910726559
C   C1146     1.0  0.93310  0.65220  0.31530  1.0000 -0.4910726559
C   C1147     1.0  0.96560  0.66840  0.34500  1.0000 0.1898840689
C   C1148     1.0  0.95960  0.66904  0.37344  1.0000 -0.1105637011
C   C1149     1.0  0.00150  0.68750  0.39200  1.0000 0.2087814645
C   C1150     1.0  0.01720  0.69890  0.42570  1.0000 -0.4802192597
C   C1151     1.0  0.19980  0.79590  0.44870  1.0000 -0.4910726559
C   C1152     1.0  0.21913  0.81330  0.42063  1.0000 0.1898840689
C   C1153     1.0  0.26954  0.84923  0.41677  1.0000 -0.1105637011
C   C1154     1.0  0.26290  0.84701  0.38551  1.0000 0.1898840689
C   C1155     1.0  0.30250  0.87770  0.36620  1.0000 -0.4600869066
C   C1156     1.0  0.21230  0.03010  0.10600  1.0000 -0.472420226
C   C1157     1.0  0.22620  0.02400  0.13380  1.0000 0.1898840689
C   C1158     1.0  0.26940  0.06520  0.16120  1.0000 -0.09941747
C   C1159     1.0  0.26190  0.03600  0.17870  1.0000 0.1898840689
C   C1160     1.0  0.29380  0.05600  0.21000  1.0000 -0.4983691334
C   C1161     1.0  0.21470  0.90950  0.23980  1.0000 -0.4802192597
C   C1162     1.0  0.16680  0.85680  0.21420  1.0000 0.1986761337
C   C1163     1.0  0.12940  0.80400  0.21460  1.0000 -0.1193678637
C   C1164     1.0  0.09330  0.77230  0.18540  1.0000 0.1986761337
C   C1165     1.0  0.04510  0.71260  0.17070  1.0000 -0.4983691334
C   C1166     1.0  0.95120  0.67500  0.06360  1.0000 -0.472420226
C   C1167     1.0  0.99100  0.73020  0.06100  1.0000 0.1816152373
C   C1168     1.0  0.99040  0.74640  0.03700  1.0000 -0.09941747
C   C1169     1.0  0.03506  0.80310  0.04856  1.0000 0.1986761337
C   C1170     1.0  0.05700  0.84550  0.03390  1.0000 -0.4983691334
C   C1171     1.0  0.38560  0.38670  0.21370  1.0000 -0.4983691334
C   C1172     1.0  0.36380  0.34140  0.22380  1.0000 0.1986761337
C   C1173     1.0  0.32370  0.30600  0.23770  1.0000 -0.1292980995
C   C1174     1.0  0.31860  0.27230  0.24150  1.0000 0.1816152373
C   C1175     1.0  0.28100  0.22540  0.25500  1.0000 -0.4802192597
C   C1176     1.0  0.27950  0.12290  0.21540  1.0000 -0.4910726559
C   C1177     1.0  0.31240  0.14640  0.19420  1.0000 0.1898840689
C   C1178     1.0  0.30990  0.12280  0.17030  1.0000 -0.1292980995
C   C1179     1.0  0.35060  0.16420  0.15720  1.0000 0.1986761337
C   C1180     1.0  0.36620  0.16220  0.13060  1.0000 -0.4802192597
C   C1181     1.0  0.46690  0.32410  0.09340  1.0000 -0.4802192597
C   C1182     1.0  0.47240  0.35470  0.11650  1.0000 0.2087814645
C   C1183     1.0  0.48240  0.39250  0.11370  1.0000 -0.1105637011
C   C1184     1.0  0.48220  0.40660  0.14180  1.0000 0.1898840689
C   C1185     1.0  0.49220  0.44670  0.15270  1.0000 -0.4910726559
C   C1186     1.0  0.35030  0.86150  0.41220  1.0000 -0.4802192597
C   C1187     1.0  0.35700  0.89260  0.43580  1.0000 0.1898840689
C   C1188     1.0  0.32071  0.88492  0.43883  1.0000 -0.1193678637
C   C1189     1.0  0.34786  0.92450  0.46496  1.0000 0.1986761337
C   C1190     1.0  0.33080  0.93790  0.48010  1.0000 -0.4910726559
C   C1191     1.0  0.49400  0.12350  0.55010  1.0000 -0.4983691334
C   C1192     1.0  0.54170  0.14480  0.54790  1.0000 0.1986761337
C   C1193     1.0  0.59816  0.19924  0.55840  1.0000 -0.1193678637
C   C1194     1.0  0.62360  0.19540  0.55040  1.0000 0.1986761337
C   C1195     1.0  0.68360  0.24040  0.55480  1.0000 -0.4802192597
C   C1196     1.0  0.69990  0.16970  0.48000  1.0000 -0.4910726559
C   C1197     1.0  0.64330  0.11340  0.46270  1.0000 0.1898840689
C   C1198     1.0  0.62390  0.07600  0.43790  1.0000 -0.1193678637
C   C1199     1.0  0.56885  0.02960  0.43325  1.0000 0.1898840689
C   C1200     1.0  0.52440  0.97540  0.40880  1.0000 -0.4802192597
N   N1        1.0  0.97548  0.45700  0.07028  1.0000 -0.2010101495
N   N2        1.0  0.98780  0.44250  0.05430  1.0000 -0.2192784283
N   N3        1.0  0.58430  0.57770  0.05160  1.0000 -0.2192784283
N   N4        1.0  0.60837  0.60038  0.02835  1.0000 -0.2192784283
N   N5        1.0  0.07076  0.62010  0.04406  1.0000 -0.2192784283
N   N6        1.0  0.04772  0.59720  0.06752  1.0000 -0.2010101495
N   N7        1.0  0.17200  0.27538  0.34838  1.0000 -0.1919349317
N   N8        1.0  0.18176  0.25905  0.33141  1.0000 -0.2192784283
N   N9        1.0  0.05471  0.11156  0.26467  1.0000 -0.2010101495
N   N10       1.0  0.00388  0.08024  0.25572  1.0000 -0.1919349317
N   N11       1.0  0.16932  0.47649  0.34501  1.0000 -0.2010101495
N   N12       1.0  0.19529  0.52025  0.33534  1.0000 -0.2192784283
N   N13       1.0  0.31729  0.04595  0.88384  1.0000 -0.1919349317
N   N14       1.0  0.29603  0.04197  0.85760  1.0000 -0.2192784283
N   N15       1.0  0.45959  0.11875  0.81174  1.0000 -0.209244111
N   N16       1.0  0.43450  0.07253  0.81523  1.0000 -0.2010101495
N   N17       1.0  0.18360  0.95217  0.94317  1.0000 -0.209244111
N   N18       1.0  0.23360  0.98120  0.94900  1.0000 -0.2192784283
N   N19       1.0  0.50645  0.38268  0.70793  1.0000 -0.2275419871
N   N20       1.0  0.49598  0.34775  0.71853  1.0000 -0.209244111
N   N21       1.0  0.69546  0.53417  0.81303  1.0000 -0.2192784283
N   N22       1.0  0.67433  0.54176  0.82369  1.0000 -0.209244111
N   N23       1.0  0.39347  0.28445  0.59812  1.0000 -0.1820727913
N   N24       1.0  0.43455  0.33450  0.61765  1.0000 -0.1919349317
N   N25       1.0  0.94128  0.34676  0.15284  1.0000 -0.2192784283
N   N26       1.0  0.89180  0.31861  0.14501  1.0000 -0.209244111
N   N27       1.0  0.81628  0.28076  0.21084  1.0000 -0.2192784283
N   N28       1.0  0.83676  0.29359  0.24175  1.0000 -0.209244111
N   N29       1.0  0.97177  0.35307  0.26264  1.0000 -0.209244111
N   N30       1.0  0.99609  0.36551  0.23940  1.0000 -0.2192784283
N   N31       1.0  0.93722  0.91236  0.18618  1.0000 -0.209244111
N   N32       1.0  0.95861  0.91889  0.21370  1.0000 -0.2192784283
N   N33       1.0  0.88552  0.78778  0.23850  1.0000 -0.1919349317
N   N34       1.0  0.84540  0.73800  0.21760  1.0000 -0.209244111
N   N35       1.0  0.78994  0.71695  0.12949  1.0000 -0.2192784283
N   N36       1.0  0.80880  0.75948  0.12348  1.0000 -0.1919349317
N   N37       1.0  0.72074  0.50594  0.36328  1.0000 -0.2192784283
N   N38       1.0  0.75020  0.53102  0.34202  1.0000 -0.2010101495
N   N39       1.0  0.81611  0.66055  0.32206  1.0000 -0.209244111
N   N40       1.0  0.80398  0.67839  0.33257  1.0000 -0.2192784283
N   N41       1.0  0.70816  0.60274  0.39230  1.0000 -0.209244111
N   N42       1.0  0.68851  0.56057  0.39948  1.0000 -0.2275419871
N   N43       1.0  0.52400  0.15960  0.22080  1.0000 -0.2192784283
N   N44       1.0  0.51700  0.17997  0.23517  1.0000 -0.209244111
N   N45       1.0  0.64347  0.33023  0.29730  1.0000 -0.2192784283
N   N46       1.0  0.69640  0.36498  0.30418  1.0000 -0.209244111
N   N47       1.0  0.72561  0.31110  0.25911  1.0000 -0.209244111
N   N48       1.0  0.68097  0.25853  0.24150  1.0000 -0.209244111
N   N49       1.0  0.16946  0.88837  0.05243  1.0000 -0.2010101495
N   N50       1.0  0.21120  0.94190  0.06750  1.0000 -0.209244111
N   N51       1.0  0.30005  0.99513  0.15258  1.0000 -0.209244111
N   N52       1.0  0.29102  0.96318  0.16600  1.0000 -0.209244111
N   N53       1.0  0.15508  0.79825  0.11933  1.0000 -0.2010101495
N   N54       1.0  0.12220  0.78170  0.09350  1.0000 -0.209244111
N   N55       1.0  0.56569  0.52507  0.46856  1.0000 -0.2192784283
N   N56       1.0  0.54524  0.52266  0.44230  1.0000 -0.1919349317
N   N57       1.0  0.38729  0.42252  0.42381  1.0000 -0.2010101495
N   N58       1.0  0.35570  0.39227  0.44257  1.0000 -0.209244111
N   N59       1.0  0.41105  0.38282  0.51167  1.0000 -0.1919349317
N   N60       1.0  0.46256  0.41577  0.51733  1.0000 -0.2010101495
N   N61       1.0  0.88672  0.90520  0.42972  1.0000 -0.2010101495
N   N62       1.0  0.88820  0.93350  0.44570  1.0000 -0.2192784283
N   N63       1.0  0.02610  0.53270  0.44840  1.0000 -0.2192784283
N   N64       1.0  0.07203  0.58002  0.47165  1.0000 -0.2192784283
N   N65       1.0  0.07604  0.02670  0.45594  1.0000 -0.2192784283
N   N66       1.0  0.02968  0.98020  0.43248  1.0000 -0.2010101495
N   N67       1.0  0.42700  0.82362  0.15162  1.0000 -0.1919349317
N   N68       1.0  0.42764  0.85035  0.16859  1.0000 -0.2192784283
N   N69       1.0  0.34689  0.79004  0.23533  1.0000 -0.2010101495
N   N70       1.0  0.32452  0.74816  0.24428  1.0000 -0.1919349317
N   N71       1.0  0.63148  0.82431  0.15499  1.0000 -0.2010101495
N   N72       1.0  0.68491  0.85995  0.16466  1.0000 -0.2192784283
N   N73       1.0  0.66211  0.43345  0.61616  1.0000 -0.1919349317
N   N74       1.0  0.68437  0.43843  0.64240  1.0000 -0.2192784283
N   N75       1.0  0.80701  0.64785  0.68826  1.0000 -0.209244111
N   N76       1.0  0.75730  0.61927  0.68477  1.0000 -0.2010101495
N   N77       1.0  0.50900  0.24043  0.55683  1.0000 -0.209244111
N   N78       1.0  0.53220  0.28460  0.55100  1.0000 -0.2192784283
N   N79       1.0  0.17475  0.79852  0.79207  1.0000 -0.2275419871
N   N80       1.0  0.12922  0.77745  0.78147  1.0000 -0.209244111
N   N81       1.0  0.22114  0.88243  0.68697  1.0000 -0.2192784283
N   N82       1.0  0.21807  0.85064  0.67631  1.0000 -0.209244111
N   N83       1.0  0.18633  0.79535  0.90188  1.0000 -0.1820727913
N   N84       1.0  0.21685  0.81690  0.88235  1.0000 -0.1919349317
N   N85       1.0  0.69392  0.78844  0.34716  1.0000 -0.2192784283
N   N86       1.0  0.67360  0.74679  0.35499  1.0000 -0.209244111
N   N87       1.0  0.56992  0.60544  0.28916  1.0000 -0.2192784283
N   N88       1.0  0.55184  0.59501  0.25825  1.0000 -0.209244111
N   N89       1.0  0.59043  0.70913  0.23736  1.0000 -0.209244111
N   N90       1.0  0.62611  0.75669  0.26060  1.0000 -0.2192784283
N   N91       1.0  0.22618  0.75104  0.31382  1.0000 -0.209244111
N   N92       1.0  0.20519  0.74491  0.28630  1.0000 -0.2192784283
N   N93       1.0  0.04928  0.64702  0.26150  1.0000 -0.1919349317
N   N94       1.0  0.02040  0.62780  0.28240  1.0000 -0.2192784283
N   N95       1.0  0.08746  0.66045  0.37051  1.0000 -0.2192784283
N   N96       1.0  0.13600  0.68532  0.37652  1.0000 -0.1919349317
N   N97       1.0  0.64266  0.35746  0.13672  1.0000 -0.2192784283
N   N98       1.0  0.68900  0.40818  0.15798  1.0000 -0.2010101495
N   N99       1.0  0.83849  0.49405  0.17794  1.0000 -0.209244111
N   N100      1.0  0.84582  0.47141  0.16743  1.0000 -0.2192784283
N   N101      1.0  0.71044  0.31586  0.10770  1.0000 -0.209244111
N   N102      1.0  0.66109  0.28903  0.10052  1.0000 -0.2275419871
N   N103      1.0  0.43880  0.30320  0.27920  1.0000 -0.2192784283
N   N104      1.0  0.44480  0.28183  0.26483  1.0000 -0.209244111
N   N105      1.0  0.53293  0.34617  0.20270  1.0000 -0.2192784283
N   N106      1.0  0.56080  0.39222  0.19582  1.0000 -0.209244111
N   N107      1.0  0.55199  0.46650  0.24089  1.0000 -0.209244111
N   N108      1.0  0.51703  0.43947  0.25850  1.0000 -0.209244111
N   N109      1.0  0.33594  0.11703  0.44757  1.0000 -0.2010101495
N   N110      1.0  0.37440  0.14370  0.43250  1.0000 -0.209244111
N   N111      1.0  0.34255  0.14747  0.34742  1.0000 -0.209244111
N   N112      1.0  0.29718  0.12502  0.33400  1.0000 -0.209244111
N   N113      1.0  0.17892  0.03575  0.38067  1.0000 -0.2010101495
N   N114      1.0  0.18820  0.02870  0.40650  1.0000 -0.209244111
N   N115      1.0  0.55651  0.09713  0.03144  1.0000 -0.2192784283
N   N116      1.0  0.58036  0.10294  0.05770  1.0000 -0.2010101495
N   N117      1.0  0.49871  0.96348  0.07619  1.0000 -0.2010101495
N   N118      1.0  0.44970  0.91313  0.05743  1.0000 -0.209244111
N   N119      1.0  0.37115  0.89938  0.98833  1.0000 -0.1919349317
N   N120      1.0  0.39844  0.94523  0.98267  1.0000 -0.2010101495
N   N121      1.0  0.95700  0.38672  0.48152  1.0000 -0.2010101495
N   N122      1.0  0.94250  0.38820  0.45470  1.0000 -0.2192784283
N   N123      1.0  0.07770  0.52610  0.99340  1.0000 -0.2192784283
N   N124      1.0  0.10038  0.57203  0.99201  1.0000 -0.2192784283
N   N125      1.0  0.12010  0.57604  0.54934  1.0000 -0.2192784283
N   N126      1.0  0.09720  0.52968  0.54948  1.0000 -0.2010101495
N   N127      1.0  0.77538  0.92700  0.10338  1.0000 -0.1919349317
N   N128      1.0  0.75905  0.92764  0.07729  1.0000 -0.2192784283
N   N129      1.0  0.61156  0.84689  0.05685  1.0000 -0.2010101495
N   N130      1.0  0.58024  0.82452  0.07636  1.0000 -0.1919349317
N   N131      1.0  0.97649  0.13148  0.30717  1.0000 -0.2010101495
N   N132      1.0  0.02025  0.18491  0.32496  1.0000 -0.2192784283
N   N133      1.0  0.54595  0.16211  0.72866  1.0000 -0.1919349317
N   N134      1.0  0.54197  0.18437  0.74594  1.0000 -0.2192784283
N   N135      1.0  0.61875  0.30701  0.65916  1.0000 -0.209244111
N   N136      1.0  0.57253  0.25730  0.63803  1.0000 -0.2010101495
N   N137      1.0  0.45217  0.00900  0.76857  1.0000 -0.209244111
N   N138      1.0  0.48120  0.03220  0.74760  1.0000 -0.2192784283
N   N139      1.0  0.88268  0.67475  0.87623  1.0000 -0.2275419871
N   N140      1.0  0.84775  0.62922  0.85177  1.0000 -0.209244111
N   N141      1.0  0.03417  0.72114  0.83871  1.0000 -0.2192784283
N   N142      1.0  0.04176  0.71807  0.86743  1.0000 -0.209244111
N   N143      1.0  0.78445  0.68633  0.89098  1.0000 -0.1820727913
N   N144      1.0  0.83450  0.71685  0.89995  1.0000 -0.1919349317
N   N145      1.0  0.84676  0.19392  0.40548  1.0000 -0.2192784283
N   N146      1.0  0.81861  0.17360  0.42681  1.0000 -0.209244111
N   N147      1.0  0.78076  0.06992  0.46448  1.0000 -0.2192784283
N   N148      1.0  0.79359  0.05184  0.45683  1.0000 -0.209244111
N   N149      1.0  0.85307  0.09043  0.38130  1.0000 -0.209244111
N   N150      1.0  0.86551  0.12611  0.36942  1.0000 -0.2192784283
N   N151      1.0  0.41236  0.72618  0.97514  1.0000 -0.209244111
N   N152      1.0  0.41889  0.70519  0.96028  1.0000 -0.2192784283
N   N153      1.0  0.28778  0.54928  0.90226  1.0000 -0.1919349317
N   N154      1.0  0.23800  0.52040  0.89260  1.0000 -0.2192784283
N   N155      1.0  0.21695  0.58746  0.92701  1.0000 -0.2192784283
N   N156      1.0  0.25948  0.63600  0.95068  1.0000 -0.1919349317
N   N157      1.0  0.00594  0.14266  0.78520  1.0000 -0.2192784283
N   N158      1.0  0.03102  0.18900  0.78082  1.0000 -0.2010101495
N   N159      1.0  0.16055  0.33849  0.84444  1.0000 -0.209244111
N   N160      1.0  0.17839  0.34582  0.87441  1.0000 -0.2192784283
N   N161      1.0  0.10274  0.21044  0.89458  1.0000 -0.209244111
N   N162      1.0  0.06057  0.16109  0.87206  1.0000 -0.2275419871
N   N163      1.0  0.65960  0.93880  0.63560  1.0000 -0.209244111
N   N164      1.0  0.67997  0.94480  0.66297  1.0000 -0.209244111
N   N165      1.0  0.83023  0.03293  0.68676  1.0000 -0.2192784283
N   N166      1.0  0.86498  0.06080  0.66858  1.0000 -0.209244111
N   N167      1.0  0.81110  0.05199  0.58549  1.0000 -0.209244111
N   N168      1.0  0.75853  0.01703  0.57756  1.0000 -0.209244111
N   N169      1.0  0.38837  0.83594  0.71891  1.0000 -0.2010101495
N   N170      1.0  0.44190  0.87440  0.73070  1.0000 -0.209244111
N   N171      1.0  0.49513  0.84255  0.69508  1.0000 -0.209244111
N   N172      1.0  0.46318  0.79718  0.67216  1.0000 -0.209244111
N   N173      1.0  0.29825  0.67892  0.64317  1.0000 -0.2010101495
N   N174      1.0  0.28170  0.68820  0.65950  1.0000 -0.2192784283
N   N175      1.0  0.02507  0.05651  0.95938  1.0000 -0.2192784283
N   N176      1.0  0.02266  0.08036  0.97742  1.0000 -0.2010101495
N   N177      1.0  0.92252  0.99871  0.03523  1.0000 -0.2010101495
N   N178      1.0  0.89227  0.94970  0.03657  1.0000 -0.209244111
N   N179      1.0  0.88282  0.87115  0.97177  1.0000 -0.1919349317
N   N180      1.0  0.91577  0.89844  0.95321  1.0000 -0.2010101495
N   N181      1.0  0.40520  0.47548  0.01848  1.0000 -0.2010101495
N   N182      1.0  0.43350  0.48780  0.04530  1.0000 -0.2192784283
N   N183      1.0  0.03270  0.08430  0.50660  1.0000 -0.2192784283
N   N184      1.0  0.08002  0.10837  0.50799  1.0000 -0.2192784283
N   N185      1.0  0.52670  0.57076  0.95066  1.0000 -0.2192784283
N   N186      1.0  0.48020  0.54772  0.95052  1.0000 -0.2010101495
N   N187      1.0  0.32362  0.67200  0.39662  1.0000 -0.2010101495
N   N188      1.0  0.35035  0.68176  0.42271  1.0000 -0.2192784283
N   N189      1.0  0.29004  0.55471  0.44315  1.0000 -0.2010101495
N   N190      1.0  0.24816  0.50388  0.42364  1.0000 -0.1919349317
N   N191      1.0  0.32431  0.66932  0.19283  1.0000 -0.2010101495
N   N192      1.0  0.35995  0.69529  0.17504  1.0000 -0.2192784283
N   N193      1.0  0.93345  0.81729  0.77134  1.0000 -0.1919349317
N   N194      1.0  0.93843  0.79603  0.75406  1.0000 -0.2192784283
N   N195      1.0  0.14785  0.95959  0.84084  1.0000 -0.209244111
N   N196      1.0  0.11927  0.93450  0.86197  1.0000 -0.2010101495
N   N197      1.0  0.74043  0.68360  0.73143  1.0000 -0.209244111
N   N198      1.0  0.78460  0.73360  0.75240  1.0000 -0.2192784283
N   N199      1.0  0.29852  0.00645  0.62377  1.0000 -0.2275419871
N   N200      1.0  0.27745  0.99598  0.64823  1.0000 -0.209244111
N   N201      1.0  0.38243  0.19546  0.66129  1.0000 -0.2192784283
N   N202      1.0  0.35064  0.17433  0.63257  1.0000 -0.209244111
N   N203      1.0  0.29535  0.89347  0.60902  1.0000 -0.1820727913
N   N204      1.0  0.31690  0.93455  0.60005  1.0000 -0.1919349317
N   N205      1.0  0.28844  0.44128  0.09452  1.0000 -0.2192784283
N   N206      1.0  0.24679  0.39180  0.07319  1.0000 -0.209244111
N   N207      1.0  0.10544  0.31628  0.03552  1.0000 -0.2192784283
N   N208      1.0  0.09501  0.33676  0.04317  1.0000 -0.209244111
N   N209      1.0  0.20913  0.47177  0.11870  1.0000 -0.209244111
N   N210      1.0  0.25669  0.49609  0.13058  1.0000 -0.2192784283
N   N211      1.0  0.25104  0.43722  0.52486  1.0000 -0.209244111
N   N212      1.0  0.24491  0.45861  0.53972  1.0000 -0.2192784283
N   N213      1.0  0.14702  0.38552  0.59774  1.0000 -0.1919349317
N   N214      1.0  0.12780  0.34540  0.60740  1.0000 -0.2192784283
N   N215      1.0  0.16045  0.28994  0.57299  1.0000 -0.2192784283
N   N216      1.0  0.18532  0.30880  0.54932  1.0000 -0.1919349317
N   N217      1.0  0.85746  0.22074  0.71480  1.0000 -0.2192784283
N   N218      1.0  0.90818  0.25020  0.71918  1.0000 -0.2010101495
N   N219      1.0  0.99405  0.31611  0.65556  1.0000 -0.209244111
N   N220      1.0  0.97141  0.30398  0.62559  1.0000 -0.2192784283
N   N221      1.0  0.81586  0.20816  0.60542  1.0000 -0.209244111
N   N222      1.0  0.78903  0.18851  0.62794  1.0000 -0.2275419871
N   N223      1.0  0.80320  0.02400  0.86440  1.0000 -0.2192784283
N   N224      1.0  0.78183  0.01700  0.83703  1.0000 -0.209244111
N   N225      1.0  0.84617  0.14347  0.81324  1.0000 -0.2192784283
N   N226      1.0  0.89222  0.19640  0.83142  1.0000 -0.209244111
N   N227      1.0  0.96650  0.22561  0.91451  1.0000 -0.209244111
N   N228      1.0  0.93947  0.18097  0.92244  1.0000 -0.209244111
N   N229      1.0  0.61703  0.66946  0.78109  1.0000 -0.2010101495
N   N230      1.0  0.64370  0.71120  0.76930  1.0000 -0.209244111
N   N231      1.0  0.64747  0.80005  0.80492  1.0000 -0.209244111
N   N232      1.0  0.62502  0.79102  0.82784  1.0000 -0.209244111
N   N233      1.0  0.53575  0.65508  0.85683  1.0000 -0.2010101495
N   N234      1.0  0.52870  0.62220  0.84050  1.0000 -0.209244111
N   N235      1.0  0.59713  0.06569  0.54062  1.0000 -0.2192784283
N   N236      1.0  0.60294  0.04524  0.52258  1.0000 -0.2010101495
N   N237      1.0  0.46348  0.88729  0.46477  1.0000 -0.2010101495
N   N238      1.0  0.41313  0.85570  0.46343  1.0000 -0.209244111
N   N239      1.0  0.39938  0.91105  0.52823  1.0000 -0.1820727913
N   N240      1.0  0.44523  0.96256  0.54679  1.0000 -0.209244111
N   N241      1.0  0.02452  0.54300  0.92972  1.0000 -0.2010101495
N   N242      1.0  0.01220  0.55750  0.94570  1.0000 -0.2192784283
N   N243      1.0  0.41570  0.42230  0.94840  1.0000 -0.2192784283
N   N244      1.0  0.39163  0.39962  0.97165  1.0000 -0.2192784283
N   N245      1.0  0.92924  0.37990  0.95594  1.0000 -0.2192784283
N   N246      1.0  0.95228  0.40280  0.93248  1.0000 -0.2010101495
N   N247      1.0  0.82800  0.72462  0.65162  1.0000 -0.1919349317
N   N248      1.0  0.81824  0.74095  0.66859  1.0000 -0.2192784283
N   N249      1.0  0.94529  0.88844  0.73533  1.0000 -0.2010101495
N   N250      1.0  0.99612  0.91976  0.74428  1.0000 -0.1919349317
N   N251      1.0  0.83068  0.52351  0.65499  1.0000 -0.2010101495
N   N252      1.0  0.80471  0.47975  0.66466  1.0000 -0.2192784283
N   N253      1.0  0.68271  0.95405  0.11616  1.0000 -0.1919349317
N   N254      1.0  0.70397  0.95803  0.14240  1.0000 -0.2192784283
N   N255      1.0  0.54041  0.88125  0.18826  1.0000 -0.2010101495
N   N256      1.0  0.56550  0.92747  0.18477  1.0000 -0.2010101495
N   N257      1.0  0.81640  0.04783  0.05683  1.0000 -0.209244111
N   N258      1.0  0.76640  0.01880  0.05100  1.0000 -0.2192784283
N   N259      1.0  0.49355  0.61732  0.29207  1.0000 -0.2275419871
N   N260      1.0  0.50402  0.65225  0.28147  1.0000 -0.209244111
N   N261      1.0  0.30454  0.46583  0.18697  1.0000 -0.2192784283
N   N262      1.0  0.32567  0.45824  0.17631  1.0000 -0.209244111
N   N263      1.0  0.60653  0.71555  0.40188  1.0000 -0.1820727913
N   N264      1.0  0.56545  0.66550  0.38235  1.0000 -0.1919349317
N   N265      1.0  0.05872  0.65324  0.84716  1.0000 -0.2192784283
N   N266      1.0  0.10820  0.68139  0.85499  1.0000 -0.209244111
N   N267      1.0  0.18372  0.71924  0.78916  1.0000 -0.2192784283
N   N268      1.0  0.16324  0.70641  0.75825  1.0000 -0.209244111
N   N269      1.0  0.02823  0.64693  0.73736  1.0000 -0.209244111
N   N270      1.0  0.00391  0.63449  0.76060  1.0000 -0.2192784283
N   N271      1.0  0.06278  0.08764  0.81382  1.0000 -0.209244111
N   N272      1.0  0.04139  0.08111  0.78630  1.0000 -0.2192784283
N   N273      1.0  0.11448  0.21222  0.76150  1.0000 -0.1919349317
N   N274      1.0  0.15460  0.26200  0.78240  1.0000 -0.209244111
N   N275      1.0  0.21006  0.28305  0.87051  1.0000 -0.2192784283
N   N276      1.0  0.19120  0.24052  0.87652  1.0000 -0.1919349317
N   N277      1.0  0.27926  0.49406  0.63672  1.0000 -0.2192784283
N   N278      1.0  0.24980  0.46898  0.65798  1.0000 -0.2010101495
N   N279      1.0  0.18389  0.33945  0.67794  1.0000 -0.209244111
N   N280      1.0  0.19602  0.32161  0.66743  1.0000 -0.2192784283
N   N281      1.0  0.29184  0.39726  0.60770  1.0000 -0.2010101495
N   N282      1.0  0.31149  0.43943  0.60052  1.0000 -0.2275419871
N   N283      1.0  0.47600  0.84040  0.77920  1.0000 -0.209244111
N   N284      1.0  0.48300  0.82003  0.76483  1.0000 -0.209244111
N   N285      1.0  0.35653  0.66977  0.70270  1.0000 -0.2192784283
N   N286      1.0  0.30360  0.63502  0.69582  1.0000 -0.209244111
N   N287      1.0  0.27439  0.68890  0.74089  1.0000 -0.209244111
N   N288      1.0  0.31903  0.74147  0.75850  1.0000 -0.209244111
N   N289      1.0  0.83054  0.11163  0.94757  1.0000 -0.2010101495
N   N290      1.0  0.78880  0.05810  0.93250  1.0000 -0.209244111
N   N291      1.0  0.69995  0.00487  0.84742  1.0000 -0.209244111
N   N292      1.0  0.70898  0.03682  0.83400  1.0000 -0.209244111
N   N293      1.0  0.84492  0.20175  0.88067  1.0000 -0.209244111
N   N294      1.0  0.87780  0.21830  0.90650  1.0000 -0.209244111
N   N295      1.0  0.43431  0.47493  0.53144  1.0000 -0.2192784283
N   N296      1.0  0.45476  0.47734  0.55770  1.0000 -0.2010101495
N   N297      1.0  0.61271  0.57748  0.57619  1.0000 -0.2010101495
N   N298      1.0  0.64430  0.60773  0.55743  1.0000 -0.209244111
N   N299      1.0  0.58895  0.61718  0.48833  1.0000 -0.1919349317
N   N300      1.0  0.53744  0.58423  0.48267  1.0000 -0.2010101495
N   N301      1.0  0.11328  0.09480  0.57028  1.0000 -0.2010101495
N   N302      1.0  0.11180  0.06650  0.55430  1.0000 -0.2192784283
N   N303      1.0  0.97390  0.46730  0.55160  1.0000 -0.2192784283
N   N304      1.0  0.92797  0.41998  0.52835  1.0000 -0.2192784283
N   N305      1.0  0.92396  0.97330  0.54406  1.0000 -0.2192784283
N   N306      1.0  0.97032  0.01980  0.56752  1.0000 -0.2010101495
N   N307      1.0  0.57300  0.17638  0.84838  1.0000 -0.2010101495
N   N308      1.0  0.57236  0.14965  0.83141  1.0000 -0.2192784283
N   N309      1.0  0.65311  0.20996  0.76467  1.0000 -0.2010101495
N   N310      1.0  0.67548  0.25184  0.75572  1.0000 -0.1919349317
N   N311      1.0  0.36852  0.17569  0.84501  1.0000 -0.2010101495
N   N312      1.0  0.31509  0.14005  0.83534  1.0000 -0.2192784283
N   N313      1.0  0.33789  0.56655  0.38384  1.0000 -0.1919349317
N   N314      1.0  0.31563  0.56157  0.35760  1.0000 -0.2192784283
N   N315      1.0  0.19299  0.35215  0.31174  1.0000 -0.2010101495
N   N316      1.0  0.24270  0.38073  0.31523  1.0000 -0.2010101495
N   N317      1.0  0.49100  0.75957  0.44317  1.0000 -0.209244111
N   N318      1.0  0.46780  0.71540  0.44900  1.0000 -0.2192784283
N   N319      1.0  0.82525  0.20148  0.20793  1.0000 -0.2275419871
N   N320      1.0  0.87078  0.22255  0.21853  1.0000 -0.209244111
N   N321      1.0  0.77886  0.11757  0.31303  1.0000 -0.2192784283
N   N322      1.0  0.78193  0.14936  0.32369  1.0000 -0.209244111
N   N323      1.0  0.81367  0.20465  0.09812  1.0000 -0.1820727913
N   N324      1.0  0.78315  0.18310  0.11765  1.0000 -0.1919349317
N   N325      1.0  0.30608  0.21156  0.65284  1.0000 -0.2192784283
N   N326      1.0  0.32640  0.25321  0.64501  1.0000 -0.209244111
N   N327      1.0  0.43008  0.39456  0.71084  1.0000 -0.2192784283
N   N328      1.0  0.44816  0.40499  0.74175  1.0000 -0.209244111
N   N329      1.0  0.40957  0.29087  0.76264  1.0000 -0.209244111
N   N330      1.0  0.37389  0.24331  0.73940  1.0000 -0.2192784283
N   N331      1.0  0.77382  0.24896  0.68618  1.0000 -0.209244111
N   N332      1.0  0.79481  0.25509  0.71370  1.0000 -0.2192784283
N   N333      1.0  0.95072  0.35298  0.73850  1.0000 -0.1919349317
N   N334      1.0  0.97960  0.37220  0.71760  1.0000 -0.209244111
N   N335      1.0  0.91254  0.33955  0.62949  1.0000 -0.2192784283
N   N336      1.0  0.86400  0.31468  0.62348  1.0000 -0.1919349317
N   N337      1.0  0.35734  0.64254  0.86328  1.0000 -0.2192784283
N   N338      1.0  0.31100  0.59182  0.84202  1.0000 -0.2010101495
N   N339      1.0  0.16151  0.50595  0.82206  1.0000 -0.209244111
N   N340      1.0  0.15418  0.52859  0.83257  1.0000 -0.2192784283
N   N341      1.0  0.28956  0.68414  0.89230  1.0000 -0.209244111
N   N342      1.0  0.33891  0.71097  0.89948  1.0000 -0.2275419871
N   N343      1.0  0.56120  0.69680  0.72080  1.0000 -0.209244111
N   N344      1.0  0.55520  0.71817  0.73517  1.0000 -0.209244111
N   N345      1.0  0.46707  0.65383  0.79730  1.0000 -0.2192784283
N   N346      1.0  0.43920  0.60778  0.80418  1.0000 -0.209244111
N   N347      1.0  0.44801  0.53350  0.75911  1.0000 -0.209244111
N   N348      1.0  0.48297  0.56053  0.74150  1.0000 -0.209244111
N   N349      1.0  0.66406  0.88297  0.55243  1.0000 -0.2010101495
N   N350      1.0  0.62560  0.85630  0.56750  1.0000 -0.209244111
N   N351      1.0  0.65745  0.85253  0.65258  1.0000 -0.209244111
N   N352      1.0  0.70282  0.87498  0.66600  1.0000 -0.209244111
N   N353      1.0  0.82108  0.96425  0.61933  1.0000 -0.2010101495
N   N354      1.0  0.81180  0.97130  0.59350  1.0000 -0.209244111
N   N355      1.0  0.44349  0.90287  0.96856  1.0000 -0.2192784283
N   N356      1.0  0.41964  0.89706  0.94230  1.0000 -0.1919349317
N   N357      1.0  0.50129  0.03652  0.92381  1.0000 -0.2010101495
N   N358      1.0  0.55030  0.08687  0.94257  1.0000 -0.209244111
N   N359      1.0  0.62885  0.10062  0.01167  1.0000 -0.1820727913
N   N360      1.0  0.60156  0.05477  0.01733  1.0000 -0.2010101495
N   N361      1.0  0.04300  0.61328  0.51848  1.0000 -0.2010101495
N   N362      1.0  0.05750  0.61180  0.54530  1.0000 -0.2192784283
N   N363      1.0  0.92230  0.47390  0.00660  1.0000 -0.2192784283
N   N364      1.0  0.89962  0.42797  0.00799  1.0000 -0.2192784283
N   N365      1.0  0.87990  0.42396  0.45066  1.0000 -0.2192784283
N   N366      1.0  0.90280  0.47032  0.45052  1.0000 -0.2010101495
N   N367      1.0  0.22462  0.07300  0.89662  1.0000 -0.2010101495
N   N368      1.0  0.24095  0.07236  0.92271  1.0000 -0.2192784283
N   N369      1.0  0.38844  0.15311  0.94315  1.0000 -0.2010101495
N   N370      1.0  0.41976  0.17548  0.92364  1.0000 -0.1919349317
N   N371      1.0  0.02351  0.86852  0.69283  1.0000 -0.2010101495
N   N372      1.0  0.97975  0.81509  0.67504  1.0000 -0.2192784283
N   N373      1.0  0.45405  0.83789  0.27134  1.0000 -0.1919349317
N   N374      1.0  0.45803  0.81563  0.25406  1.0000 -0.2192784283
N   N375      1.0  0.38125  0.69299  0.34084  1.0000 -0.209244111
N   N376      1.0  0.42747  0.74270  0.36197  1.0000 -0.2010101495
N   N377      1.0  0.54783  0.99100  0.23143  1.0000 -0.209244111
N   N378      1.0  0.51880  0.96780  0.25240  1.0000 -0.2192784283
N   N379      1.0  0.11732  0.32525  0.12377  1.0000 -0.2275419871
N   N380      1.0  0.15225  0.37078  0.14823  1.0000 -0.209244111
N   N381      1.0  0.96583  0.27886  0.16129  1.0000 -0.2192784283
N   N382      1.0  0.95824  0.28193  0.13257  1.0000 -0.209244111
N   N383      1.0  0.21555  0.31367  0.10902  1.0000 -0.1820727913
N   N384      1.0  0.16550  0.28315  0.10005  1.0000 -0.1919349317
N   N385      1.0  0.15324  0.80608  0.59452  1.0000 -0.2192784283
N   N386      1.0  0.18139  0.82640  0.57319  1.0000 -0.209244111
N   N387      1.0  0.21924  0.93008  0.53552  1.0000 -0.2192784283
N   N388      1.0  0.20641  0.94816  0.54317  1.0000 -0.209244111
N   N389      1.0  0.14693  0.90957  0.61870  1.0000 -0.209244111
N   N390      1.0  0.13449  0.87389  0.63058  1.0000 -0.2192784283
N   N391      1.0  0.58764  0.27382  0.02486  1.0000 -0.209244111
N   N392      1.0  0.58111  0.29481  0.03972  1.0000 -0.2192784283
N   N393      1.0  0.71222  0.45072  0.09774  1.0000 -0.1919349317
N   N394      1.0  0.76200  0.47960  0.10740  1.0000 -0.209244111
N   N395      1.0  0.78305  0.41254  0.07299  1.0000 -0.2192784283
N   N396      1.0  0.74052  0.36400  0.04932  1.0000 -0.1919349317
N   N397      1.0  0.99406  0.85734  0.21480  1.0000 -0.2192784283
N   N398      1.0  0.96898  0.81100  0.21918  1.0000 -0.2010101495
N   N399      1.0  0.83945  0.66151  0.15556  1.0000 -0.209244111
N   N400      1.0  0.82161  0.65418  0.12559  1.0000 -0.2192784283
N   N401      1.0  0.89726  0.78956  0.10542  1.0000 -0.209244111
N   N402      1.0  0.93943  0.83891  0.12794  1.0000 -0.2275419871
N   N403      1.0  0.34040  0.06120  0.36440  1.0000 -0.2192784283
N   N404      1.0  0.32003  0.05520  0.33703  1.0000 -0.209244111
N   N405      1.0  0.16977  0.96707  0.31324  1.0000 -0.2192784283
N   N406      1.0  0.13502  0.93920  0.33142  1.0000 -0.209244111
N   N407      1.0  0.18890  0.94801  0.41451  1.0000 -0.209244111
N   N408      1.0  0.24147  0.98297  0.42244  1.0000 -0.209244111
N   N409      1.0  0.61163  0.16406  0.28109  1.0000 -0.2010101495
N   N410      1.0  0.55810  0.12560  0.26930  1.0000 -0.209244111
N   N411      1.0  0.50487  0.15745  0.30492  1.0000 -0.209244111
N   N412      1.0  0.53682  0.20282  0.32784  1.0000 -0.209244111
N   N413      1.0  0.70175  0.32108  0.35683  1.0000 -0.2010101495
N   N414      1.0  0.71830  0.31180  0.34050  1.0000 -0.209244111
N   N415      1.0  0.97493  0.94349  0.04062  1.0000 -0.2192784283
N   N416      1.0  0.97734  0.91964  0.02258  1.0000 -0.2010101495
N   N417      1.0  0.07748  0.00129  0.96477  1.0000 -0.2010101495
N   N418      1.0  0.10773  0.05030  0.96343  1.0000 -0.209244111
N   N419      1.0  0.11718  0.12885  0.02823  1.0000 -0.1919349317
N   N420      1.0  0.08423  0.10156  0.04679  1.0000 -0.2010101495
N   N421      1.0  0.59480  0.52452  0.98152  1.0000 -0.2010101495
N   N422      1.0  0.56650  0.51220  0.95470  1.0000 -0.2192784283
N   N423      1.0  0.96730  0.91570  0.49340  1.0000 -0.2192784283
N   N424      1.0  0.91998  0.89163  0.49201  1.0000 -0.2192784283
N   N425      1.0  0.47330  0.42924  0.04934  1.0000 -0.2192784283
N   N426      1.0  0.51980  0.45228  0.04948  1.0000 -0.2010101495
N   N427      1.0  0.67638  0.32800  0.60338  1.0000 -0.1919349317
N   N428      1.0  0.64965  0.31824  0.57729  1.0000 -0.2192784283
N   N429      1.0  0.70996  0.44529  0.55685  1.0000 -0.2010101495
N   N430      1.0  0.75184  0.49612  0.57636  1.0000 -0.1919349317
N   N431      1.0  0.67569  0.33068  0.80717  1.0000 -0.2010101495
N   N432      1.0  0.64005  0.30471  0.82496  1.0000 -0.2192784283
N   N433      1.0  0.06655  0.18271  0.22866  1.0000 -0.1919349317
N   N434      1.0  0.06157  0.20397  0.24594  1.0000 -0.2192784283
N   N435      1.0  0.85215  0.04041  0.15916  1.0000 -0.2010101495
N   N436      1.0  0.88073  0.06550  0.13803  1.0000 -0.2010101495
N   N437      1.0  0.25957  0.31640  0.26857  1.0000 -0.209244111
N   N438      1.0  0.21540  0.26640  0.24760  1.0000 -0.2192784283
N   N439      1.0  0.70148  0.99355  0.37623  1.0000 -0.2275419871
N   N440      1.0  0.72255  0.00402  0.35177  1.0000 -0.209244111
N   N441      1.0  0.61757  0.80454  0.33871  1.0000 -0.2192784283
N   N442      1.0  0.64936  0.82567  0.36743  1.0000 -0.209244111
N   N443      1.0  0.70465  0.10653  0.39098  1.0000 -0.1820727913
N   N444      1.0  0.68310  0.06545  0.39995  1.0000 -0.1919349317
N   N445      1.0  0.71156  0.55872  0.90548  1.0000 -0.2192784283
N   N446      1.0  0.75321  0.60820  0.92681  1.0000 -0.209244111
N   N447      1.0  0.89456  0.68372  0.96448  1.0000 -0.2192784283
N   N448      1.0  0.90499  0.66324  0.95683  1.0000 -0.209244111
N   N449      1.0  0.79087  0.52823  0.88130  1.0000 -0.209244111
N   N450      1.0  0.74331  0.50391  0.86942  1.0000 -0.2192784283
N   N451      1.0  0.74896  0.56278  0.47514  1.0000 -0.209244111
N   N452      1.0  0.75509  0.54139  0.46028  1.0000 -0.2192784283
N   N453      1.0  0.85298  0.61448  0.40226  1.0000 -0.1919349317
N   N454      1.0  0.87220  0.65460  0.39260  1.0000 -0.2192784283
N   N455      1.0  0.83955  0.71006  0.42701  1.0000 -0.2192784283
N   N456      1.0  0.81468  0.69120  0.45068  1.0000 -0.1919349317
N   N457      1.0  0.14254  0.77926  0.28520  1.0000 -0.2192784283
N   N458      1.0  0.09182  0.74980  0.28082  1.0000 -0.2010101495
N   N459      1.0  0.00595  0.68389  0.34444  1.0000 -0.209244111
N   N460      1.0  0.02859  0.69602  0.37441  1.0000 -0.2192784283
N   N461      1.0  0.18414  0.79184  0.39458  1.0000 -0.209244111
N   N462      1.0  0.21097  0.81149  0.37206  1.0000 -0.2275419871
N   N463      1.0  0.19680  0.97600  0.13560  1.0000 -0.2192784283
N   N464      1.0  0.21817  0.98300  0.16297  1.0000 -0.209244111
N   N465      1.0  0.15383  0.85653  0.18676  1.0000 -0.2192784283
N   N466      1.0  0.10778  0.80360  0.16858  1.0000 -0.209244111
N   N467      1.0  0.03350  0.77439  0.08549  1.0000 -0.209244111
N   N468      1.0  0.06053  0.81903  0.07756  1.0000 -0.209244111
N   N469      1.0  0.38297  0.33054  0.21891  1.0000 -0.2010101495
N   N470      1.0  0.35630  0.28880  0.23070  1.0000 -0.209244111
N   N471      1.0  0.35253  0.19995  0.19508  1.0000 -0.209244111
N   N472      1.0  0.37498  0.20898  0.17216  1.0000 -0.2010101495
N   N473      1.0  0.46425  0.34492  0.14317  1.0000 -0.2010101495
N   N474      1.0  0.47130  0.37780  0.15950  1.0000 -0.209244111
N   N475      1.0  0.40287  0.93431  0.45938  1.0000 -0.2192784283
N   N476      1.0  0.39706  0.95476  0.47742  1.0000 -0.2010101495
N   N477      1.0  0.53652  0.11271  0.53523  1.0000 -0.2010101495
N   N478      1.0  0.58687  0.14430  0.53657  1.0000 -0.209244111
N   N479      1.0  0.60062  0.08895  0.47177  1.0000 -0.1919349317
N   N480      1.0  0.55477  0.03744  0.45321  1.0000 -0.209244111
