# DDEC6 charges by PACMAN v1.1 (https://github.com/mtap-research/PACMAN-charge/)
data_2006[In][nan]3[ASR]1
_chemical_formula_sum              "In24 H36 C108 O98"
_cell_length_a       15.3213
_cell_length_b       15.3213
_cell_length_c       32.571
_cell_angle_alpha    90
_cell_angle_beta     90
_cell_angle_gamma    120

_symmetry_space_group_name_H-M    "P 1"
_symmetry_Int_Tables_number       1

loop_
  _symmetry_equiv_pos_as_xyz
  'x, y, z'

loop_
  _atom_site_type_symbol
  _atom_site_label
  _atom_site_symmetry_multiplicity
  _atom_site_fract_x
  _atom_site_fract_y
  _atom_site_fract_z
  _atom_site_occupancy
  _atom_site_charge
In  In1       1.0  0.57965  0.42035  0.59211  1.0000 1.6144004999
In  In2       1.0  0.57965  0.15930  0.59211  1.0000 1.6144004999
In  In3       1.0  0.84070  0.42035  0.59211  1.0000 1.6144004999
In  In4       1.0  0.42035  0.84070  0.09211  1.0000 1.6144004999
In  In5       1.0  0.15930  0.57965  0.09211  1.0000 1.6144004999
In  In6       1.0  0.42035  0.57965  0.40789  1.0000 1.6144004999
In  In7       1.0  0.84070  0.42035  0.90789  1.0000 1.6144004999
In  In8       1.0  0.57965  0.15930  0.90789  1.0000 1.6144004999
In  In9       1.0  0.42035  0.57965  0.09211  1.0000 1.6144004999
In  In10      1.0  0.15930  0.57965  0.40789  1.0000 1.6155112812
In  In11      1.0  0.42035  0.84070  0.40789  1.0000 1.6144004999
In  In12      1.0  0.57965  0.42035  0.90789  1.0000 1.6144004999
In  In13      1.0  0.50000  0.50000  0.50000  1.0000 1.552038136
In  In14      1.0  0.50000  0.00000  0.50000  1.0000 1.552038136
In  In15      1.0  0.00000  0.50000  0.50000  1.0000 1.552038136
In  In16      1.0  0.50000  0.00000  0.00000  1.0000 1.552038136
In  In17      1.0  0.00000  0.50000  0.00000  1.0000 1.552038136
In  In18      1.0  0.50000  0.50000  0.00000  1.0000 1.552038136
In  In19      1.0  0.92274  0.07726  0.75000  1.0000 1.541780137
In  In20      1.0  0.92274  0.84548  0.75000  1.0000 1.541780137
In  In21      1.0  0.15452  0.07726  0.75000  1.0000 1.541780137
In  In22      1.0  0.07726  0.15452  0.25000  1.0000 1.541780137
In  In23      1.0  0.84548  0.92274  0.25000  1.0000 1.541780137
In  In24      1.0  0.07726  0.92274  0.25000  1.0000 1.541780137
H   H1        1.0  0.57540  0.78770  0.55440  1.0000 0.1650662849
H   H2        1.0  0.21230  0.78770  0.55440  1.0000 0.1650662849
H   H3        1.0  0.21230  0.42460  0.55440  1.0000 0.1650662849
H   H4        1.0  0.78770  0.21230  0.05440  1.0000 0.1650662849
H   H5        1.0  0.78770  0.57540  0.05440  1.0000 0.1650662849
H   H6        1.0  0.78770  0.57540  0.44560  1.0000 0.1650662849
H   H7        1.0  0.21230  0.78770  0.94560  1.0000 0.1650662849
H   H8        1.0  0.57540  0.78770  0.94560  1.0000 0.1650662849
H   H9        1.0  0.42460  0.21230  0.05440  1.0000 0.1650662849
H   H10       1.0  0.78770  0.21230  0.44560  1.0000 0.1650662849
H   H11       1.0  0.42460  0.21230  0.44560  1.0000 0.1650662849
H   H12       1.0  0.21230  0.42460  0.94560  1.0000 0.1650662849
H   H13       1.0  0.71720  0.72740  0.64480  1.0000 0.1538491527
H   H14       1.0  0.27260  0.98980  0.64480  1.0000 0.1538491527
H   H15       1.0  0.01020  0.28280  0.64480  1.0000 0.1538491527
H   H16       1.0  0.72740  0.01020  0.14480  1.0000 0.1538491527
H   H17       1.0  0.98980  0.71720  0.14480  1.0000 0.1538491527
H   H18       1.0  0.72740  0.71720  0.35520  1.0000 0.1538491527
H   H19       1.0  0.01020  0.72740  0.85520  1.0000 0.1538491527
H   H20       1.0  0.71720  0.98980  0.85520  1.0000 0.1538491527
H   H21       1.0  0.28280  0.27260  0.14480  1.0000 0.1538491527
H   H22       1.0  0.98980  0.27260  0.35520  1.0000 0.1538491527
H   H23       1.0  0.28280  0.01020  0.35520  1.0000 0.1538491527
H   H24       1.0  0.27260  0.28280  0.85520  1.0000 0.1538491527
H   H25       1.0  0.28280  0.27260  0.35520  1.0000 0.1538491527
H   H26       1.0  0.72740  0.01020  0.35520  1.0000 0.1538491527
H   H27       1.0  0.98980  0.71720  0.35520  1.0000 0.1538491527
H   H28       1.0  0.27260  0.98980  0.85520  1.0000 0.1538491527
H   H29       1.0  0.01020  0.28280  0.85520  1.0000 0.1538491527
H   H30       1.0  0.27260  0.28280  0.64480  1.0000 0.1538491527
H   H31       1.0  0.98980  0.27260  0.14480  1.0000 0.1538491527
H   H32       1.0  0.28280  0.01020  0.14480  1.0000 0.1538491527
H   H33       1.0  0.71720  0.72740  0.85520  1.0000 0.1538491527
H   H34       1.0  0.01020  0.72740  0.64480  1.0000 0.1538491527
H   H35       1.0  0.71720  0.98980  0.64480  1.0000 0.1538491527
H   H36       1.0  0.72740  0.71720  0.14480  1.0000 0.1538491527
C   C1        1.0  0.79360  0.89680  0.68880  1.0000 0.6386381119
C   C2        1.0  0.10320  0.89680  0.68880  1.0000 0.6386381119
C   C3        1.0  0.10320  0.20640  0.68880  1.0000 0.6386381119
C   C4        1.0  0.89680  0.10320  0.18880  1.0000 0.6386381119
C   C5        1.0  0.89680  0.79360  0.18880  1.0000 0.6386381119
C   C6        1.0  0.89680  0.79360  0.31120  1.0000 0.6386381119
C   C7        1.0  0.10320  0.89680  0.81120  1.0000 0.6386381119
C   C8        1.0  0.79360  0.89680  0.81120  1.0000 0.6386381119
C   C9        1.0  0.20640  0.10320  0.18880  1.0000 0.6386381119
C   C10       1.0  0.89680  0.10320  0.31120  1.0000 0.6386381119
C   C11       1.0  0.20640  0.10320  0.31120  1.0000 0.6386381119
C   C12       1.0  0.10320  0.20640  0.81120  1.0000 0.6386381119
C   C13       1.0  0.60890  0.64070  0.57730  1.0000 0.6151689717
C   C14       1.0  0.35930  0.96820  0.57730  1.0000 0.6151689717
C   C15       1.0  0.03180  0.39110  0.57730  1.0000 0.6151689717
C   C16       1.0  0.64070  0.03180  0.07730  1.0000 0.6151689717
C   C17       1.0  0.96820  0.60890  0.07730  1.0000 0.6151689717
C   C18       1.0  0.64070  0.60890  0.42270  1.0000 0.6151689717
C   C19       1.0  0.03180  0.64070  0.92270  1.0000 0.6151689717
C   C20       1.0  0.60890  0.96820  0.92270  1.0000 0.6151689717
C   C21       1.0  0.39110  0.35930  0.07730  1.0000 0.6151689717
C   C22       1.0  0.96820  0.35930  0.42270  1.0000 0.6151689717
C   C23       1.0  0.39110  0.03180  0.42270  1.0000 0.6151689717
C   C24       1.0  0.35930  0.39110  0.92270  1.0000 0.6151689717
C   C25       1.0  0.39110  0.35930  0.42270  1.0000 0.6151689717
C   C26       1.0  0.64070  0.03180  0.42270  1.0000 0.6151689717
C   C27       1.0  0.96820  0.60890  0.42270  1.0000 0.6151689717
C   C28       1.0  0.35930  0.96820  0.92270  1.0000 0.6151689717
C   C29       1.0  0.03180  0.39110  0.92270  1.0000 0.6151689717
C   C30       1.0  0.35930  0.39110  0.57730  1.0000 0.6151689717
C   C31       1.0  0.96820  0.35930  0.07730  1.0000 0.6151689717
C   C32       1.0  0.39110  0.03180  0.07730  1.0000 0.6151689717
C   C33       1.0  0.60890  0.64070  0.92270  1.0000 0.6151689717
C   C34       1.0  0.03180  0.64070  0.57730  1.0000 0.6151689717
C   C35       1.0  0.60890  0.96820  0.57730  1.0000 0.6151689717
C   C36       1.0  0.64070  0.60890  0.07730  1.0000 0.6151689717
C   C37       1.0  0.72640  0.86320  0.65060  1.0000 -0.0163299368
C   C38       1.0  0.13680  0.86320  0.65060  1.0000 -0.0163299368
C   C39       1.0  0.13680  0.27360  0.65060  1.0000 -0.0163299368
C   C40       1.0  0.86320  0.13680  0.15060  1.0000 -0.0163299368
C   C41       1.0  0.86320  0.72640  0.15060  1.0000 -0.0163299368
C   C42       1.0  0.86320  0.72640  0.34940  1.0000 -0.0163299368
C   C43       1.0  0.13680  0.86320  0.84940  1.0000 -0.0163299368
C   C44       1.0  0.72640  0.86320  0.84940  1.0000 -0.0163299368
C   C45       1.0  0.27360  0.13680  0.15060  1.0000 -0.0163299368
C   C46       1.0  0.86320  0.13680  0.34940  1.0000 -0.0163299368
C   C47       1.0  0.27360  0.13680  0.34940  1.0000 -0.0163299368
C   C48       1.0  0.13680  0.27360  0.84940  1.0000 -0.0163299368
C   C49       1.0  0.61280  0.80640  0.57850  1.0000 -0.0496384473
C   C50       1.0  0.19360  0.80640  0.57850  1.0000 -0.0496384473
C   C51       1.0  0.19360  0.38720  0.57850  1.0000 -0.0496384473
C   C52       1.0  0.80640  0.19360  0.07850  1.0000 -0.0496384473
C   C53       1.0  0.80640  0.61280  0.07850  1.0000 -0.0496384473
C   C54       1.0  0.80640  0.61280  0.42150  1.0000 -0.0496384473
C   C55       1.0  0.19360  0.80640  0.92150  1.0000 -0.0496384473
C   C56       1.0  0.61280  0.80640  0.92150  1.0000 -0.0496384473
C   C57       1.0  0.38720  0.19360  0.07850  1.0000 -0.0496384473
C   C58       1.0  0.80640  0.19360  0.42150  1.0000 -0.0496384473
C   C59       1.0  0.38720  0.19360  0.42150  1.0000 -0.0496384473
C   C60       1.0  0.19360  0.38720  0.92150  1.0000 -0.0496384473
C   C61       1.0  0.64120  0.74060  0.59690  1.0000 -0.0163299368
C   C62       1.0  0.25940  0.90060  0.59690  1.0000 -0.0163299368
C   C63       1.0  0.09940  0.35880  0.59690  1.0000 -0.0163299368
C   C64       1.0  0.74060  0.09940  0.09690  1.0000 -0.0163299368
C   C65       1.0  0.90060  0.64120  0.09690  1.0000 -0.0163299368
C   C66       1.0  0.74060  0.64120  0.40310  1.0000 -0.0163299368
C   C67       1.0  0.09940  0.74060  0.90310  1.0000 -0.0163299368
C   C68       1.0  0.64120  0.90060  0.90310  1.0000 -0.0163299368
C   C69       1.0  0.35880  0.25940  0.09690  1.0000 -0.0163299368
C   C70       1.0  0.90060  0.25940  0.40310  1.0000 -0.0163299368
C   C71       1.0  0.35880  0.09940  0.40310  1.0000 -0.0163299368
C   C72       1.0  0.25940  0.35880  0.90310  1.0000 -0.0163299368
C   C73       1.0  0.35880  0.25940  0.40310  1.0000 -0.0163299368
C   C74       1.0  0.74060  0.09940  0.40310  1.0000 -0.0163299368
C   C75       1.0  0.90060  0.64120  0.40310  1.0000 -0.0163299368
C   C76       1.0  0.25940  0.90060  0.90310  1.0000 -0.0163299368
C   C77       1.0  0.09940  0.35880  0.90310  1.0000 -0.0163299368
C   C78       1.0  0.25940  0.35880  0.59690  1.0000 -0.0163299368
C   C79       1.0  0.90060  0.25940  0.09690  1.0000 -0.0163299368
C   C80       1.0  0.35880  0.09940  0.09690  1.0000 -0.0163299368
C   C81       1.0  0.64120  0.74060  0.90310  1.0000 -0.0163299368
C   C82       1.0  0.09940  0.74060  0.59690  1.0000 -0.0163299368
C   C83       1.0  0.64120  0.90060  0.59690  1.0000 -0.0163299368
C   C84       1.0  0.74060  0.64120  0.09690  1.0000 -0.0163299368
C   C85       1.0  0.69800  0.77010  0.63270  1.0000 -0.0740118271
C   C86       1.0  0.22990  0.92790  0.63270  1.0000 -0.0740118271
C   C87       1.0  0.07210  0.30200  0.63270  1.0000 -0.0740118271
C   C88       1.0  0.77010  0.07210  0.13270  1.0000 -0.0740118271
C   C89       1.0  0.92790  0.69800  0.13270  1.0000 -0.0740118271
C   C90       1.0  0.77010  0.69800  0.36730  1.0000 -0.0740118271
C   C91       1.0  0.07210  0.77010  0.86730  1.0000 -0.0740118271
C   C92       1.0  0.69800  0.92790  0.86730  1.0000 -0.0740118271
C   C93       1.0  0.30200  0.22990  0.13270  1.0000 -0.0740118271
C   C94       1.0  0.92790  0.22990  0.36730  1.0000 -0.0740118271
C   C95       1.0  0.30200  0.07210  0.36730  1.0000 -0.0740118271
C   C96       1.0  0.22990  0.30200  0.86730  1.0000 -0.0740118271
C   C97       1.0  0.30200  0.22990  0.36730  1.0000 -0.0740118271
C   C98       1.0  0.77010  0.07210  0.36730  1.0000 -0.0740118271
C   C99       1.0  0.92790  0.69800  0.36730  1.0000 -0.0740118271
C   C100      1.0  0.22990  0.92790  0.86730  1.0000 -0.0740118271
C   C101      1.0  0.07210  0.30200  0.86730  1.0000 -0.0740118271
C   C102      1.0  0.22990  0.30200  0.63270  1.0000 -0.0740118271
C   C103      1.0  0.92790  0.22990  0.13270  1.0000 -0.0740118271
C   C104      1.0  0.30200  0.07210  0.13270  1.0000 -0.0740118271
C   C105      1.0  0.69800  0.77010  0.86730  1.0000 -0.0740118271
C   C106      1.0  0.07210  0.77010  0.63270  1.0000 -0.0740118271
C   C107      1.0  0.69800  0.92790  0.63270  1.0000 -0.0740118271
C   C108      1.0  0.77010  0.69800  0.13270  1.0000 -0.0740118271
O   O1        1.0  0.00000  0.00000  0.75000  1.0000 -1.070286887
O   O2        1.0  0.00000  0.00000  0.25000  1.0000 -1.070286887
O   O3        1.0  0.81690  0.98190  0.70285  1.0000 -0.5461793513
O   O4        1.0  0.01810  0.83500  0.70285  1.0000 -0.5461793513
O   O5        1.0  0.16500  0.18310  0.70285  1.0000 -0.5461793513
O   O6        1.0  0.98190  0.16500  0.20285  1.0000 -0.5461793513
O   O7        1.0  0.83500  0.81690  0.20285  1.0000 -0.5461793513
O   O8        1.0  0.98190  0.81690  0.29715  1.0000 -0.5461793513
O   O9        1.0  0.16500  0.98190  0.79715  1.0000 -0.5461793513
O   O10       1.0  0.81690  0.83500  0.79715  1.0000 -0.5461793513
O   O11       1.0  0.18310  0.01810  0.20285  1.0000 -0.5461793513
O   O12       1.0  0.83500  0.01810  0.29715  1.0000 -0.5461793513
O   O13       1.0  0.18310  0.16500  0.29715  1.0000 -0.5461793513
O   O14       1.0  0.01810  0.18310  0.79715  1.0000 -0.5461793513
O   O15       1.0  0.18310  0.01810  0.29715  1.0000 -0.5461793513
O   O16       1.0  0.98190  0.16500  0.29715  1.0000 -0.5461793513
O   O17       1.0  0.83500  0.81690  0.29715  1.0000 -0.5461793513
O   O18       1.0  0.01810  0.83500  0.79715  1.0000 -0.5461793513
O   O19       1.0  0.16500  0.18310  0.79715  1.0000 -0.5461793513
O   O20       1.0  0.01810  0.18310  0.70285  1.0000 -0.5461793513
O   O21       1.0  0.83500  0.01810  0.20285  1.0000 -0.5461793513
O   O22       1.0  0.18310  0.16500  0.20285  1.0000 -0.5461793513
O   O23       1.0  0.81690  0.98190  0.79715  1.0000 -0.5461793513
O   O24       1.0  0.16500  0.98190  0.70285  1.0000 -0.5461793513
O   O25       1.0  0.81690  0.83500  0.70285  1.0000 -0.5461793513
O   O26       1.0  0.98190  0.81690  0.20285  1.0000 -0.5461793513
O   O27       1.0  0.57130  0.42870  0.52730  1.0000 -0.792403402
O   O28       1.0  0.57130  0.14260  0.52730  1.0000 -0.792403402
O   O29       1.0  0.85740  0.42870  0.52730  1.0000 -0.792403402
O   O30       1.0  0.42870  0.85740  0.02730  1.0000 -0.792403402
O   O31       1.0  0.14260  0.57130  0.02730  1.0000 -0.792403402
O   O32       1.0  0.42870  0.57130  0.47270  1.0000 -0.792403402
O   O33       1.0  0.85740  0.42870  0.97270  1.0000 -0.792403402
O   O34       1.0  0.57130  0.14260  0.97270  1.0000 -0.792403402
O   O35       1.0  0.42870  0.57130  0.02730  1.0000 -0.792403402
O   O36       1.0  0.14260  0.57130  0.47270  1.0000 -0.792403402
O   O37       1.0  0.42870  0.85740  0.47270  1.0000 -0.792403402
O   O38       1.0  0.57130  0.42870  0.97270  1.0000 -0.792403402
O   O39       1.0  0.52890  0.26445  0.59380  1.0000 -0.9416276138
O   O40       1.0  0.73555  0.26445  0.59380  1.0000 -0.9416276138
O   O41       1.0  0.73555  0.47110  0.59380  1.0000 -0.9416276138
O   O42       1.0  0.26445  0.73555  0.09380  1.0000 -0.9416276138
O   O43       1.0  0.26445  0.52890  0.09380  1.0000 -0.9416276138
O   O44       1.0  0.26445  0.52890  0.40620  1.0000 -0.9416276138
O   O45       1.0  0.73555  0.26445  0.90620  1.0000 -0.9416276138
O   O46       1.0  0.52890  0.26445  0.90620  1.0000 -0.9416276138
O   O47       1.0  0.47110  0.73555  0.09380  1.0000 -0.9416276138
O   O48       1.0  0.26445  0.73555  0.40620  1.0000 -0.9416276138
O   O49       1.0  0.47110  0.73555  0.40620  1.0000 -0.9416276138
O   O50       1.0  0.73555  0.47110  0.90620  1.0000 -0.9416276138
O   O51       1.0  0.62010  0.57840  0.59851  1.0000 -0.5913081885
O   O52       1.0  0.42160  0.04170  0.59851  1.0000 -0.5913081885
O   O53       1.0  0.95830  0.37990  0.59851  1.0000 -0.5913081885
O   O54       1.0  0.57840  0.95830  0.09851  1.0000 -0.5913081885
O   O55       1.0  0.04170  0.62010  0.09851  1.0000 -0.5913081885
O   O56       1.0  0.57840  0.62010  0.40149  1.0000 -0.5913081885
O   O57       1.0  0.95830  0.57840  0.90149  1.0000 -0.5913081885
O   O58       1.0  0.62010  0.04170  0.90149  1.0000 -0.5913081885
O   O59       1.0  0.37990  0.42160  0.09851  1.0000 -0.5913081885
O   O60       1.0  0.04170  0.42160  0.40149  1.0000 -0.5913081885
O   O61       1.0  0.37990  0.95830  0.40149  1.0000 -0.5913081885
O   O62       1.0  0.42160  0.37990  0.90149  1.0000 -0.5913081885
O   O63       1.0  0.37990  0.42160  0.40149  1.0000 -0.5913081885
O   O64       1.0  0.57840  0.95830  0.40149  1.0000 -0.5913081885
O   O65       1.0  0.04170  0.62010  0.40149  1.0000 -0.5913081885
O   O66       1.0  0.42160  0.04170  0.90149  1.0000 -0.5913081885
O   O67       1.0  0.95830  0.37990  0.90149  1.0000 -0.5913081885
O   O68       1.0  0.42160  0.37990  0.59851  1.0000 -0.5913081885
O   O69       1.0  0.04170  0.42160  0.09851  1.0000 -0.5913081885
O   O70       1.0  0.37990  0.95830  0.09851  1.0000 -0.5913081885
O   O71       1.0  0.62010  0.57840  0.90149  1.0000 -0.5913081885
O   O72       1.0  0.95830  0.57840  0.59851  1.0000 -0.5913081885
O   O73       1.0  0.62010  0.04170  0.59851  1.0000 -0.5913081885
O   O74       1.0  0.57840  0.62010  0.09851  1.0000 -0.5913081885
O   O75       1.0  0.57230  0.62640  0.54178  1.0000 -0.5343589356
O   O76       1.0  0.37360  0.94590  0.54178  1.0000 -0.5351305774
O   O77       1.0  0.05410  0.42770  0.54178  1.0000 -0.5343589356
O   O78       1.0  0.62640  0.05410  0.04178  1.0000 -0.5343589356
O   O79       1.0  0.94590  0.57230  0.04178  1.0000 -0.5343589356
O   O80       1.0  0.62640  0.57230  0.45822  1.0000 -0.5343589356
O   O81       1.0  0.05410  0.62640  0.95822  1.0000 -0.5351305774
O   O82       1.0  0.57230  0.94590  0.95822  1.0000 -0.5351305774
O   O83       1.0  0.42770  0.37360  0.04178  1.0000 -0.5343589356
O   O84       1.0  0.94590  0.37360  0.45822  1.0000 -0.5343589356
O   O85       1.0  0.42770  0.05410  0.45822  1.0000 -0.5343589356
O   O86       1.0  0.37360  0.42770  0.95822  1.0000 -0.5343589356
O   O87       1.0  0.42770  0.37360  0.45822  1.0000 -0.5343589356
O   O88       1.0  0.62640  0.05410  0.45822  1.0000 -0.5343589356
O   O89       1.0  0.94590  0.57230  0.45822  1.0000 -0.5343589356
O   O90       1.0  0.37360  0.94590  0.95822  1.0000 -0.5351305774
O   O91       1.0  0.05410  0.42770  0.95822  1.0000 -0.5343589356
O   O92       1.0  0.37360  0.42770  0.54178  1.0000 -0.5343589356
O   O93       1.0  0.94590  0.37360  0.04178  1.0000 -0.5343589356
O   O94       1.0  0.42770  0.05410  0.04178  1.0000 -0.5343589356
O   O95       1.0  0.57230  0.62640  0.95822  1.0000 -0.5343589356
O   O96       1.0  0.05410  0.62640  0.54178  1.0000 -0.5351305774
O   O97       1.0  0.57230  0.94590  0.54178  1.0000 -0.5351305774
O   O98       1.0  0.62640  0.57230  0.04178  1.0000 -0.5343589356
