# DDEC6 charges by PACMAN v1.1 (https://github.com/mtap-research/PACMAN-charge/)
data_2006[Gd][pcu]3[ASR]1
_chemical_formula_sum              "Gd2 H12 C24 O12"
_cell_length_a       8.6066
_cell_length_b       10.156
_cell_length_c       11.161
_cell_angle_alpha    65.26
_cell_angle_beta     71.76
_cell_angle_gamma    78.68

_symmetry_space_group_name_H-M    "P 1"
_symmetry_Int_Tables_number       1

loop_
  _symmetry_equiv_pos_as_xyz
  'x, y, z'

loop_
  _atom_site_type_symbol
  _atom_site_label
  _atom_site_symmetry_multiplicity
  _atom_site_fract_x
  _atom_site_fract_y
  _atom_site_fract_z
  _atom_site_occupancy
  _atom_site_charge
Gd  Gd1       1.0  0.13186  0.43975  0.65329  1.0000 1.9627620238
Gd  Gd2       1.0  0.86814  0.56025  0.34671  1.0000 1.9627620238
H   H1        1.0  0.07130  0.21860  0.31890  1.0000 0.1278409282
H   H2        1.0  0.92870  0.78140  0.68110  1.0000 0.1278409282
H   H3        1.0  0.98330  0.97260  0.71970  1.0000 0.1278409282
H   H4        1.0  0.01670  0.02740  0.28030  1.0000 0.1278409282
H   H5        1.0  0.63470  0.11510  0.77270  1.0000 0.1226123045
H   H6        1.0  0.36530  0.88490  0.22730  1.0000 0.1226123045
H   H7        1.0  0.22870  0.06880  0.08110  1.0000 0.1125996257
H   H8        1.0  0.77130  0.93120  0.91890  1.0000 0.1125996257
H   H9        1.0  0.54250  0.35490  0.87770  1.0000 0.1125996257
H   H10       1.0  0.45750  0.64510  0.12230  1.0000 0.1125996257
H   H11       1.0  0.71600  0.61660  0.98520  1.0000 0.1226123045
H   H12       1.0  0.28400  0.38340  0.01480  1.0000 0.1226123045
C   C1        1.0  0.06840  0.23480  0.55260  1.0000 0.6180287259
C   C2        1.0  0.93160  0.76520  0.44740  1.0000 0.6180287259
C   C3        1.0  0.03260  0.11440  0.52360  1.0000 -0.0179354314
C   C4        1.0  0.96740  0.88560  0.47640  1.0000 -0.0179354314
C   C5        1.0  0.04280  0.13120  0.39150  1.0000 -0.1125252885
C   C6        1.0  0.95720  0.86880  0.60850  1.0000 -0.1125252885
C   C7        1.0  0.99000  0.98360  0.63130  1.0000 -0.1016329152
C   C8        1.0  0.01000  0.01640  0.36870  1.0000 -0.1016329152
C   C9        1.0  0.32540  0.23200  0.81990  1.0000 0.5634126919
C   C10       1.0  0.67460  0.76800  0.18010  1.0000 0.5634126919
C   C11       1.0  0.41740  0.11100  0.91110  1.0000 -0.0179354314
C   C12       1.0  0.58260  0.88900  0.08890  1.0000 -0.0179354314
C   C13       1.0  0.58010  0.06910  0.86400  1.0000 -0.1016329152
C   C14       1.0  0.41990  0.93090  0.13600  1.0000 -0.1016329152
C   C15       1.0  0.33800  0.04110  0.04820  1.0000 -0.1016329152
C   C16       1.0  0.66200  0.95890  0.95180  1.0000 -0.1016329152
C   C17       1.0  0.82110  0.46110  0.83090  1.0000 0.5663791555
C   C18       1.0  0.17890  0.53890  0.16910  1.0000 0.5663791555
C   C19       1.0  0.65480  0.48230  0.91760  1.0000 -0.0179354314
C   C20       1.0  0.34520  0.51770  0.08240  1.0000 -0.0179354314
C   C21       1.0  0.52530  0.41330  0.92700  1.0000 -0.1016329152
C   C22       1.0  0.47470  0.58670  0.07300  1.0000 -0.1016329152
C   C23       1.0  0.62960  0.56980  0.99100  1.0000 -0.1016329152
C   C24       1.0  0.37040  0.43020  0.00900  1.0000 -0.1016329152
O   O1        1.0  0.03620  0.36646  0.48056  1.0000 -0.719031666
O   O2        1.0  0.96380  0.63354  0.51944  1.0000 -0.719031666
O   O3        1.0  0.13110  0.20219  0.64910  1.0000 -0.5695557338
O   O4        1.0  0.86890  0.79781  0.35090  1.0000 -0.5695557338
O   O5        1.0  0.39780  0.29960  0.69548  1.0000 -0.6387694222
O   O6        1.0  0.60220  0.70040  0.30452  1.0000 -0.6387694222
O   O7        1.0  0.17830  0.26500  0.86895  1.0000 -0.6116117778
O   O8        1.0  0.82170  0.73500  0.13105  1.0000 -0.6116117778
O   O9        1.0  0.84310  0.38106  0.76416  1.0000 -0.6116117778
O   O10       1.0  0.15690  0.61894  0.23584  1.0000 -0.6116117778
O   O11       1.0  0.93690  0.52337  0.82501  1.0000 -0.6116117778
O   O12       1.0  0.06310  0.47663  0.17499  1.0000 -0.6116117778
