# DDEC6 charges by PACMAN v1.1 (https://github.com/mtap-research/PACMAN-charge/)
data_2007[DyRu][tfi]3[ASR]1
_chemical_formula_sum              "Dy2 P8 H16 Ru4 C8 O28"
_cell_length_a       9.61163
_cell_length_b       9.61163
_cell_length_c       15.548
_cell_angle_alpha    87.0698
_cell_angle_beta     92.9302
_cell_angle_gamma    80.9255

_symmetry_space_group_name_H-M    "P 1"
_symmetry_Int_Tables_number       1

loop_
  _symmetry_equiv_pos_as_xyz
  'x, y, z'

loop_
  _atom_site_type_symbol
  _atom_site_label
  _atom_site_symmetry_multiplicity
  _atom_site_fract_x
  _atom_site_fract_y
  _atom_site_fract_z
  _atom_site_occupancy
  _atom_site_charge
Dy  Dy1       1.0  0.98915  0.98915  0.75000  1.0000 2.1733333839
Dy  Dy2       1.0  0.01085  0.01085  0.25000  1.0000 2.1733333839
P   P1        1.0  0.04483  0.64607  0.64557  1.0000 1.2071673942
P   P2        1.0  0.64607  0.04483  0.85443  1.0000 1.2071673942
P   P3        1.0  0.95517  0.35393  0.35443  1.0000 1.2071673942
P   P4        1.0  0.35393  0.95517  0.14557  1.0000 1.2071673942
P   P5        1.0  0.97608  0.34850  0.65429  1.0000 1.2023589981
P   P6        1.0  0.34850  0.97608  0.84571  1.0000 1.2023589981
P   P7        1.0  0.02392  0.65150  0.34571  1.0000 1.2023589981
P   P8        1.0  0.65150  0.02392  0.15429  1.0000 1.2023589981
H   H1        1.0  0.16080  0.52480  0.81470  1.0000 0.1600190846
H   H2        1.0  0.52480  0.16080  0.68530  1.0000 0.1600190846
H   H3        1.0  0.83920  0.47520  0.18530  1.0000 0.1600190846
H   H4        1.0  0.47520  0.83920  0.31470  1.0000 0.1600190846
H   H5        1.0  0.13110  0.36570  0.81490  1.0000 0.1600190846
H   H6        1.0  0.36570  0.13110  0.68510  1.0000 0.1600190846
H   H7        1.0  0.86890  0.63430  0.18510  1.0000 0.1600190846
H   H8        1.0  0.63430  0.86890  0.31490  1.0000 0.1600190846
H   H9        1.0  0.22830  0.42210  0.74470  1.0000 0.1485930567
H   H10       1.0  0.42210  0.22830  0.75530  1.0000 0.1485930567
H   H11       1.0  0.77170  0.57790  0.25530  1.0000 0.1485930567
H   H12       1.0  0.57790  0.77170  0.24470  1.0000 0.1485930567
H   H13       1.0  0.82400  0.57800  0.73000  1.0000 0.3614903314
H   H14       1.0  0.57800  0.82400  0.77000  1.0000 0.3614903314
H   H15       1.0  0.17600  0.42200  0.27000  1.0000 0.3614903314
H   H16       1.0  0.42200  0.17600  0.23000  1.0000 0.3614903314
Ru  Ru1       1.0  0.12160  0.45448  0.50202  1.0000 0.9034561885
Ru  Ru2       1.0  0.45448  0.12160  0.99798  1.0000 0.9034561885
Ru  Ru3       1.0  0.87840  0.54552  0.49798  1.0000 0.9034561885
Ru  Ru4       1.0  0.54552  0.87840  0.00202  1.0000 0.9052562488
C   C1        1.0  0.01910  0.49370  0.71890  1.0000 -0.1763722117
C   C2        1.0  0.49370  0.01910  0.78110  1.0000 -0.1763722117
C   C3        1.0  0.98090  0.50630  0.28110  1.0000 -0.1763722117
C   C4        1.0  0.50630  0.98090  0.21890  1.0000 -0.1763722117
C   C5        1.0  0.14560  0.44760  0.77840  1.0000 -0.4120346161
C   C6        1.0  0.44760  0.14560  0.72160  1.0000 -0.4120346161
C   C7        1.0  0.85440  0.55240  0.22160  1.0000 -0.4120346161
C   C8        1.0  0.55240  0.85440  0.27840  1.0000 -0.4120346161
O   O1        1.0  0.16840  0.59160  0.58940  1.0000 -0.608185448
O   O2        1.0  0.59160  0.16840  0.91060  1.0000 -0.608185448
O   O3        1.0  0.83160  0.40840  0.41060  1.0000 -0.608185448
O   O4        1.0  0.40840  0.83160  0.08940  1.0000 -0.608185448
O   O5        1.0  0.90920  0.69000  0.58630  1.0000 -0.6709226
O   O6        1.0  0.69000  0.90920  0.91370  1.0000 -0.6709226
O   O7        1.0  0.09080  0.31000  0.41370  1.0000 -0.6709226
O   O8        1.0  0.31000  0.09080  0.08630  1.0000 -0.6709226
O   O9        1.0  0.07580  0.76580  0.69990  1.0000 -0.8420577275
O   O10       1.0  0.76580  0.07580  0.80010  1.0000 -0.8420577275
O   O11       1.0  0.92420  0.23420  0.30010  1.0000 -0.8420577275
O   O12       1.0  0.23420  0.92420  0.19990  1.0000 -0.8420577275
O   O13       1.0  0.10390  0.30810  0.59860  1.0000 -0.6438547301
O   O14       1.0  0.30810  0.10390  0.90140  1.0000 -0.6438547301
O   O15       1.0  0.89610  0.69190  0.40140  1.0000 -0.6438547301
O   O16       1.0  0.69190  0.89610  0.09860  1.0000 -0.6438547301
O   O17       1.0  0.84310  0.40470  0.59460  1.0000 -0.6466098803
O   O18       1.0  0.40470  0.84310  0.90540  1.0000 -0.6466098803
O   O19       1.0  0.15690  0.59530  0.40540  1.0000 -0.6466098803
O   O20       1.0  0.59530  0.15690  0.09460  1.0000 -0.6466098803
O   O21       1.0  0.95440  0.22780  0.71440  1.0000 -0.8328971344
O   O22       1.0  0.22780  0.95440  0.78560  1.0000 -0.8328971344
O   O23       1.0  0.04560  0.77220  0.28560  1.0000 -0.8328971344
O   O24       1.0  0.77220  0.04560  0.21440  1.0000 -0.8328971344
O   O25       1.0  0.89960  0.55040  0.76780  1.0000 -0.3972864973
O   O26       1.0  0.55040  0.89960  0.73220  1.0000 -0.3972864973
O   O27       1.0  0.10040  0.44960  0.23220  1.0000 -0.3972864973
O   O28       1.0  0.44960  0.10040  0.26780  1.0000 -0.3972864973
