# DDEC6 charges by PACMAN v1.1 (https://github.com/mtap-research/PACMAN-charge/)
data_2007[Eu][pcu]3[ASR]1
_chemical_formula_sum              "Eu2 H18 C36 N6 O12"
_cell_length_a       12.39
_cell_length_b       13.795
_cell_length_c       13.83
_cell_angle_alpha    115.769
_cell_angle_beta     93.914
_cell_angle_gamma    106.918

_symmetry_space_group_name_H-M    "P 1"
_symmetry_Int_Tables_number       1

loop_
  _symmetry_equiv_pos_as_xyz
  'x, y, z'

loop_
  _atom_site_type_symbol
  _atom_site_label
  _atom_site_symmetry_multiplicity
  _atom_site_fract_x
  _atom_site_fract_y
  _atom_site_fract_z
  _atom_site_occupancy
  _atom_site_charge
Eu  Eu1       1.0  0.32607  0.47464  0.46788  1.0000 2.0878603941
Eu  Eu2       1.0  0.67393  0.52536  0.53212  1.0000 2.0878603941
H   H1        1.0  0.43080  0.82700  0.49450  1.0000 0.1298435565
H   H2        1.0  0.56920  0.17300  0.50550  1.0000 0.1298435565
H   H3        1.0  0.80360  0.07880  0.63800  1.0000 0.0981852373
H   H4        1.0  0.19640  0.92120  0.36200  1.0000 0.0981852373
H   H5        1.0  0.75610  0.90520  0.64020  1.0000 0.1298435565
H   H6        1.0  0.24390  0.09480  0.35980  1.0000 0.1298435565
H   H7        1.0  0.30850  0.40540  0.67200  1.0000 0.1298435565
H   H8        1.0  0.69150  0.59460  0.32800  1.0000 0.1298435565
H   H9        1.0  0.21820  0.35270  0.79340  1.0000 0.1054280287
H   H10       1.0  0.78180  0.64730  0.20660  1.0000 0.1054280287
H   H11       1.0  0.61090  0.55910  0.89850  1.0000 0.1298435565
H   H12       1.0  0.38910  0.44090  0.10150  1.0000 0.1298435565
H   H13       1.0  0.96700  0.09990  0.24040  1.0000 0.1298435565
H   H14       1.0  0.03300  0.90010  0.75960  1.0000 0.1298435565
H   H15       1.0  0.86650  0.92030  0.21500  1.0000 0.0981852373
H   H16       1.0  0.13350  0.07970  0.78500  1.0000 0.0981852373
H   H17       1.0  0.10650  0.18430  0.54930  1.0000 0.1298435565
H   H18       1.0  0.89350  0.81570  0.45070  1.0000 0.1298435565
C   C1        1.0  0.55410  0.72940  0.56090  1.0000 0.6443628258
C   C2        1.0  0.44590  0.27060  0.43910  1.0000 0.6443628258
C   C3        1.0  0.58850  0.84630  0.56530  1.0000 0.0203280553
C   C4        1.0  0.41150  0.15370  0.43470  1.0000 0.0203280553
C   C5        1.0  0.50760  0.87670  0.52310  1.0000 -0.1520409697
C   C6        1.0  0.49240  0.12330  0.47690  1.0000 -0.1520409697
C   C7        1.0  0.54200  0.98250  0.52380  1.0000 0.1677461392
C   C8        1.0  0.45800  0.01750  0.47620  1.0000 0.164289493
C   C9        1.0  0.72750  0.02750  0.60800  1.0000 0.0789599455
C   C10       1.0  0.27250  0.97250  0.39200  1.0000 0.0789599455
C   C11       1.0  0.70000  0.92260  0.60970  1.0000 -0.1611347684
C   C12       1.0  0.30000  0.07740  0.39030  1.0000 -0.1611347684
C   C13       1.0  0.53360  0.51700  0.69370  1.0000 0.6136747486
C   C14       1.0  0.46640  0.48300  0.30630  1.0000 0.6151224262
C   C15       1.0  0.47020  0.48660  0.77150  1.0000 0.0295956606
C   C16       1.0  0.52980  0.51340  0.22850  1.0000 0.0295956606
C   C17       1.0  0.35120  0.42520  0.74010  1.0000 -0.1716802308
C   C18       1.0  0.64880  0.57480  0.25990  1.0000 -0.1716802308
C   C19       1.0  0.29740  0.39410  0.81420  1.0000 0.0747369415
C   C20       1.0  0.70260  0.60590  0.18580  1.0000 0.0747369415
C   C21       1.0  0.47040  0.48520  0.94430  1.0000 0.1677461392
C   C22       1.0  0.52960  0.51480  0.05570  1.0000 0.1677461392
C   C23       1.0  0.53170  0.51780  0.87570  1.0000 -0.1520409697
C   C24       1.0  0.46830  0.48220  0.12430  1.0000 -0.1520409697
C   C25       1.0  0.12800  0.27870  0.41780  1.0000 0.5738473422
C   C26       1.0  0.87200  0.72130  0.58220  1.0000 0.5738473422
C   C27       1.0  0.05080  0.16280  0.39820  1.0000 0.0203280553
C   C28       1.0  0.94920  0.83720  0.60180  1.0000 0.0295956606
C   C29       1.0  0.97600  0.08180  0.29720  1.0000 -0.1611347684
C   C30       1.0  0.02400  0.91820  0.70280  1.0000 -0.1611347684
C   C31       1.0  0.91560  0.97440  0.28330  1.0000 0.0625953412
C   C32       1.0  0.08440  0.02560  0.71670  1.0000 0.0625953412
C   C33       1.0  0.99490  0.01950  0.45750  1.0000 0.1677461392
C   C34       1.0  0.00510  0.98050  0.54250  1.0000 0.1677461392
C   C35       1.0  0.05890  0.13130  0.47990  1.0000 -0.1716802308
C   C36       1.0  0.94110  0.86870  0.52010  1.0000 -0.1716802308
N   N1        1.0  0.65250  0.05830  0.56670  1.0000 -0.2936450654
N   N2        1.0  0.34750  0.94170  0.43330  1.0000 -0.2936450654
N   N3        1.0  0.35590  0.42180  0.91390  1.0000 -0.3084227854
N   N4        1.0  0.64410  0.57820  0.08610  1.0000 -0.3084227854
N   N5        1.0  0.92220  0.94180  0.36060  1.0000 -0.2963925713
N   N6        1.0  0.07780  0.05820  0.63940  1.0000 -0.2963925713
O   O1        1.0  0.44750  0.66840  0.52390  1.0000 -0.6895384306
O   O2        1.0  0.55250  0.33160  0.47610  1.0000 -0.6895384306
O   O3        1.0  0.63260  0.70230  0.59060  1.0000 -0.6213422531
O   O4        1.0  0.36740  0.29770  0.40940  1.0000 -0.6213422531
O   O5        1.0  0.47370  0.50510  0.60890  1.0000 -0.7520251388
O   O6        1.0  0.52630  0.49490  0.39110  1.0000 -0.7520251388
O   O7        1.0  0.64050  0.54940  0.71370  1.0000 -0.5950101131
O   O8        1.0  0.35950  0.45060  0.28630  1.0000 -0.5950101131
O   O9        1.0  0.14070  0.29990  0.33980  1.0000 -0.6099323446
O   O10       1.0  0.85930  0.70010  0.66020  1.0000 -0.6099323446
O   O11       1.0  0.18240  0.35150  0.51540  1.0000 -0.6579962486
O   O12       1.0  0.81760  0.64850  0.48460  1.0000 -0.6579962486
