# DDEC6 charges by PACMAN v1.1 (https://github.com/mtap-research/PACMAN-charge/)
data_2007[Ni][dia]3[ASR]2
_chemical_formula_sum              "Ni4 H24 C72 O48"
_cell_length_a       11.1918
_cell_length_b       11.1918
_cell_length_c       31.561
_cell_angle_alpha    90
_cell_angle_beta     90
_cell_angle_gamma    90

_symmetry_space_group_name_H-M    "P 1"
_symmetry_Int_Tables_number       1

loop_
  _symmetry_equiv_pos_as_xyz
  'x, y, z'

loop_
  _atom_site_type_symbol
  _atom_site_label
  _atom_site_symmetry_multiplicity
  _atom_site_fract_x
  _atom_site_fract_y
  _atom_site_fract_z
  _atom_site_occupancy
  _atom_site_charge
Ni  Ni1       1.0  0.80066  0.80066  0.00000  1.0000 1.0308888115
Ni  Ni2       1.0  0.19934  0.19934  0.50000  1.0000 1.0308888115
Ni  Ni3       1.0  0.30066  0.69934  0.25000  1.0000 1.0308888115
Ni  Ni4       1.0  0.69934  0.30066  0.75000  1.0000 1.0308888115
H   H1        1.0  0.01190  0.82410  0.11470  1.0000 0.1328221641
H   H2        1.0  0.98810  0.17590  0.61470  1.0000 0.1328221641
H   H3        1.0  0.51190  0.67590  0.13530  1.0000 0.1328221641
H   H4        1.0  0.48810  0.32410  0.63530  1.0000 0.1328221641
H   H5        1.0  0.17590  0.98810  0.38530  1.0000 0.1328221641
H   H6        1.0  0.82410  0.01190  0.88530  1.0000 0.1328221641
H   H7        1.0  0.32410  0.48810  0.36470  1.0000 0.1328221641
H   H8        1.0  0.67590  0.51190  0.86470  1.0000 0.1328221641
H   H9        1.0  0.04120  0.17230  0.08490  1.0000 0.1328221641
H   H10       1.0  0.95880  0.82770  0.58490  1.0000 0.1328221641
H   H11       1.0  0.54120  0.32770  0.16510  1.0000 0.1328221641
H   H12       1.0  0.45880  0.67230  0.66510  1.0000 0.1328221641
H   H13       1.0  0.82770  0.95880  0.41510  1.0000 0.1328221641
H   H14       1.0  0.17230  0.04120  0.91510  1.0000 0.1328221641
H   H15       1.0  0.67230  0.45880  0.33490  1.0000 0.1328221641
H   H16       1.0  0.32770  0.54120  0.83490  1.0000 0.1328221641
H   H17       1.0  0.24070  0.03150  0.17880  1.0000 0.1328221641
H   H18       1.0  0.75930  0.96850  0.67880  1.0000 0.1328221641
H   H19       1.0  0.74070  0.46850  0.07120  1.0000 0.1328221641
H   H20       1.0  0.25930  0.53150  0.57120  1.0000 0.1328221641
H   H21       1.0  0.96850  0.75930  0.32120  1.0000 0.1328221641
H   H22       1.0  0.03150  0.24070  0.82120  1.0000 0.1328221641
H   H23       1.0  0.53150  0.25930  0.42880  1.0000 0.1328221641
H   H24       1.0  0.46850  0.74070  0.92880  1.0000 0.1328221641
C   C1        1.0  0.04640  0.89850  0.11942  1.0000 -0.0750740163
C   C2        1.0  0.95360  0.10150  0.61942  1.0000 -0.0750740163
C   C3        1.0  0.54640  0.60150  0.13058  1.0000 -0.0750740163
C   C4        1.0  0.45360  0.39850  0.63058  1.0000 -0.0750740163
C   C5        1.0  0.10150  0.95360  0.38058  1.0000 -0.0750740163
C   C6        1.0  0.89850  0.04640  0.88058  1.0000 -0.0750740163
C   C7        1.0  0.39850  0.45360  0.36942  1.0000 -0.0750740163
C   C8        1.0  0.60150  0.54640  0.86942  1.0000 -0.0750740163
C   C9        1.0  0.01350  0.99500  0.09400  1.0000 0.0032354272
C   C10       1.0  0.98650  0.00500  0.59400  1.0000 0.0032354272
C   C11       1.0  0.51350  0.50500  0.15600  1.0000 0.0032354272
C   C12       1.0  0.48650  0.49500  0.65600  1.0000 0.0032354272
C   C13       1.0  0.00500  0.98650  0.40600  1.0000 0.0032354272
C   C14       1.0  0.99500  0.01350  0.90600  1.0000 0.0052379703
C   C15       1.0  0.49500  0.48650  0.34400  1.0000 0.0032354272
C   C16       1.0  0.50500  0.51350  0.84400  1.0000 0.0032354272
C   C17       1.0  0.06460  0.10680  0.10104  1.0000 -0.0680910202
C   C18       1.0  0.93540  0.89320  0.60104  1.0000 -0.0680910202
C   C19       1.0  0.56460  0.39320  0.14896  1.0000 -0.0680910202
C   C20       1.0  0.43540  0.60680  0.64896  1.0000 -0.0680910202
C   C21       1.0  0.89320  0.93540  0.39896  1.0000 -0.0680910202
C   C22       1.0  0.10680  0.06460  0.89896  1.0000 -0.0680910202
C   C23       1.0  0.60680  0.43540  0.35104  1.0000 -0.0680910202
C   C24       1.0  0.39320  0.56460  0.85104  1.0000 -0.0680910202
C   C25       1.0  0.15160  0.11990  0.13271  1.0000 -0.0096692651
C   C26       1.0  0.84840  0.88010  0.63271  1.0000 -0.0096692651
C   C27       1.0  0.65160  0.38010  0.11729  1.0000 -0.0096692651
C   C28       1.0  0.34840  0.61990  0.61729  1.0000 -0.0096692651
C   C29       1.0  0.88010  0.84840  0.36729  1.0000 -0.0096692651
C   C30       1.0  0.11990  0.15160  0.86729  1.0000 -0.0096692651
C   C31       1.0  0.61990  0.34840  0.38271  1.0000 -0.0096692651
C   C32       1.0  0.38010  0.65160  0.88271  1.0000 -0.0096692651
C   C33       1.0  0.18320  0.02230  0.15775  1.0000 -0.0680910202
C   C34       1.0  0.81680  0.97770  0.65775  1.0000 -0.0680910202
C   C35       1.0  0.68320  0.47770  0.09225  1.0000 -0.0680910202
C   C36       1.0  0.31680  0.52230  0.59225  1.0000 -0.0680910202
C   C37       1.0  0.97770  0.81680  0.34225  1.0000 -0.0680910202
C   C38       1.0  0.02230  0.18320  0.84225  1.0000 -0.0680910202
C   C39       1.0  0.52230  0.31680  0.40775  1.0000 -0.0680910202
C   C40       1.0  0.47770  0.68320  0.90775  1.0000 -0.0680910202
C   C41       1.0  0.13010  0.91190  0.15172  1.0000 -0.0096692651
C   C42       1.0  0.86990  0.08810  0.65172  1.0000 -0.0096692651
C   C43       1.0  0.63010  0.58810  0.09828  1.0000 -0.0096692651
C   C44       1.0  0.36990  0.41190  0.59828  1.0000 -0.0096692651
C   C45       1.0  0.08810  0.86990  0.34828  1.0000 -0.0096692651
C   C46       1.0  0.91190  0.13010  0.84828  1.0000 -0.0096692651
C   C47       1.0  0.41190  0.36990  0.40172  1.0000 -0.0096692651
C   C48       1.0  0.58810  0.63010  0.90172  1.0000 -0.0096692651
C   C49       1.0  0.92230  0.97510  0.05977  1.0000 0.5418018259
C   C50       1.0  0.07770  0.02490  0.55977  1.0000 0.5418018259
C   C51       1.0  0.42230  0.52490  0.19023  1.0000 0.5418018259
C   C52       1.0  0.57770  0.47510  0.69023  1.0000 0.5418018259
C   C53       1.0  0.02490  0.07770  0.44023  1.0000 0.5418018259
C   C54       1.0  0.97510  0.92230  0.94023  1.0000 0.5418018259
C   C55       1.0  0.47510  0.57770  0.30977  1.0000 0.5418018259
C   C56       1.0  0.52490  0.42230  0.80977  1.0000 0.5418018259
C   C57       1.0  0.20700  0.24090  0.13934  1.0000 0.4994197048
C   C58       1.0  0.79300  0.75910  0.63934  1.0000 0.4994197048
C   C59       1.0  0.70700  0.25910  0.11066  1.0000 0.4994197048
C   C60       1.0  0.29300  0.74090  0.61066  1.0000 0.4994197048
C   C61       1.0  0.75910  0.79300  0.36066  1.0000 0.4994197048
C   C62       1.0  0.24090  0.20700  0.86066  1.0000 0.4994197048
C   C63       1.0  0.74090  0.29300  0.38934  1.0000 0.4994197048
C   C64       1.0  0.25910  0.70700  0.88934  1.0000 0.4994197048
C   C65       1.0  0.15800  0.80710  0.18004  1.0000 0.5454628624
C   C66       1.0  0.84200  0.19290  0.68004  1.0000 0.5418018259
C   C67       1.0  0.65800  0.69290  0.06996  1.0000 0.5418018259
C   C68       1.0  0.34200  0.30710  0.56996  1.0000 0.5418018259
C   C69       1.0  0.19290  0.84200  0.31996  1.0000 0.5418018259
C   C70       1.0  0.80710  0.15800  0.81996  1.0000 0.5418018259
C   C71       1.0  0.30710  0.34200  0.43004  1.0000 0.5418018259
C   C72       1.0  0.69290  0.65800  0.93004  1.0000 0.5418018259
O   O1        1.0  0.09362  0.71579  0.17613  1.0000 -0.3686261505
O   O2        1.0  0.90638  0.28421  0.67613  1.0000 -0.3686261505
O   O3        1.0  0.59362  0.78421  0.07387  1.0000 -0.3686261505
O   O4        1.0  0.40638  0.21579  0.57387  1.0000 -0.3686261505
O   O5        1.0  0.28421  0.90638  0.32387  1.0000 -0.3686261505
O   O6        1.0  0.71579  0.09362  0.82387  1.0000 -0.3686261505
O   O7        1.0  0.21579  0.40638  0.42613  1.0000 -0.3686261505
O   O8        1.0  0.78421  0.59362  0.92613  1.0000 -0.3686261505
O   O9        1.0  0.24233  0.82061  0.20618  1.0000 -0.4598856076
O   O10       1.0  0.75767  0.17939  0.70618  1.0000 -0.4598856076
O   O11       1.0  0.74233  0.67939  0.04382  1.0000 -0.4598856076
O   O12       1.0  0.25767  0.32061  0.54382  1.0000 -0.4598856076
O   O13       1.0  0.17939  0.75767  0.29382  1.0000 -0.4598856076
O   O14       1.0  0.82061  0.24233  0.79382  1.0000 -0.4598856076
O   O15       1.0  0.32061  0.25767  0.45618  1.0000 -0.4598856076
O   O16       1.0  0.67939  0.74233  0.95618  1.0000 -0.4598856076
O   O17       1.0  0.85711  0.06167  0.04810  1.0000 -0.3269085374
O   O18       1.0  0.14289  0.93833  0.54810  1.0000 -0.3269085374
O   O19       1.0  0.35711  0.43833  0.20190  1.0000 -0.3269085374
O   O20       1.0  0.64289  0.56167  0.70190  1.0000 -0.3269085374
O   O21       1.0  0.93833  0.14289  0.45190  1.0000 -0.3269085374
O   O22       1.0  0.06167  0.85711  0.95190  1.0000 -0.3269085374
O   O23       1.0  0.56167  0.64289  0.29810  1.0000 -0.3269085374
O   O24       1.0  0.43833  0.35711  0.79810  1.0000 -0.3269085374
O   O25       1.0  0.91525  0.87059  0.04521  1.0000 -0.4820137165
O   O26       1.0  0.08475  0.12941  0.54521  1.0000 -0.4820137165
O   O27       1.0  0.41525  0.62941  0.20479  1.0000 -0.4820137165
O   O28       1.0  0.58475  0.37059  0.70479  1.0000 -0.4820137165
O   O29       1.0  0.12941  0.08475  0.45479  1.0000 -0.4820137165
O   O30       1.0  0.87059  0.91525  0.95479  1.0000 -0.4820137165
O   O31       1.0  0.37059  0.58475  0.29521  1.0000 -0.4820137165
O   O32       1.0  0.62941  0.41525  0.79521  1.0000 -0.4820137165
O   O33       1.0  0.28920  0.23950  0.16936  1.0000 -0.3059404932
O   O34       1.0  0.71080  0.76050  0.66936  1.0000 -0.3059404932
O   O35       1.0  0.78920  0.26050  0.08064  1.0000 -0.3059404932
O   O36       1.0  0.21080  0.73950  0.58064  1.0000 -0.3059404932
O   O37       1.0  0.76050  0.71080  0.33064  1.0000 -0.3059404932
O   O38       1.0  0.23950  0.28920  0.83064  1.0000 -0.3059404932
O   O39       1.0  0.73950  0.21080  0.41936  1.0000 -0.3059404932
O   O40       1.0  0.26050  0.78920  0.91936  1.0000 -0.3059404932
O   O41       1.0  0.18000  0.32798  0.11923  1.0000 -0.3269085374
O   O42       1.0  0.82000  0.67202  0.61923  1.0000 -0.3269085374
O   O43       1.0  0.68000  0.17202  0.13077  1.0000 -0.3269085374
O   O44       1.0  0.32000  0.82798  0.63077  1.0000 -0.3269085374
O   O45       1.0  0.67202  0.82000  0.38077  1.0000 -0.3269085374
O   O46       1.0  0.32798  0.18000  0.88077  1.0000 -0.3269085374
O   O47       1.0  0.82798  0.32000  0.36923  1.0000 -0.3269085374
O   O48       1.0  0.17202  0.68000  0.86923  1.0000 -0.3269085374
