# DDEC6 charges by PACMAN v1.1 (https://github.com/mtap-research/PACMAN-charge/)
data_2007[Cd][dia]3[ASR]6
_chemical_formula_sum              "Cd2 H48 C72 N8 F16"
_cell_length_a       12.9299
_cell_length_b       13.18
_cell_length_c       16.5203
_cell_angle_alpha    111.361
_cell_angle_beta     108.278
_cell_angle_gamma    93.778

_symmetry_space_group_name_H-M    "P 1"
_symmetry_Int_Tables_number       1

loop_
  _symmetry_equiv_pos_as_xyz
  'x, y, z'

loop_
  _atom_site_type_symbol
  _atom_site_label
  _atom_site_symmetry_multiplicity
  _atom_site_fract_x
  _atom_site_fract_y
  _atom_site_fract_z
  _atom_site_occupancy
  _atom_site_charge
Cd  Cd1       1.0  0.61734  0.37521  0.74587  1.0000 0.6000368727
Cd  Cd2       1.0  0.38266  0.62479  0.25413  1.0000 0.6000368727
H   H1        1.0  0.54320  0.20090  0.52620  1.0000 0.0911154458
H   H2        1.0  0.45680  0.79910  0.47380  1.0000 0.0911154458
H   H3        1.0  0.83850  0.32560  0.70890  1.0000 0.098345588
H   H4        1.0  0.16150  0.67440  0.29110  1.0000 0.098345588
H   H5        1.0  0.60840  0.10490  0.41600  1.0000 0.1400123221
H   H6        1.0  0.39160  0.89510  0.58400  1.0000 0.1400123221
H   H7        1.0  0.91770  0.23740  0.60490  1.0000 0.1400123221
H   H8        1.0  0.08230  0.76260  0.39510  1.0000 0.1400123221
H   H9        1.0  0.84810  0.15080  0.40380  1.0000 0.1295280427
H   H10       1.0  0.15190  0.84920  0.59620  1.0000 0.1295280427
H   H11       1.0  0.76290  0.04090  0.37220  1.0000 0.1295280427
H   H12       1.0  0.23710  0.95910  0.62780  1.0000 0.1295280427
H   H13       1.0  0.69240  0.15600  0.77040  1.0000 0.098345588
H   H14       1.0  0.30760  0.84400  0.22960  1.0000 0.098345588
H   H15       1.0  0.78820  0.46130  0.95960  1.0000 0.0911154458
H   H16       1.0  0.21180  0.53870  0.04040  1.0000 0.0911154458
H   H17       1.0  0.78460  0.09020  0.87410  1.0000 0.1400123221
H   H18       1.0  0.21540  0.90980  0.12590  1.0000 0.1400123221
H   H19       1.0  0.88470  0.39790  0.06730  1.0000 0.1295280427
H   H20       1.0  0.11530  0.60210  0.93270  1.0000 0.1295280427
H   H21       1.0  0.85730  0.18470  0.08850  1.0000 0.1295280427
H   H22       1.0  0.14270  0.81530  0.91150  1.0000 0.1295280427
H   H23       1.0  0.96260  0.25840  0.10770  1.0000 0.120673651
H   H24       1.0  0.03740  0.74160  0.89230  1.0000 0.120673651
H   H25       1.0  0.70270  0.63590  0.87990  1.0000 0.098345588
H   H26       1.0  0.29730  0.36410  0.12010  1.0000 0.098345588
H   H27       1.0  0.45590  0.43830  0.86270  1.0000 0.098345588
H   H28       1.0  0.54410  0.56170  0.13730  1.0000 0.098345588
H   H29       1.0  0.64720  0.78750  0.97250  1.0000 0.1400123221
H   H30       1.0  0.35280  0.21250  0.02750  1.0000 0.1400123221
H   H31       1.0  0.40220  0.57980  0.95780  1.0000 0.1295280427
H   H32       1.0  0.59780  0.42020  0.04220  1.0000 0.1295280427
H   H33       1.0  0.41330  0.77700  0.03370  1.0000 0.120673651
H   H34       1.0  0.58670  0.22300  0.96630  1.0000 0.120673651
H   H35       1.0  0.53070  0.81840  0.10210  1.0000 0.120673651
H   H36       1.0  0.46930  0.18160  0.89790  1.0000 0.120673651
H   H37       1.0  0.53700  0.55500  0.66900  1.0000 0.0911154458
H   H38       1.0  0.46300  0.44500  0.33100  1.0000 0.0911154458
H   H39       1.0  0.37240  0.25490  0.58670  1.0000 0.0911154458
H   H40       1.0  0.62760  0.74510  0.41330  1.0000 0.0911154458
H   H41       1.0  0.40200  0.58800  0.55900  1.0000 0.1295280427
H   H42       1.0  0.59800  0.41200  0.44100  1.0000 0.1295280427
H   H43       1.0  0.22400  0.29160  0.48270  1.0000 0.1400123221
H   H44       1.0  0.77600  0.70840  0.51730  1.0000 0.1400123221
H   H45       1.0  0.17440  0.41250  0.38500  1.0000 0.120673651
H   H46       1.0  0.82560  0.58750  0.61500  1.0000 0.120673651
H   H47       1.0  0.22220  0.53700  0.44100  1.0000 0.1139488426
H   H48       1.0  0.77780  0.46300  0.55900  1.0000 0.1139488426
C   C1        1.0  0.61922  0.21089  0.54222  1.0000 0.0319674999
C   C2        1.0  0.38078  0.78911  0.45778  1.0000 0.0319674999
C   C3        1.0  0.79511  0.28520  0.64990  1.0000 0.0511280524
C   C4        1.0  0.20489  0.71480  0.35010  1.0000 0.0511280524
C   C5        1.0  0.65823  0.15307  0.47377  1.0000 -0.2086312018
C   C6        1.0  0.34177  0.84693  0.52623  1.0000 -0.2086312018
C   C7        1.0  0.84066  0.23050  0.58549  1.0000 -0.2086312018
C   C8        1.0  0.15934  0.76950  0.41451  1.0000 -0.2086312018
C   C9        1.0  0.77198  0.16204  0.49481  1.0000 0.1660978628
C   C10       1.0  0.22802  0.83796  0.50519  1.0000 0.1660978628
C   C11       1.0  0.81761  0.09773  0.42128  1.0000 -0.2791266757
C   C12       1.0  0.18239  0.90227  0.57872  1.0000 -0.2791266757
C   C13       1.0  0.91161  0.04729  0.46046  1.0000 -0.0781894586
C   C14       1.0  0.08839  0.95271  0.53954  1.0000 -0.0781894586
C   C15       1.0  0.89201  0.94610  0.46708  1.0000 0.098345588
C   C16       1.0  0.10799  0.05390  0.53292  1.0000 0.098345588
C   C17       1.0  0.97758  0.90028  0.50451  1.0000 0.0911154458
C   C18       1.0  0.02242  0.09972  0.49549  1.0000 0.0911154458
C   C19       1.0  0.73034  0.20359  0.83055  1.0000 0.0439948571
C   C20       1.0  0.26966  0.79641  0.16945  1.0000 0.0439948571
C   C21       1.0  0.78581  0.38187  0.94187  1.0000 0.0319674999
C   C22       1.0  0.21419  0.61813  0.05813  1.0000 0.0319674999
C   C23       1.0  0.78751  0.16263  0.89352  1.0000 -0.1895423698
C   C24       1.0  0.21249  0.83737  0.10648  1.0000 -0.1895423698
C   C25       1.0  0.84482  0.34695  0.00881  1.0000 -0.2086312018
C   C26       1.0  0.15518  0.65305  0.99119  1.0000 -0.2086312018
C   C27       1.0  0.84549  0.23458  0.98556  1.0000 0.1516288005
C   C28       1.0  0.15451  0.76542  0.01444  1.0000 0.1516288005
C   C29       1.0  0.90483  0.19761  0.06158  1.0000 -0.2725515681
C   C30       1.0  0.09517  0.80239  0.93842  1.0000 -0.2725515681
C   C31       1.0  0.95255  0.09528  0.02870  1.0000 -0.0781894586
C   C32       1.0  0.04745  0.90472  0.97130  1.0000 -0.0781894586
C   C33       1.0  0.05516  0.10235  0.01935  1.0000 0.098345588
C   C34       1.0  0.94484  0.89765  0.98065  1.0000 0.098345588
C   C35       1.0  0.10068  0.00991  0.99154  1.0000 0.0911154458
C   C36       1.0  0.89932  0.99009  0.00846  1.0000 0.0911154458
C   C37       1.0  0.63950  0.62891  0.89721  1.0000 0.0439948571
C   C38       1.0  0.36050  0.37109  0.10279  1.0000 0.0439948571
C   C39       1.0  0.49547  0.51010  0.88684  1.0000 0.0319674999
C   C40       1.0  0.50453  0.48990  0.11316  1.0000 0.0319674999
C   C41       1.0  0.61054  0.71953  0.95343  1.0000 -0.1895423698
C   C42       1.0  0.38946  0.28047  0.04657  1.0000 -0.1895423698
C   C43       1.0  0.46316  0.59647  0.94364  1.0000 -0.2187343629
C   C44       1.0  0.53684  0.40353  0.05636  1.0000 -0.2187343629
C   C45       1.0  0.51994  0.70474  0.97782  1.0000 0.1516288005
C   C46       1.0  0.48006  0.29526  0.02218  1.0000 0.1516288005
C   C47       1.0  0.48605  0.80128  0.04103  1.0000 -0.2725515681
C   C48       1.0  0.51395  0.19872  0.95897  1.0000 -0.2725515681
C   C49       1.0  0.49415  0.90390  0.02033  1.0000 -0.0781894586
C   C50       1.0  0.50585  0.09610  0.97967  1.0000 -0.0781894586
C   C51       1.0  0.41533  0.91113  0.94493  1.0000 0.0911154458
C   C52       1.0  0.58467  0.08887  0.05507  1.0000 0.0911154458
C   C53       1.0  0.42020  0.00443  0.92502  1.0000 0.098345588
C   C54       1.0  0.57980  0.99557  0.07498  1.0000 0.098345588
C   C55       1.0  0.47015  0.50080  0.63030  1.0000 0.0319674999
C   C56       1.0  0.52985  0.49920  0.36970  1.0000 0.0319674999
C   C57       1.0  0.37284  0.32735  0.58125  1.0000 0.0439948571
C   C58       1.0  0.62716  0.67265  0.41875  1.0000 0.0439948571
C   C59       1.0  0.38501  0.52608  0.57080  1.0000 -0.2187343629
C   C60       1.0  0.61499  0.47392  0.42920  1.0000 -0.2187343629
C   C61       1.0  0.28436  0.34613  0.51907  1.0000 -0.1895423698
C   C62       1.0  0.71564  0.65387  0.48093  1.0000 -0.1895423698
C   C63       1.0  0.28992  0.44767  0.51274  1.0000 0.1516288005
C   C64       1.0  0.71008  0.55233  0.48726  1.0000 0.1516288005
C   C65       1.0  0.19497  0.47141  0.44479  1.0000 -0.2791266757
C   C66       1.0  0.80503  0.52859  0.55521  1.0000 -0.2791266757
C   C67       1.0  0.09481  0.48488  0.47352  1.0000 -0.0781894586
C   C68       1.0  0.90519  0.51512  0.52648  1.0000 -0.0781894586
C   C69       1.0  0.09342  0.58037  0.54444  1.0000 0.098345588
C   C70       1.0  0.90658  0.41963  0.45556  1.0000 0.098345588
C   C71       1.0  0.00223  0.59582  0.57055  1.0000 0.098345588
C   C72       1.0  0.99777  0.40418  0.42945  1.0000 0.098345588
N   N1        1.0  0.68551  0.27676  0.63006  1.0000 -0.2520332403
N   N2        1.0  0.31449  0.72324  0.36994  1.0000 -0.2520332403
N   N3        1.0  0.72794  0.31188  0.85322  1.0000 -0.2520332403
N   N4        1.0  0.27206  0.68812  0.14678  1.0000 -0.2520332403
N   N5        1.0  0.58345  0.52443  0.86231  1.0000 -0.2520332403
N   N6        1.0  0.41655  0.47557  0.13769  1.0000 -0.2520332403
N   N7        1.0  0.46620  0.40266  0.63587  1.0000 -0.2379927206
N   N8        1.0  0.53380  0.59734  0.36413  1.0000 -0.2379927206
F   F1        1.0  0.78622  0.89153  0.43624  1.0000 -0.153526658
F   F2        1.0  0.21378  0.10847  0.56376  1.0000 -0.153526658
F   F3        1.0  0.95224  0.80086  0.50723  1.0000 -0.1310177947
F   F4        1.0  0.04776  0.19914  0.49277  1.0000 -0.1310177947
F   F5        1.0  0.11319  0.20257  0.03875  1.0000 -0.153526658
F   F6        1.0  0.88681  0.79743  0.96125  1.0000 -0.153526658
F   F7        1.0  0.20150  0.02405  0.98414  1.0000 -0.1368708628
F   F8        1.0  0.79850  0.97595  0.01586  1.0000 -0.1368708628
F   F9        1.0  0.32992  0.82335  0.88764  1.0000 -0.1310177947
F   F10       1.0  0.67008  0.17665  0.11236  1.0000 -0.1310177947
F   F11       1.0  0.33817  0.00424  0.85065  1.0000 -0.1310177947
F   F12       1.0  0.66183  0.99576  0.14935  1.0000 -0.1310177947
F   F13       1.0  0.18559  0.66236  0.59102  1.0000 -0.1186039241
F   F14       1.0  0.81441  0.33764  0.40898  1.0000 -0.1186039241
F   F15       1.0  0.00931  0.69161  0.64156  1.0000 -0.1310177947
F   F16       1.0  0.99069  0.30839  0.35844  1.0000 -0.1310177947
