# DDEC6 charges by PACMAN v1.1 (https://github.com/mtap-research/PACMAN-charge/)
data_2007[Zn][bcs]3[ASR]1
_chemical_formula_sum              "Zn32 H192 C384 O104"
_cell_length_a       24.9329
_cell_length_b       24.9329
_cell_length_c       24.9329
_cell_angle_alpha    109.471
_cell_angle_beta     109.471
_cell_angle_gamma    109.471

_symmetry_space_group_name_H-M    "P 1"
_symmetry_Int_Tables_number       1

loop_
  _symmetry_equiv_pos_as_xyz
  'x, y, z'

loop_
  _atom_site_type_symbol
  _atom_site_label
  _atom_site_symmetry_multiplicity
  _atom_site_fract_x
  _atom_site_fract_y
  _atom_site_fract_z
  _atom_site_occupancy
  _atom_site_charge
Zn  Zn1       1.0  0.00578  0.00578  0.00578  1.0000 0.8901949556
Zn  Zn2       1.0  0.50000  0.00000  0.49422  1.0000 0.8901949556
Zn  Zn3       1.0  0.00000  0.49422  0.50000  1.0000 0.8901949556
Zn  Zn4       1.0  0.49422  0.50000  0.00000  1.0000 0.8901949556
Zn  Zn5       1.0  0.50578  0.50578  0.50578  1.0000 0.8901949556
Zn  Zn6       1.0  0.50000  0.00000  0.99422  1.0000 0.8901949556
Zn  Zn7       1.0  0.99422  0.50000  0.00000  1.0000 0.8901949556
Zn  Zn8       1.0  0.00000  0.99422  0.50000  1.0000 0.8901949556
Zn  Zn9       1.0  0.05255  0.13074  0.13447  1.0000 0.9769341803
Zn  Zn10      1.0  0.49627  0.91808  0.36553  1.0000 0.9769341803
Zn  Zn11      1.0  0.00373  0.36926  0.42181  1.0000 0.9769341803
Zn  Zn12      1.0  0.44745  0.58192  0.07819  1.0000 0.9769341803
Zn  Zn13      1.0  0.13447  0.05255  0.13074  1.0000 0.9769341803
Zn  Zn14      1.0  0.36553  0.49627  0.91808  1.0000 0.9769341803
Zn  Zn15      1.0  0.42181  0.00373  0.36926  1.0000 0.9769341803
Zn  Zn16      1.0  0.07819  0.44745  0.58192  1.0000 0.9769341803
Zn  Zn17      1.0  0.13074  0.13447  0.05255  1.0000 0.9769341803
Zn  Zn18      1.0  0.91808  0.36553  0.49627  1.0000 0.9769341803
Zn  Zn19      1.0  0.36926  0.42181  0.00373  1.0000 0.9769341803
Zn  Zn20      1.0  0.58192  0.07819  0.44745  1.0000 0.9769341803
Zn  Zn21      1.0  0.63074  0.55255  0.63447  1.0000 0.9769341803
Zn  Zn22      1.0  0.41808  0.99627  0.86553  1.0000 0.9769341803
Zn  Zn23      1.0  0.86926  0.50373  0.92181  1.0000 0.9769341803
Zn  Zn24      1.0  0.08192  0.94745  0.57819  1.0000 0.9769341803
Zn  Zn25      1.0  0.55255  0.63447  0.63074  1.0000 0.9769341803
Zn  Zn26      1.0  0.99627  0.86553  0.41808  1.0000 0.9769341803
Zn  Zn27      1.0  0.50373  0.92181  0.86926  1.0000 0.9769341803
Zn  Zn28      1.0  0.94745  0.57819  0.08192  1.0000 0.9769341803
Zn  Zn29      1.0  0.63447  0.63074  0.55255  1.0000 0.9769341803
Zn  Zn30      1.0  0.86553  0.41808  0.99627  1.0000 0.9769341803
Zn  Zn31      1.0  0.92181  0.86926  0.50373  1.0000 0.9769341803
Zn  Zn32      1.0  0.57819  0.08192  0.94745  1.0000 0.9769341803
H   H1        1.0  0.91330  0.11930  0.97600  1.0000 0.1189698521
H   H2        1.0  0.64330  0.93730  0.52400  1.0000 0.1189698521
H   H3        1.0  0.85670  0.38070  0.29400  1.0000 0.1189698521
H   H4        1.0  0.58670  0.56270  0.20600  1.0000 0.1189698521
H   H5        1.0  0.97600  0.91330  0.11930  1.0000 0.1189698521
H   H6        1.0  0.52400  0.64330  0.93730  1.0000 0.1189698521
H   H7        1.0  0.29400  0.85670  0.38070  1.0000 0.1189698521
H   H8        1.0  0.20600  0.58670  0.56270  1.0000 0.1189698521
H   H9        1.0  0.11930  0.97600  0.91330  1.0000 0.1189698521
H   H10       1.0  0.93730  0.52400  0.64330  1.0000 0.1189698521
H   H11       1.0  0.38070  0.29400  0.85670  1.0000 0.1189698521
H   H12       1.0  0.56270  0.20600  0.58670  1.0000 0.1189698521
H   H13       1.0  0.61930  0.41330  0.47600  1.0000 0.1189698521
H   H14       1.0  0.43730  0.14330  0.02400  1.0000 0.1189698521
H   H15       1.0  0.88070  0.35670  0.79400  1.0000 0.1189698521
H   H16       1.0  0.06270  0.08670  0.70600  1.0000 0.1189698521
H   H17       1.0  0.41330  0.47600  0.61930  1.0000 0.1189698521
H   H18       1.0  0.14330  0.02400  0.43730  1.0000 0.1189698521
H   H19       1.0  0.35670  0.79400  0.88070  1.0000 0.1189698521
H   H20       1.0  0.08670  0.70600  0.06270  1.0000 0.1189698521
H   H21       1.0  0.47600  0.61930  0.41330  1.0000 0.1189698521
H   H22       1.0  0.02400  0.43730  0.14330  1.0000 0.1189698521
H   H23       1.0  0.79400  0.88070  0.35670  1.0000 0.1189698521
H   H24       1.0  0.70600  0.06270  0.08670  1.0000 0.1189698521
H   H25       1.0  0.87620  0.16710  0.92030  1.0000 0.1082068648
H   H26       1.0  0.74680  0.95590  0.57970  1.0000 0.1082068648
H   H27       1.0  0.75320  0.33290  0.20910  1.0000 0.1082068648
H   H28       1.0  0.62380  0.54410  0.29090  1.0000 0.1082068648
H   H29       1.0  0.92030  0.87620  0.16710  1.0000 0.1082068648
H   H30       1.0  0.57970  0.74680  0.95590  1.0000 0.1082068648
H   H31       1.0  0.20910  0.75320  0.33290  1.0000 0.1082068648
H   H32       1.0  0.29090  0.62380  0.54410  1.0000 0.1082068648
H   H33       1.0  0.16710  0.92030  0.87620  1.0000 0.1082068648
H   H34       1.0  0.95590  0.57970  0.74680  1.0000 0.1082068648
H   H35       1.0  0.33290  0.20910  0.75320  1.0000 0.1082068648
H   H36       1.0  0.54410  0.29090  0.62380  1.0000 0.1082068648
H   H37       1.0  0.66710  0.37620  0.42030  1.0000 0.1082068648
H   H38       1.0  0.45590  0.24680  0.07970  1.0000 0.1082068648
H   H39       1.0  0.83290  0.25320  0.70910  1.0000 0.1082068648
H   H40       1.0  0.04410  0.12380  0.79090  1.0000 0.1082068648
H   H41       1.0  0.37620  0.42030  0.66710  1.0000 0.1082068648
H   H42       1.0  0.24680  0.07970  0.45590  1.0000 0.1082068648
H   H43       1.0  0.25320  0.70910  0.83290  1.0000 0.1082068648
H   H44       1.0  0.12380  0.79090  0.04410  1.0000 0.1082068648
H   H45       1.0  0.42030  0.66710  0.37620  1.0000 0.1082068648
H   H46       1.0  0.07970  0.45590  0.24680  1.0000 0.1082068648
H   H47       1.0  0.70910  0.83290  0.25320  1.0000 0.1082068648
H   H48       1.0  0.79090  0.04410  0.12380  1.0000 0.1082068648
H   H49       1.0  0.70230  0.08570  0.90520  1.0000 0.1189698521
H   H50       1.0  0.68050  0.79710  0.59480  1.0000 0.1189698521
H   H51       1.0  0.81950  0.41430  0.11660  1.0000 0.1189698521
H   H52       1.0  0.79770  0.70290  0.38340  1.0000 0.1189698521
H   H53       1.0  0.90520  0.70230  0.08570  1.0000 0.1189698521
H   H54       1.0  0.59480  0.68050  0.79710  1.0000 0.1189698521
H   H55       1.0  0.11660  0.81950  0.41430  1.0000 0.1189698521
H   H56       1.0  0.38340  0.79770  0.70290  1.0000 0.1189698521
H   H57       1.0  0.08570  0.90520  0.70230  1.0000 0.1189698521
H   H58       1.0  0.79710  0.59480  0.68050  1.0000 0.1189698521
H   H59       1.0  0.41430  0.11660  0.81950  1.0000 0.1189698521
H   H60       1.0  0.70290  0.38340  0.79770  1.0000 0.1189698521
H   H61       1.0  0.58570  0.20230  0.40520  1.0000 0.1189698521
H   H62       1.0  0.29710  0.18050  0.09480  1.0000 0.1189698521
H   H63       1.0  0.91430  0.31950  0.61660  1.0000 0.1189698521
H   H64       1.0  0.20290  0.29770  0.88340  1.0000 0.1189698521
H   H65       1.0  0.20230  0.40520  0.58570  1.0000 0.1189698521
H   H66       1.0  0.18050  0.09480  0.29710  1.0000 0.1189698521
H   H67       1.0  0.31950  0.61660  0.91430  1.0000 0.1189698521
H   H68       1.0  0.29770  0.88340  0.20290  1.0000 0.1189698521
H   H69       1.0  0.40520  0.58570  0.20230  1.0000 0.1189698521
H   H70       1.0  0.09480  0.29710  0.18050  1.0000 0.1189698521
H   H71       1.0  0.61660  0.91430  0.31950  1.0000 0.1189698521
H   H72       1.0  0.88340  0.20290  0.29770  1.0000 0.1189698521
H   H73       1.0  0.77330  0.14740  0.88470  1.0000 0.1189698521
H   H74       1.0  0.76270  0.88860  0.61530  1.0000 0.1189698521
H   H75       1.0  0.73730  0.35260  0.12590  1.0000 0.1189698521
H   H76       1.0  0.72670  0.61140  0.37410  1.0000 0.1189698521
H   H77       1.0  0.88470  0.77330  0.14740  1.0000 0.1189698521
H   H78       1.0  0.61530  0.76270  0.88860  1.0000 0.1189698521
H   H79       1.0  0.12590  0.73730  0.35260  1.0000 0.1189698521
H   H80       1.0  0.37410  0.72670  0.61140  1.0000 0.1189698521
H   H81       1.0  0.14740  0.88470  0.77330  1.0000 0.1189698521
H   H82       1.0  0.88860  0.61530  0.76270  1.0000 0.1189698521
H   H83       1.0  0.35260  0.12590  0.73730  1.0000 0.1189698521
H   H84       1.0  0.61140  0.37410  0.72670  1.0000 0.1189698521
H   H85       1.0  0.64740  0.27330  0.38470  1.0000 0.1189698521
H   H86       1.0  0.38860  0.26270  0.11530  1.0000 0.1189698521
H   H87       1.0  0.85260  0.23730  0.62590  1.0000 0.1189698521
H   H88       1.0  0.11140  0.22670  0.87410  1.0000 0.1189698521
H   H89       1.0  0.27330  0.38470  0.64740  1.0000 0.1189698521
H   H90       1.0  0.26270  0.11530  0.38860  1.0000 0.1189698521
H   H91       1.0  0.23730  0.62590  0.85260  1.0000 0.1189698521
H   H92       1.0  0.22670  0.87410  0.11140  1.0000 0.1189698521
H   H93       1.0  0.38470  0.64740  0.27330  1.0000 0.1189698521
H   H94       1.0  0.11530  0.38860  0.26270  1.0000 0.1189698521
H   H95       1.0  0.62590  0.85260  0.23730  1.0000 0.1189698521
H   H96       1.0  0.87410  0.11140  0.22670  1.0000 0.1189698521
H   H97       1.0  0.64690  0.91680  0.97670  1.0000 0.1275240531
H   H98       1.0  0.44010  0.67020  0.52330  1.0000 0.1275240531
H   H99       1.0  0.05990  0.58320  0.23010  1.0000 0.1275240531
H   H100      1.0  0.85310  0.82980  0.26990  1.0000 0.1275240531
H   H101      1.0  0.97670  0.64690  0.91680  1.0000 0.1275240531
H   H102      1.0  0.52330  0.44010  0.67020  1.0000 0.1275240531
H   H103      1.0  0.23010  0.05990  0.58320  1.0000 0.1275240531
H   H104      1.0  0.26990  0.85310  0.82980  1.0000 0.1275240531
H   H105      1.0  0.91680  0.97670  0.64690  1.0000 0.1275240531
H   H106      1.0  0.67020  0.52330  0.44010  1.0000 0.1275240531
H   H107      1.0  0.58320  0.23010  0.05990  1.0000 0.1275240531
H   H108      1.0  0.82980  0.26990  0.85310  1.0000 0.1275240531
H   H109      1.0  0.41680  0.14690  0.47670  1.0000 0.1275240531
H   H110      1.0  0.17020  0.94010  0.02330  1.0000 0.1275240531
H   H111      1.0  0.08320  0.55990  0.73010  1.0000 0.1275240531
H   H112      1.0  0.32980  0.35310  0.76990  1.0000 0.1275240531
H   H113      1.0  0.14690  0.47670  0.41680  1.0000 0.1275240531
H   H114      1.0  0.94010  0.02330  0.17020  1.0000 0.1275240531
H   H115      1.0  0.55990  0.73010  0.08320  1.0000 0.1275240531
H   H116      1.0  0.35310  0.76990  0.32980  1.0000 0.1275240531
H   H117      1.0  0.47670  0.41680  0.14690  1.0000 0.1275240531
H   H118      1.0  0.02330  0.17020  0.94010  1.0000 0.1275240531
H   H119      1.0  0.73010  0.08320  0.55990  1.0000 0.1275240531
H   H120      1.0  0.76990  0.32980  0.35310  1.0000 0.1275240531
H   H121      1.0  0.85270  0.93850  0.03420  1.0000 0.1275240531
H   H122      1.0  0.40430  0.81850  0.46580  1.0000 0.1275240531
H   H123      1.0  0.09570  0.56150  0.41420  1.0000 0.1275240531
H   H124      1.0  0.64730  0.68150  0.08580  1.0000 0.1275240531
H   H125      1.0  0.03420  0.85270  0.93850  1.0000 0.1275240531
H   H126      1.0  0.46580  0.40430  0.81850  1.0000 0.1275240531
H   H127      1.0  0.41420  0.09570  0.56150  1.0000 0.1275240531
H   H128      1.0  0.08580  0.64730  0.68150  1.0000 0.1275240531
H   H129      1.0  0.93850  0.03420  0.85270  1.0000 0.1275240531
H   H130      1.0  0.81850  0.46580  0.40430  1.0000 0.1275240531
H   H131      1.0  0.56150  0.41420  0.09570  1.0000 0.1275240531
H   H132      1.0  0.68150  0.08580  0.64730  1.0000 0.1275240531
H   H133      1.0  0.43850  0.35270  0.53420  1.0000 0.1275240531
H   H134      1.0  0.31850  0.90430  0.96580  1.0000 0.1275240531
H   H135      1.0  0.06150  0.59570  0.91420  1.0000 0.1275240531
H   H136      1.0  0.18150  0.14730  0.58580  1.0000 0.1275240531
H   H137      1.0  0.35270  0.53420  0.43850  1.0000 0.1275240531
H   H138      1.0  0.90430  0.96580  0.31850  1.0000 0.1275240531
H   H139      1.0  0.59570  0.91420  0.06150  1.0000 0.1275240531
H   H140      1.0  0.14730  0.58580  0.18150  1.0000 0.1275240531
H   H141      1.0  0.53420  0.43850  0.35270  1.0000 0.1275240531
H   H142      1.0  0.96580  0.31850  0.90430  1.0000 0.1275240531
H   H143      1.0  0.91420  0.06150  0.59570  1.0000 0.1275240531
H   H144      1.0  0.58580  0.18150  0.14730  1.0000 0.1275240531
H   H145      1.0  0.78090  0.86600  0.04270  1.0000 0.1189698521
H   H146      1.0  0.32330  0.73820  0.45730  1.0000 0.1189698521
H   H147      1.0  0.17670  0.63400  0.41490  1.0000 0.1189698521
H   H148      1.0  0.71910  0.76180  0.08510  1.0000 0.1189698521
H   H149      1.0  0.04270  0.78090  0.86600  1.0000 0.1189698521
H   H150      1.0  0.45730  0.32330  0.73820  1.0000 0.1189698521
H   H151      1.0  0.41490  0.17670  0.63400  1.0000 0.1189698521
H   H152      1.0  0.08510  0.71910  0.76180  1.0000 0.1189698521
H   H153      1.0  0.86600  0.04270  0.78090  1.0000 0.1189698521
H   H154      1.0  0.73820  0.45730  0.32330  1.0000 0.1189698521
H   H155      1.0  0.63400  0.41490  0.17670  1.0000 0.1189698521
H   H156      1.0  0.76180  0.08510  0.71910  1.0000 0.1189698521
H   H157      1.0  0.36600  0.28090  0.54270  1.0000 0.1189698521
H   H158      1.0  0.23820  0.82330  0.95730  1.0000 0.1189698521
H   H159      1.0  0.13400  0.67670  0.91490  1.0000 0.1189698521
H   H160      1.0  0.26180  0.21910  0.58510  1.0000 0.1189698521
H   H161      1.0  0.28090  0.54270  0.36600  1.0000 0.1189698521
H   H162      1.0  0.82330  0.95730  0.23820  1.0000 0.1189698521
H   H163      1.0  0.67670  0.91490  0.13400  1.0000 0.1189698521
H   H164      1.0  0.21910  0.58510  0.26180  1.0000 0.1189698521
H   H165      1.0  0.54270  0.36600  0.28090  1.0000 0.1189698521
H   H166      1.0  0.95730  0.23820  0.82330  1.0000 0.1189698521
H   H167      1.0  0.91490  0.13400  0.67670  1.0000 0.1189698521
H   H168      1.0  0.58510  0.26180  0.21910  1.0000 0.1189698521
H   H169      1.0  0.67600  0.85440  0.01280  1.0000 0.1082068648
H   H170      1.0  0.34160  0.66320  0.48720  1.0000 0.1082068648
H   H171      1.0  0.15840  0.64560  0.32160  1.0000 0.1082068648
H   H172      1.0  0.82400  0.83680  0.17840  1.0000 0.1082068648
H   H173      1.0  0.01280  0.67600  0.85440  1.0000 0.1082068648
H   H174      1.0  0.48720  0.34160  0.66320  1.0000 0.1082068648
H   H175      1.0  0.32160  0.15840  0.64560  1.0000 0.1082068648
H   H176      1.0  0.17840  0.82400  0.83680  1.0000 0.1082068648
H   H177      1.0  0.85440  0.01280  0.67600  1.0000 0.1082068648
H   H178      1.0  0.66320  0.48720  0.34160  1.0000 0.1082068648
H   H179      1.0  0.64560  0.32160  0.15840  1.0000 0.1082068648
H   H180      1.0  0.83680  0.17840  0.82400  1.0000 0.1082068648
H   H181      1.0  0.35440  0.17600  0.51280  1.0000 0.1082068648
H   H182      1.0  0.16320  0.84160  0.98720  1.0000 0.1082068648
H   H183      1.0  0.14560  0.65840  0.82160  1.0000 0.1082068648
H   H184      1.0  0.33680  0.32400  0.67840  1.0000 0.1082068648
H   H185      1.0  0.17600  0.51280  0.35440  1.0000 0.1082068648
H   H186      1.0  0.84160  0.98720  0.16320  1.0000 0.1082068648
H   H187      1.0  0.65840  0.82160  0.14560  1.0000 0.1082068648
H   H188      1.0  0.32400  0.67840  0.33680  1.0000 0.1082068648
H   H189      1.0  0.51280  0.35440  0.17600  1.0000 0.1082068648
H   H190      1.0  0.98720  0.16320  0.84160  1.0000 0.1082068648
H   H191      1.0  0.82160  0.14560  0.65840  1.0000 0.1082068648
H   H192      1.0  0.67840  0.33680  0.32400  1.0000 0.1082068648
C   C1        1.0  0.82490  0.06110  0.96780  1.0000 0.0664975439
C   C2        1.0  0.59330  0.85710  0.53220  1.0000 0.0664975439
C   C3        1.0  0.90670  0.43890  0.26380  1.0000 0.0664975439
C   C4        1.0  0.67510  0.64290  0.23620  1.0000 0.0664975439
C   C5        1.0  0.96780  0.82490  0.06110  1.0000 0.0664975439
C   C6        1.0  0.53220  0.59330  0.85710  1.0000 0.0664975439
C   C7        1.0  0.26380  0.90670  0.43890  1.0000 0.0664975439
C   C8        1.0  0.23620  0.67510  0.64290  1.0000 0.0664975439
C   C9        1.0  0.06110  0.96780  0.82490  1.0000 0.0664975439
C   C10       1.0  0.85710  0.53220  0.59330  1.0000 0.0664975439
C   C11       1.0  0.43890  0.26380  0.90670  1.0000 0.0664975439
C   C12       1.0  0.64290  0.23620  0.67510  1.0000 0.0664975439
C   C13       1.0  0.56110  0.32490  0.46780  1.0000 0.0664975439
C   C14       1.0  0.35710  0.09330  0.03220  1.0000 0.0664975439
C   C15       1.0  0.93890  0.40670  0.76380  1.0000 0.0664975439
C   C16       1.0  0.14290  0.17510  0.73620  1.0000 0.0664975439
C   C17       1.0  0.32490  0.46780  0.56110  1.0000 0.0664975439
C   C18       1.0  0.09330  0.03220  0.35710  1.0000 0.0664975439
C   C19       1.0  0.40670  0.76380  0.93890  1.0000 0.0664975439
C   C20       1.0  0.17510  0.73620  0.14290  1.0000 0.0664975439
C   C21       1.0  0.46780  0.56110  0.32490  1.0000 0.0664975439
C   C22       1.0  0.03220  0.35710  0.09330  1.0000 0.0664975439
C   C23       1.0  0.76380  0.93890  0.40670  1.0000 0.0664975439
C   C24       1.0  0.73620  0.14290  0.17510  1.0000 0.0664975439
C   C25       1.0  0.76090  0.05340  0.94950  1.0000 0.0563503198
C   C26       1.0  0.60390  0.81140  0.55050  1.0000 0.0563503198
C   C27       1.0  0.89610  0.44660  0.20750  1.0000 0.0563503198
C   C28       1.0  0.73910  0.68860  0.29250  1.0000 0.0563503198
C   C29       1.0  0.94950  0.76090  0.05340  1.0000 0.0563503198
C   C30       1.0  0.55050  0.60390  0.81140  1.0000 0.0563503198
C   C31       1.0  0.20750  0.89610  0.44660  1.0000 0.0563503198
C   C32       1.0  0.29250  0.73910  0.68860  1.0000 0.0563503198
C   C33       1.0  0.05340  0.94950  0.76090  1.0000 0.0563503198
C   C34       1.0  0.81140  0.55050  0.60390  1.0000 0.0563503198
C   C35       1.0  0.44660  0.20750  0.89610  1.0000 0.0563503198
C   C36       1.0  0.68860  0.29250  0.73910  1.0000 0.0563503198
C   C37       1.0  0.55340  0.26090  0.44950  1.0000 0.0563503198
C   C38       1.0  0.31140  0.10390  0.05050  1.0000 0.0563503198
C   C39       1.0  0.94660  0.39610  0.70750  1.0000 0.0563503198
C   C40       1.0  0.18860  0.23910  0.79250  1.0000 0.0563503198
C   C41       1.0  0.26090  0.44950  0.55340  1.0000 0.0563503198
C   C42       1.0  0.10390  0.05050  0.31140  1.0000 0.0563503198
C   C43       1.0  0.39610  0.70750  0.94660  1.0000 0.0563503198
C   C44       1.0  0.23910  0.79250  0.18860  1.0000 0.0563503198
C   C45       1.0  0.44950  0.55340  0.26090  1.0000 0.0563503198
C   C46       1.0  0.05050  0.31140  0.10390  1.0000 0.0563503198
C   C47       1.0  0.70750  0.94660  0.39610  1.0000 0.0563503198
C   C48       1.0  0.79250  0.18860  0.23910  1.0000 0.0563503198
C   C49       1.0  0.86980  0.10920  0.95940  1.0000 -0.1333076498
C   C50       1.0  0.64980  0.91040  0.54060  1.0000 -0.1333076498
C   C51       1.0  0.85020  0.39080  0.26060  1.0000 -0.1333076498
C   C52       1.0  0.63020  0.58960  0.23940  1.0000 -0.1333076498
C   C53       1.0  0.95940  0.86980  0.10920  1.0000 -0.1333076498
C   C54       1.0  0.54060  0.64980  0.91040  1.0000 -0.1333076498
C   C55       1.0  0.26060  0.85020  0.39080  1.0000 -0.1333076498
C   C56       1.0  0.23940  0.63020  0.58960  1.0000 -0.1333076498
C   C57       1.0  0.10920  0.95940  0.86980  1.0000 -0.1333076498
C   C58       1.0  0.91040  0.54060  0.64980  1.0000 -0.1333076498
C   C59       1.0  0.39080  0.26060  0.85020  1.0000 -0.1333076498
C   C60       1.0  0.58960  0.23940  0.63020  1.0000 -0.1333076498
C   C61       1.0  0.60920  0.36980  0.45940  1.0000 -0.1333076498
C   C62       1.0  0.41040  0.14980  0.04060  1.0000 -0.1333076498
C   C63       1.0  0.89080  0.35020  0.76060  1.0000 -0.1333076498
C   C64       1.0  0.08960  0.13020  0.73940  1.0000 -0.1333076498
C   C65       1.0  0.36980  0.45940  0.60920  1.0000 -0.1333076498
C   C66       1.0  0.14980  0.04060  0.41040  1.0000 -0.1333076498
C   C67       1.0  0.35020  0.76060  0.89080  1.0000 -0.1333076498
C   C68       1.0  0.13020  0.73940  0.08960  1.0000 -0.1333076498
C   C69       1.0  0.45940  0.60920  0.36980  1.0000 -0.1333076498
C   C70       1.0  0.04060  0.41040  0.14980  1.0000 -0.1333076498
C   C71       1.0  0.76060  0.89080  0.35020  1.0000 -0.1333076498
C   C72       1.0  0.73940  0.08960  0.13020  1.0000 -0.1333076498
C   C73       1.0  0.84820  0.13880  0.92780  1.0000 -0.1033908383
C   C74       1.0  0.71100  0.92040  0.57220  1.0000 -0.1033908383
C   C75       1.0  0.78900  0.36120  0.20940  1.0000 -0.1033908383
C   C76       1.0  0.65180  0.57960  0.29060  1.0000 -0.1033908383
C   C77       1.0  0.92780  0.84820  0.13880  1.0000 -0.1033908383
C   C78       1.0  0.57220  0.71100  0.92040  1.0000 -0.1033908383
C   C79       1.0  0.20940  0.78900  0.36120  1.0000 -0.1033908383
C   C80       1.0  0.29060  0.65180  0.57960  1.0000 -0.1033908383
C   C81       1.0  0.13880  0.92780  0.84820  1.0000 -0.1033908383
C   C82       1.0  0.92040  0.57220  0.71100  1.0000 -0.1033908383
C   C83       1.0  0.36120  0.20940  0.78900  1.0000 -0.1033908383
C   C84       1.0  0.57960  0.29060  0.65180  1.0000 -0.1033908383
C   C85       1.0  0.63880  0.34820  0.42780  1.0000 -0.1033908383
C   C86       1.0  0.42040  0.21100  0.07220  1.0000 -0.1033908383
C   C87       1.0  0.86120  0.28900  0.70940  1.0000 -0.1033908383
C   C88       1.0  0.07960  0.15180  0.79060  1.0000 -0.1033908383
C   C89       1.0  0.34820  0.42780  0.63880  1.0000 -0.1033908383
C   C90       1.0  0.21100  0.07220  0.42040  1.0000 -0.1033908383
C   C91       1.0  0.28900  0.70940  0.86120  1.0000 -0.1033908383
C   C92       1.0  0.15180  0.79060  0.07960  1.0000 -0.1033908383
C   C93       1.0  0.42780  0.63880  0.34820  1.0000 -0.1033908383
C   C94       1.0  0.07220  0.42040  0.21100  1.0000 -0.1033908383
C   C95       1.0  0.70940  0.86120  0.28900  1.0000 -0.1033908383
C   C96       1.0  0.79060  0.07960  0.15180  1.0000 -0.1033908383
C   C97       1.0  0.74340  0.08910  0.91810  1.0000 -0.1333076498
C   C98       1.0  0.67100  0.82530  0.58190  1.0000 -0.1333076498
C   C99       1.0  0.82900  0.41090  0.15430  1.0000 -0.1333076498
C   C100      1.0  0.75660  0.67470  0.34570  1.0000 -0.1333076498
C   C101      1.0  0.91810  0.74340  0.08910  1.0000 -0.1333076498
C   C102      1.0  0.58190  0.67100  0.82530  1.0000 -0.1333076498
C   C103      1.0  0.15430  0.82900  0.41090  1.0000 -0.1333076498
C   C104      1.0  0.34570  0.75660  0.67470  1.0000 -0.1333076498
C   C105      1.0  0.08910  0.91810  0.74340  1.0000 -0.1333076498
C   C106      1.0  0.82530  0.58190  0.67100  1.0000 -0.1333076498
C   C107      1.0  0.41090  0.15430  0.82900  1.0000 -0.1333076498
C   C108      1.0  0.67470  0.34570  0.75660  1.0000 -0.1333076498
C   C109      1.0  0.58910  0.24340  0.41810  1.0000 -0.1333076498
C   C110      1.0  0.32530  0.17100  0.08190  1.0000 -0.1333076498
C   C111      1.0  0.91090  0.32900  0.65430  1.0000 -0.1333076498
C   C112      1.0  0.17470  0.25660  0.84570  1.0000 -0.1333076498
C   C113      1.0  0.24340  0.41810  0.58910  1.0000 -0.1333076498
C   C114      1.0  0.17100  0.08190  0.32530  1.0000 -0.1333076498
C   C115      1.0  0.32900  0.65430  0.91090  1.0000 -0.1333076498
C   C116      1.0  0.25660  0.84570  0.17470  1.0000 -0.1333076498
C   C117      1.0  0.41810  0.58910  0.24340  1.0000 -0.1333076498
C   C118      1.0  0.08190  0.32530  0.17100  1.0000 -0.1333076498
C   C119      1.0  0.65430  0.91090  0.32900  1.0000 -0.1333076498
C   C120      1.0  0.84570  0.17470  0.25660  1.0000 -0.1333076498
C   C121      1.0  0.78700  0.12740  0.90760  1.0000 -0.0908636811
C   C122      1.0  0.71980  0.87940  0.59240  1.0000 -0.0908636811
C   C123      1.0  0.78020  0.37260  0.15960  1.0000 -0.0908636811
C   C124      1.0  0.71300  0.62060  0.34040  1.0000 -0.0908636811
C   C125      1.0  0.90760  0.78700  0.12740  1.0000 -0.0908636811
C   C126      1.0  0.59240  0.71980  0.87940  1.0000 -0.0908636811
C   C127      1.0  0.15960  0.78020  0.37260  1.0000 -0.0908636811
C   C128      1.0  0.34040  0.71300  0.62060  1.0000 -0.0908636811
C   C129      1.0  0.12740  0.90760  0.78700  1.0000 -0.0908636811
C   C130      1.0  0.87940  0.59240  0.71980  1.0000 -0.0908636811
C   C131      1.0  0.37260  0.15960  0.78020  1.0000 -0.0908636811
C   C132      1.0  0.62060  0.34040  0.71300  1.0000 -0.0908636811
C   C133      1.0  0.62740  0.28700  0.40760  1.0000 -0.0908636811
C   C134      1.0  0.37940  0.21980  0.09240  1.0000 -0.0908636811
C   C135      1.0  0.87260  0.28020  0.65960  1.0000 -0.0908636811
C   C136      1.0  0.12060  0.21300  0.84040  1.0000 -0.0908636811
C   C137      1.0  0.28700  0.40760  0.62740  1.0000 -0.0908636811
C   C138      1.0  0.21980  0.09240  0.37940  1.0000 -0.0908636811
C   C139      1.0  0.28020  0.65960  0.87260  1.0000 -0.0908636811
C   C140      1.0  0.21300  0.84040  0.12060  1.0000 -0.0908636811
C   C141      1.0  0.40760  0.62740  0.28700  1.0000 -0.0908636811
C   C142      1.0  0.09240  0.37940  0.21980  1.0000 -0.0908636811
C   C143      1.0  0.65960  0.87260  0.28020  1.0000 -0.0908636811
C   C144      1.0  0.84040  0.12060  0.21300  1.0000 -0.0908636811
C   C145      1.0  0.91010  0.03240  0.01750  1.0000 0.5915563709
C   C146      1.0  0.51490  0.89260  0.48250  1.0000 0.5915563709
C   C147      1.0  0.98510  0.46760  0.37770  1.0000 0.5915563709
C   C148      1.0  0.58990  0.60740  0.12230  1.0000 0.5915563709
C   C149      1.0  0.01750  0.91010  0.03240  1.0000 0.5915563709
C   C150      1.0  0.48250  0.51490  0.89260  1.0000 0.5915563709
C   C151      1.0  0.37770  0.98510  0.46760  1.0000 0.5915563709
C   C152      1.0  0.12230  0.58990  0.60740  1.0000 0.5915563709
C   C153      1.0  0.03240  0.01750  0.91010  1.0000 0.5915563709
C   C154      1.0  0.89260  0.48250  0.51490  1.0000 0.5915563709
C   C155      1.0  0.46760  0.37770  0.98510  1.0000 0.5915563709
C   C156      1.0  0.60740  0.12230  0.58990  1.0000 0.5915563709
C   C157      1.0  0.53240  0.41010  0.51750  1.0000 0.5915563709
C   C158      1.0  0.39260  0.01490  0.98250  1.0000 0.5915563709
C   C159      1.0  0.96760  0.48510  0.87770  1.0000 0.5915563709
C   C160      1.0  0.10740  0.08990  0.62230  1.0000 0.5915563709
C   C161      1.0  0.41010  0.51750  0.53240  1.0000 0.5915563709
C   C162      1.0  0.01490  0.98250  0.39260  1.0000 0.5915563709
C   C163      1.0  0.48510  0.87770  0.96760  1.0000 0.5915563709
C   C164      1.0  0.08990  0.62230  0.10740  1.0000 0.5915563709
C   C165      1.0  0.51750  0.53240  0.41010  1.0000 0.5915563709
C   C166      1.0  0.98250  0.39260  0.01490  1.0000 0.5915563709
C   C167      1.0  0.87770  0.96760  0.48510  1.0000 0.5915563709
C   C168      1.0  0.62230  0.10740  0.08990  1.0000 0.5915563709
C   C169      1.0  0.68870  0.92220  0.98790  1.0000 -0.119684011
C   C170      1.0  0.43430  0.70080  0.51210  1.0000 -0.119684011
C   C171      1.0  0.06570  0.57780  0.26650  1.0000 -0.119684011
C   C172      1.0  0.81130  0.79920  0.23350  1.0000 -0.119684011
C   C173      1.0  0.98790  0.68870  0.92220  1.0000 -0.119684011
C   C174      1.0  0.51210  0.43430  0.70080  1.0000 -0.119684011
C   C175      1.0  0.26650  0.06570  0.57780  1.0000 -0.119684011
C   C176      1.0  0.23350  0.81130  0.79920  1.0000 -0.119684011
C   C177      1.0  0.92220  0.98790  0.68870  1.0000 -0.119684011
C   C178      1.0  0.70080  0.51210  0.43430  1.0000 -0.119684011
C   C179      1.0  0.57780  0.26650  0.06570  1.0000 -0.119684011
C   C180      1.0  0.79920  0.23350  0.81130  1.0000 -0.119684011
C   C181      1.0  0.42220  0.18870  0.48790  1.0000 -0.119684011
C   C182      1.0  0.20080  0.93430  0.01210  1.0000 -0.119684011
C   C183      1.0  0.07780  0.56570  0.76650  1.0000 -0.119684011
C   C184      1.0  0.29920  0.31130  0.73350  1.0000 -0.119684011
C   C185      1.0  0.18870  0.48790  0.42220  1.0000 -0.119684011
C   C186      1.0  0.93430  0.01210  0.20080  1.0000 -0.119684011
C   C187      1.0  0.56570  0.76650  0.07780  1.0000 -0.119684011
C   C188      1.0  0.31130  0.73350  0.29920  1.0000 -0.119684011
C   C189      1.0  0.48790  0.42220  0.18870  1.0000 -0.119684011
C   C190      1.0  0.01210  0.20080  0.93430  1.0000 -0.119684011
C   C191      1.0  0.76650  0.07780  0.56570  1.0000 -0.119684011
C   C192      1.0  0.73350  0.29920  0.31130  1.0000 -0.119684011
C   C193      1.0  0.81160  0.93480  0.02280  1.0000 -0.135502298
C   C194      1.0  0.41200  0.78880  0.47720  1.0000 -0.135502298
C   C195      1.0  0.08800  0.56520  0.37680  1.0000 -0.135502298
C   C196      1.0  0.68840  0.71120  0.12320  1.0000 -0.135502298
C   C197      1.0  0.02280  0.81160  0.93480  1.0000 -0.135502298
C   C198      1.0  0.47720  0.41200  0.78880  1.0000 -0.135502298
C   C199      1.0  0.37680  0.08800  0.56520  1.0000 -0.135502298
C   C200      1.0  0.12320  0.68840  0.71120  1.0000 -0.135502298
C   C201      1.0  0.93480  0.02280  0.81160  1.0000 -0.135502298
C   C202      1.0  0.78880  0.47720  0.41200  1.0000 -0.135502298
C   C203      1.0  0.56520  0.37680  0.08800  1.0000 -0.135502298
C   C204      1.0  0.71120  0.12320  0.68840  1.0000 -0.135502298
C   C205      1.0  0.43480  0.31160  0.52280  1.0000 -0.135502298
C   C206      1.0  0.28880  0.91200  0.97720  1.0000 -0.135502298
C   C207      1.0  0.06520  0.58800  0.87680  1.0000 -0.135502298
C   C208      1.0  0.21120  0.18840  0.62320  1.0000 -0.135502298
C   C209      1.0  0.31160  0.52280  0.43480  1.0000 -0.135502298
C   C210      1.0  0.91200  0.97720  0.28880  1.0000 -0.135502298
C   C211      1.0  0.58800  0.87680  0.06520  1.0000 -0.135502298
C   C212      1.0  0.18840  0.62320  0.21120  1.0000 -0.135502298
C   C213      1.0  0.52280  0.43480  0.31160  1.0000 -0.135502298
C   C214      1.0  0.97720  0.28880  0.91200  1.0000 -0.135502298
C   C215      1.0  0.87680  0.06520  0.58800  1.0000 -0.135502298
C   C216      1.0  0.62320  0.21120  0.18840  1.0000 -0.135502298
C   C217      1.0  0.73190  0.96850  0.98180  1.0000 0.0519488521
C   C218      1.0  0.48670  0.75010  0.51820  1.0000 0.0519488521
C   C219      1.0  0.01330  0.53150  0.26340  1.0000 0.0519488521
C   C220      1.0  0.76810  0.74990  0.23660  1.0000 0.0519488521
C   C221      1.0  0.98180  0.73190  0.96850  1.0000 0.0519488521
C   C222      1.0  0.51820  0.48670  0.75010  1.0000 0.0519488521
C   C223      1.0  0.26340  0.01330  0.53150  1.0000 0.0519488521
C   C224      1.0  0.23660  0.76810  0.74990  1.0000 0.0519488521
C   C225      1.0  0.96850  0.98180  0.73190  1.0000 0.0519488521
C   C226      1.0  0.75010  0.51820  0.48670  1.0000 0.0519488521
C   C227      1.0  0.53150  0.26340  0.01330  1.0000 0.0519488521
C   C228      1.0  0.74990  0.23660  0.76810  1.0000 0.0519488521
C   C229      1.0  0.46850  0.23190  0.48180  1.0000 0.0519488521
C   C230      1.0  0.25010  0.98670  0.01820  1.0000 0.0519488521
C   C231      1.0  0.03150  0.51330  0.76340  1.0000 0.0519488521
C   C232      1.0  0.24990  0.26810  0.73660  1.0000 0.0519488521
C   C233      1.0  0.23190  0.48180  0.46850  1.0000 0.0519488521
C   C234      1.0  0.98670  0.01820  0.25010  1.0000 0.0519488521
C   C235      1.0  0.51330  0.76340  0.03150  1.0000 0.0519488521
C   C236      1.0  0.26810  0.73660  0.24990  1.0000 0.0519488521
C   C237      1.0  0.48180  0.46850  0.23190  1.0000 0.0519488521
C   C238      1.0  0.01820  0.25010  0.98670  1.0000 0.0519488521
C   C239      1.0  0.76340  0.03150  0.51330  1.0000 0.0519488521
C   C240      1.0  0.73660  0.24990  0.26810  1.0000 0.0519488521
C   C241      1.0  0.84270  0.02510  0.99480  1.0000 -0.1111580177
C   C242      1.0  0.53030  0.84790  0.50520  1.0000 -0.1111580177
C   C243      1.0  0.96970  0.47490  0.31760  1.0000 -0.1111580177
C   C244      1.0  0.65730  0.65210  0.18240  1.0000 -0.1111580177
C   C245      1.0  0.99480  0.84270  0.02510  1.0000 -0.1111580177
C   C246      1.0  0.50520  0.53030  0.84790  1.0000 -0.1111580177
C   C247      1.0  0.31760  0.96970  0.47490  1.0000 -0.1111580177
C   C248      1.0  0.18240  0.65730  0.65210  1.0000 -0.1111580177
C   C249      1.0  0.02510  0.99480  0.84270  1.0000 -0.1111580177
C   C250      1.0  0.84790  0.50520  0.53030  1.0000 -0.1111580177
C   C251      1.0  0.47490  0.31760  0.96970  1.0000 -0.1111580177
C   C252      1.0  0.65210  0.18240  0.65730  1.0000 -0.1111580177
C   C253      1.0  0.52510  0.34270  0.49480  1.0000 -0.1111580177
C   C254      1.0  0.34790  0.03030  0.00520  1.0000 -0.1111580177
C   C255      1.0  0.97490  0.46970  0.81760  1.0000 -0.1111580177
C   C256      1.0  0.15210  0.15730  0.68240  1.0000 -0.1111580177
C   C257      1.0  0.34270  0.49480  0.52510  1.0000 -0.1111580177
C   C258      1.0  0.03030  0.00520  0.34790  1.0000 -0.1111580177
C   C259      1.0  0.46970  0.81760  0.97490  1.0000 -0.1111580177
C   C260      1.0  0.15730  0.68240  0.15210  1.0000 -0.1111580177
C   C261      1.0  0.49480  0.52510  0.34270  1.0000 -0.1111580177
C   C262      1.0  0.00520  0.34790  0.03030  1.0000 -0.1111580177
C   C263      1.0  0.81760  0.97490  0.46970  1.0000 -0.1111580177
C   C264      1.0  0.68240  0.15210  0.15730  1.0000 -0.1111580177
C   C265      1.0  0.76980  0.89230  0.02750  1.0000 -0.0908636811
C   C266      1.0  0.36480  0.74230  0.47250  1.0000 -0.0908636811
C   C267      1.0  0.13520  0.60770  0.37750  1.0000 -0.0908636811
C   C268      1.0  0.73020  0.75770  0.12250  1.0000 -0.0908636811
C   C269      1.0  0.02750  0.76980  0.89230  1.0000 -0.0908636811
C   C270      1.0  0.47250  0.36480  0.74230  1.0000 -0.0908636811
C   C271      1.0  0.37750  0.13520  0.60770  1.0000 -0.0908636811
C   C272      1.0  0.12250  0.73020  0.75770  1.0000 -0.0908636811
C   C273      1.0  0.89230  0.02750  0.76980  1.0000 -0.0908636811
C   C274      1.0  0.74230  0.47250  0.36480  1.0000 -0.0908636811
C   C275      1.0  0.60770  0.37750  0.13520  1.0000 -0.0908636811
C   C276      1.0  0.75770  0.12250  0.73020  1.0000 -0.0908636811
C   C277      1.0  0.39230  0.26980  0.52750  1.0000 -0.0908636811
C   C278      1.0  0.24230  0.86480  0.97250  1.0000 -0.0908636811
C   C279      1.0  0.10770  0.63520  0.87750  1.0000 -0.0908636811
C   C280      1.0  0.25770  0.23020  0.62250  1.0000 -0.0908636811
C   C281      1.0  0.26980  0.52750  0.39230  1.0000 -0.0908636811
C   C282      1.0  0.86480  0.97250  0.24230  1.0000 -0.0908636811
C   C283      1.0  0.63520  0.87750  0.10770  1.0000 -0.0908636811
C   C284      1.0  0.23020  0.62250  0.25770  1.0000 -0.0908636811
C   C285      1.0  0.52750  0.39230  0.26980  1.0000 -0.0908636811
C   C286      1.0  0.97250  0.24230  0.86480  1.0000 -0.0908636811
C   C287      1.0  0.87750  0.10770  0.63520  1.0000 -0.0908636811
C   C288      1.0  0.62250  0.25770  0.23020  1.0000 -0.0908636811
C   C289      1.0  0.79590  0.97720  0.99990  1.0000 0.0519488521
C   C290      1.0  0.47730  0.79600  0.50010  1.0000 0.0519488521
C   C291      1.0  0.02270  0.52280  0.31870  1.0000 0.0519488521
C   C292      1.0  0.70410  0.70400  0.18130  1.0000 0.0519488521
C   C293      1.0  0.99990  0.79590  0.97720  1.0000 0.0519488521
C   C294      1.0  0.50010  0.47730  0.79600  1.0000 0.0519488521
C   C295      1.0  0.31870  0.02270  0.52280  1.0000 0.0519488521
C   C296      1.0  0.18130  0.70410  0.70400  1.0000 0.0519488521
C   C297      1.0  0.97720  0.99990  0.79590  1.0000 0.0519488521
C   C298      1.0  0.79600  0.50010  0.47730  1.0000 0.0519488521
C   C299      1.0  0.52280  0.31870  0.02270  1.0000 0.0519488521
C   C300      1.0  0.70400  0.18130  0.70410  1.0000 0.0519488521
C   C301      1.0  0.47720  0.29590  0.49990  1.0000 0.0519488521
C   C302      1.0  0.29600  0.97730  0.00010  1.0000 0.0519488521
C   C303      1.0  0.02280  0.52270  0.81870  1.0000 0.0519488521
C   C304      1.0  0.20400  0.20410  0.68130  1.0000 0.0519488521
C   C305      1.0  0.29590  0.49990  0.47720  1.0000 0.0519488521
C   C306      1.0  0.97730  0.00010  0.29600  1.0000 0.0519488521
C   C307      1.0  0.52270  0.81870  0.02280  1.0000 0.0519488521
C   C308      1.0  0.20410  0.68130  0.20400  1.0000 0.0519488521
C   C309      1.0  0.49990  0.47720  0.29590  1.0000 0.0519488521
C   C310      1.0  0.00010  0.29600  0.97730  1.0000 0.0519488521
C   C311      1.0  0.81870  0.02280  0.52270  1.0000 0.0519488521
C   C312      1.0  0.68130  0.20400  0.20410  1.0000 0.0519488521
C   C313      1.0  0.70590  0.88540  0.00930  1.0000 -0.119684011
C   C314      1.0  0.37610  0.69660  0.49070  1.0000 -0.119684011
C   C315      1.0  0.12390  0.61460  0.32050  1.0000 -0.119684011
C   C316      1.0  0.79410  0.80340  0.17950  1.0000 -0.119684011
C   C317      1.0  0.00930  0.70590  0.88540  1.0000 -0.119684011
C   C318      1.0  0.49070  0.37610  0.69660  1.0000 -0.119684011
C   C319      1.0  0.32050  0.12390  0.61460  1.0000 -0.119684011
C   C320      1.0  0.17950  0.79410  0.80340  1.0000 -0.119684011
C   C321      1.0  0.88540  0.00930  0.70590  1.0000 -0.119684011
C   C322      1.0  0.69660  0.49070  0.37610  1.0000 -0.119684011
C   C323      1.0  0.61460  0.32050  0.12390  1.0000 -0.119684011
C   C324      1.0  0.80340  0.17950  0.79410  1.0000 -0.119684011
C   C325      1.0  0.38540  0.20590  0.50930  1.0000 -0.119684011
C   C326      1.0  0.19660  0.87610  0.99070  1.0000 -0.119684011
C   C327      1.0  0.11460  0.62390  0.82050  1.0000 -0.119684011
C   C328      1.0  0.30340  0.29410  0.67950  1.0000 -0.119684011
C   C329      1.0  0.20590  0.50930  0.38540  1.0000 -0.119684011
C   C330      1.0  0.87610  0.99070  0.19660  1.0000 -0.119684011
C   C331      1.0  0.62390  0.82050  0.11460  1.0000 -0.119684011
C   C332      1.0  0.29410  0.67950  0.30340  1.0000 -0.119684011
C   C333      1.0  0.50930  0.38540  0.20590  1.0000 -0.119684011
C   C334      1.0  0.99070  0.19660  0.87610  1.0000 -0.119684011
C   C335      1.0  0.82050  0.11460  0.62390  1.0000 -0.119684011
C   C336      1.0  0.67950  0.30340  0.29410  1.0000 -0.119684011
C   C337      1.0  0.71500  0.00870  0.95670  1.0000 -0.1333076498
C   C338      1.0  0.55200  0.75830  0.54330  1.0000 -0.135502298
C   C339      1.0  0.94800  0.49130  0.20630  1.0000 -0.1333076498
C   C340      1.0  0.78500  0.74170  0.29370  1.0000 -0.1333076498
C   C341      1.0  0.95670  0.71500  0.00870  1.0000 -0.1333076498
C   C342      1.0  0.54330  0.55200  0.75830  1.0000 -0.1333076498
C   C343      1.0  0.20630  0.94800  0.49130  1.0000 -0.1333076498
C   C344      1.0  0.29370  0.78500  0.74170  1.0000 -0.1333076498
C   C345      1.0  0.00870  0.95670  0.71500  1.0000 -0.1333076498
C   C346      1.0  0.75830  0.54330  0.55200  1.0000 -0.1333076498
C   C347      1.0  0.49130  0.20630  0.94800  1.0000 -0.1333076498
C   C348      1.0  0.74170  0.29370  0.78500  1.0000 -0.1333076498
C   C349      1.0  0.50870  0.21500  0.45670  1.0000 -0.1333076498
C   C350      1.0  0.25830  0.05200  0.04330  1.0000 -0.1333076498
C   C351      1.0  0.99130  0.44800  0.70630  1.0000 -0.1333076498
C   C352      1.0  0.24170  0.28500  0.79370  1.0000 -0.1333076498
C   C353      1.0  0.21500  0.45670  0.50870  1.0000 -0.1333076498
C   C354      1.0  0.05200  0.04330  0.25830  1.0000 -0.1333076498
C   C355      1.0  0.44800  0.70630  0.99130  1.0000 -0.1333076498
C   C356      1.0  0.28500  0.79370  0.24170  1.0000 -0.1333076498
C   C357      1.0  0.45670  0.50870  0.21500  1.0000 -0.1333076498
C   C358      1.0  0.04330  0.25830  0.05200  1.0000 -0.1333076498
C   C359      1.0  0.70630  0.99130  0.44800  1.0000 -0.1333076498
C   C360      1.0  0.79370  0.24170  0.28500  1.0000 -0.1333076498
C   C361      1.0  0.64930  0.00390  0.93940  1.0000 0.6072813825
C   C362      1.0  0.56450  0.70990  0.56060  1.0000 0.6072813825
C   C363      1.0  0.93550  0.49610  0.14540  1.0000 0.6072813825
C   C364      1.0  0.85070  0.79010  0.35460  1.0000 0.6072813825
C   C365      1.0  0.93940  0.64930  0.00390  1.0000 0.6072813825
C   C366      1.0  0.56060  0.56450  0.70990  1.0000 0.6072813825
C   C367      1.0  0.14540  0.93550  0.49610  1.0000 0.6072813825
C   C368      1.0  0.35460  0.85070  0.79010  1.0000 0.6072813825
C   C369      1.0  0.00390  0.93940  0.64930  1.0000 0.6072813825
C   C370      1.0  0.70990  0.56060  0.56450  1.0000 0.6072813825
C   C371      1.0  0.49610  0.14540  0.93550  1.0000 0.6072813825
C   C372      1.0  0.79010  0.35460  0.85070  1.0000 0.6072813825
C   C373      1.0  0.50390  0.14930  0.43940  1.0000 0.6072813825
C   C374      1.0  0.20990  0.06450  0.06060  1.0000 0.6072813825
C   C375      1.0  0.99610  0.43550  0.64540  1.0000 0.6072813825
C   C376      1.0  0.29010  0.35070  0.85460  1.0000 0.6072813825
C   C377      1.0  0.14930  0.43940  0.50390  1.0000 0.6072813825
C   C378      1.0  0.06450  0.06060  0.20990  1.0000 0.6072813825
C   C379      1.0  0.43550  0.64540  0.99610  1.0000 0.6072813825
C   C380      1.0  0.35070  0.85460  0.29010  1.0000 0.6072813825
C   C381      1.0  0.43940  0.50390  0.14930  1.0000 0.6072813825
C   C382      1.0  0.06060  0.20990  0.06450  1.0000 0.6072813825
C   C383      1.0  0.64540  0.99610  0.43550  1.0000 0.6072813825
C   C384      1.0  0.85460  0.29010  0.35070  1.0000 0.6072813825
O   O1        1.0  0.08314  0.08314  0.08314  1.0000 -1.017552857
O   O2        1.0  0.50000  0.00000  0.41686  1.0000 -1.017552857
O   O3        1.0  0.00000  0.41686  0.50000  1.0000 -1.017552857
O   O4        1.0  0.41686  0.50000  0.00000  1.0000 -1.017552857
O   O5        1.0  0.58314  0.58314  0.58314  1.0000 -1.017552857
O   O6        1.0  0.50000  0.00000  0.91686  1.0000 -1.017552857
O   O7        1.0  0.91686  0.50000  0.00000  1.0000 -1.017552857
O   O8        1.0  0.00000  0.91686  0.50000  1.0000 -1.017552857
O   O9        1.0  0.94864  0.06495  0.07869  1.0000 -0.5380595742
O   O10       1.0  0.48626  0.86995  0.42131  1.0000 -0.5380595742
O   O11       1.0  0.01374  0.43505  0.38369  1.0000 -0.5380595742
O   O12       1.0  0.55136  0.63005  0.11631  1.0000 -0.5380595742
O   O13       1.0  0.07869  0.94864  0.06495  1.0000 -0.5380595742
O   O14       1.0  0.42131  0.48626  0.86995  1.0000 -0.5380595742
O   O15       1.0  0.38369  0.01374  0.43505  1.0000 -0.5380595742
O   O16       1.0  0.11631  0.55136  0.63005  1.0000 -0.5380595742
O   O17       1.0  0.06495  0.07869  0.94864  1.0000 -0.5380595742
O   O18       1.0  0.86995  0.42131  0.48626  1.0000 -0.5380595742
O   O19       1.0  0.43505  0.38369  0.01374  1.0000 -0.5380595742
O   O20       1.0  0.63005  0.11631  0.55136  1.0000 -0.5380595742
O   O21       1.0  0.56495  0.44864  0.57869  1.0000 -0.5380595742
O   O22       1.0  0.36995  0.98626  0.92131  1.0000 -0.5380595742
O   O23       1.0  0.93505  0.51374  0.88369  1.0000 -0.5380595742
O   O24       1.0  0.13005  0.05136  0.61631  1.0000 -0.5380595742
O   O25       1.0  0.44864  0.57869  0.56495  1.0000 -0.5380595742
O   O26       1.0  0.98626  0.92131  0.36995  1.0000 -0.5380595742
O   O27       1.0  0.51374  0.88369  0.93505  1.0000 -0.5380595742
O   O28       1.0  0.05136  0.61631  0.13005  1.0000 -0.5380595742
O   O29       1.0  0.57869  0.56495  0.44864  1.0000 -0.5380595742
O   O30       1.0  0.92131  0.36995  0.98626  1.0000 -0.5380595742
O   O31       1.0  0.88369  0.93505  0.51374  1.0000 -0.5380595742
O   O32       1.0  0.61631  0.13005  0.05136  1.0000 -0.5380595742
O   O33       1.0  0.59846  0.94871  0.89591  1.0000 -0.5565761371
O   O34       1.0  0.55280  0.70255  0.60409  1.0000 -0.5565761371
O   O35       1.0  0.94720  0.55129  0.14975  1.0000 -0.5565761371
O   O36       1.0  0.90154  0.79745  0.35025  1.0000 -0.5565761371
O   O37       1.0  0.89591  0.59846  0.94871  1.0000 -0.5565761371
O   O38       1.0  0.60409  0.55280  0.70255  1.0000 -0.5565761371
O   O39       1.0  0.14975  0.94720  0.55129  1.0000 -0.5565761371
O   O40       1.0  0.35025  0.90154  0.79745  1.0000 -0.5565761371
O   O41       1.0  0.94871  0.89591  0.59846  1.0000 -0.5565761371
O   O42       1.0  0.70255  0.60409  0.55280  1.0000 -0.5565761371
O   O43       1.0  0.55129  0.14975  0.94720  1.0000 -0.5565761371
O   O44       1.0  0.79745  0.35025  0.90154  1.0000 -0.5565761371
O   O45       1.0  0.44871  0.09846  0.39591  1.0000 -0.5565761371
O   O46       1.0  0.20255  0.05280  0.10409  1.0000 -0.5565761371
O   O47       1.0  0.05129  0.44720  0.64975  1.0000 -0.5565761371
O   O48       1.0  0.29745  0.40154  0.85025  1.0000 -0.5565761371
O   O49       1.0  0.09846  0.39591  0.44871  1.0000 -0.5565761371
O   O50       1.0  0.05280  0.10409  0.20255  1.0000 -0.5565761371
O   O51       1.0  0.44720  0.64975  0.05129  1.0000 -0.5565761371
O   O52       1.0  0.40154  0.85025  0.29745  1.0000 -0.5565761371
O   O53       1.0  0.39591  0.44871  0.09846  1.0000 -0.5565761371
O   O54       1.0  0.10409  0.20255  0.05280  1.0000 -0.5565761371
O   O55       1.0  0.64975  0.05129  0.44720  1.0000 -0.5565761371
O   O56       1.0  0.85025  0.29745  0.40154  1.0000 -0.5565761371
O   O57       1.0  0.64890  0.05660  0.96850  1.0000 -0.5694576446
O   O58       1.0  0.58810  0.68040  0.53150  1.0000 -0.5694576446
O   O59       1.0  0.91190  0.44340  0.09230  1.0000 -0.5694576446
O   O60       1.0  0.85110  0.81960  0.40770  1.0000 -0.5694576446
O   O61       1.0  0.96850  0.64890  0.05660  1.0000 -0.5694576446
O   O62       1.0  0.53150  0.58810  0.68040  1.0000 -0.5694576446
O   O63       1.0  0.09230  0.91190  0.44340  1.0000 -0.5694576446
O   O64       1.0  0.40770  0.85110  0.81960  1.0000 -0.5694576446
O   O65       1.0  0.05660  0.96850  0.64890  1.0000 -0.5694576446
O   O66       1.0  0.68040  0.53150  0.58810  1.0000 -0.5694576446
O   O67       1.0  0.44340  0.09230  0.91190  1.0000 -0.5694576446
O   O68       1.0  0.81960  0.40770  0.85110  1.0000 -0.5694576446
O   O69       1.0  0.55660  0.14890  0.46850  1.0000 -0.5694576446
O   O70       1.0  0.18040  0.08810  0.03150  1.0000 -0.5694576446
O   O71       1.0  0.94340  0.41190  0.59230  1.0000 -0.5694576446
O   O72       1.0  0.31960  0.35110  0.90770  1.0000 -0.5694576446
O   O73       1.0  0.14890  0.46850  0.55660  1.0000 -0.5694576446
O   O74       1.0  0.08810  0.03150  0.18040  1.0000 -0.5694576446
O   O75       1.0  0.41190  0.59230  0.94340  1.0000 -0.5694576446
O   O76       1.0  0.35110  0.90770  0.31960  1.0000 -0.5694576446
O   O77       1.0  0.46850  0.55660  0.14890  1.0000 -0.5694576446
O   O78       1.0  0.03150  0.18040  0.08810  1.0000 -0.5694576446
O   O79       1.0  0.59230  0.94340  0.41190  1.0000 -0.5694576446
O   O80       1.0  0.90770  0.31960  0.35110  1.0000 -0.5694576446
O   O81       1.0  0.92436  0.01149  0.97625  1.0000 -0.4721518252
O   O82       1.0  0.53524  0.94811  0.52375  1.0000 -0.4721518252
O   O83       1.0  0.96476  0.48851  0.41287  1.0000 -0.4721518252
O   O84       1.0  0.57564  0.55189  0.08713  1.0000 -0.4721518252
O   O85       1.0  0.97625  0.92436  0.01149  1.0000 -0.4721518252
O   O86       1.0  0.52375  0.53524  0.94811  1.0000 -0.4721518252
O   O87       1.0  0.41287  0.96476  0.48851  1.0000 -0.4721518252
O   O88       1.0  0.08713  0.57564  0.55189  1.0000 -0.4721518252
O   O89       1.0  0.01149  0.97625  0.92436  1.0000 -0.4721518252
O   O90       1.0  0.94811  0.52375  0.53524  1.0000 -0.4721518252
O   O91       1.0  0.48851  0.41287  0.96476  1.0000 -0.4721518252
O   O92       1.0  0.55189  0.08713  0.57564  1.0000 -0.4721518252
O   O93       1.0  0.51149  0.42436  0.47625  1.0000 -0.4721518252
O   O94       1.0  0.44811  0.03524  0.02375  1.0000 -0.4721518252
O   O95       1.0  0.98851  0.46476  0.91287  1.0000 -0.4721518252
O   O96       1.0  0.05189  0.07564  0.58713  1.0000 -0.4721518252
O   O97       1.0  0.42436  0.47625  0.51149  1.0000 -0.4721518252
O   O98       1.0  0.03524  0.02375  0.44811  1.0000 -0.4721518252
O   O99       1.0  0.46476  0.91287  0.98851  1.0000 -0.4721518252
O   O100      1.0  0.07564  0.58713  0.05189  1.0000 -0.4721518252
O   O101      1.0  0.47625  0.51149  0.42436  1.0000 -0.4721518252
O   O102      1.0  0.02375  0.44811  0.03524  1.0000 -0.4721518252
O   O103      1.0  0.91287  0.98851  0.46476  1.0000 -0.4721518252
O   O104      1.0  0.58713  0.05189  0.07564  1.0000 -0.4721518252
