# DDEC6 charges by PACMAN v1.1 (https://github.com/mtap-research/PACMAN-charge/)
data_2007[Zn][ths]3[ASR]2
_chemical_formula_sum              "Zn12 H96 C144 I24 N48"
_cell_length_a       19.4264
_cell_length_b       19.4264
_cell_length_c       32.04
_cell_angle_alpha    78.0211
_cell_angle_beta     101.979
_cell_angle_gamma    135.113

_symmetry_space_group_name_H-M    "P 1"
_symmetry_Int_Tables_number       1

loop_
  _symmetry_equiv_pos_as_xyz
  'x, y, z'

loop_
  _atom_site_type_symbol
  _atom_site_label
  _atom_site_symmetry_multiplicity
  _atom_site_fract_x
  _atom_site_fract_y
  _atom_site_fract_z
  _atom_site_occupancy
  _atom_site_charge
Zn  Zn1       1.0  0.53295  0.20365  0.26684  1.0000 0.4551972012
Zn  Zn2       1.0  0.79635  0.46705  0.76684  1.0000 0.4551972012
Zn  Zn3       1.0  0.46908  0.71802  0.43862  1.0000 0.4693931239
Zn  Zn4       1.0  0.28198  0.53092  0.93862  1.0000 0.4693931239
Zn  Zn5       1.0  0.96112  0.78112  0.58142  1.0000 0.4693931239
Zn  Zn6       1.0  0.21888  0.03888  0.08142  1.0000 0.4693931239
Zn  Zn7       1.0  0.20365  0.53295  0.23316  1.0000 0.4551972012
Zn  Zn8       1.0  0.46705  0.79635  0.73316  1.0000 0.4551972012
Zn  Zn9       1.0  0.71802  0.46908  0.06138  1.0000 0.4693931239
Zn  Zn10      1.0  0.53092  0.28198  0.56138  1.0000 0.4693931239
Zn  Zn11      1.0  0.78112  0.96112  0.91858  1.0000 0.4693931239
Zn  Zn12      1.0  0.03888  0.21888  0.41858  1.0000 0.4693931239
H   H1        1.0  0.41570  0.08650  0.34470  1.0000 0.1083744204
H   H2        1.0  0.91350  0.58430  0.84470  1.0000 0.1083744204
H   H3        1.0  0.35140  0.09220  0.39380  1.0000 0.1312415354
H   H4        1.0  0.90780  0.64860  0.89380  1.0000 0.1312415354
H   H5        1.0  0.15470  0.12710  0.51190  1.0000 0.1369828048
H   H6        1.0  0.87290  0.84530  0.01190  1.0000 0.1369828048
H   H7        1.0  0.03420  0.98280  0.55230  1.0000 0.1019475201
H   H8        1.0  0.01720  0.96580  0.05230  1.0000 0.1019475201
H   H9        1.0  0.22040  0.98960  0.47670  1.0000 0.1369828048
H   H10       1.0  0.01040  0.77960  0.97670  1.0000 0.1369828048
H   H11       1.0  0.09870  0.85090  0.51940  1.0000 0.1083744204
H   H12       1.0  0.14910  0.90130  0.01940  1.0000 0.1083744204
H   H13       1.0  0.55540  0.35660  0.29740  1.0000 0.1083744204
H   H14       1.0  0.64340  0.44460  0.79740  1.0000 0.1083744204
H   H15       1.0  0.49350  0.37030  0.34770  1.0000 0.1312415354
H   H16       1.0  0.62970  0.50650  0.84770  1.0000 0.1312415354
H   H17       1.0  0.25250  0.57630  0.41890  1.0000 0.1083744204
H   H18       1.0  0.42370  0.74750  0.91890  1.0000 0.1083744204
H   H19       1.0  0.46050  0.82630  0.35610  1.0000 0.1083744204
H   H20       1.0  0.17370  0.53950  0.85610  1.0000 0.1083744204
H   H21       1.0  0.33130  0.01010  0.15590  1.0000 0.1083744204
H   H22       1.0  0.98990  0.66870  0.65590  1.0000 0.1083744204
H   H23       1.0  0.67470  0.40890  0.22820  1.0000 0.1019475201
H   H24       1.0  0.59110  0.32530  0.72820  1.0000 0.1019475201
H   H25       1.0  0.34590  0.80710  0.30400  1.0000 0.1312415354
H   H26       1.0  0.19290  0.65410  0.80400  1.0000 0.1312415354
H   H27       1.0  0.89040  0.40540  0.32130  1.0000 0.1312415354
H   H28       1.0  0.59460  0.10960  0.82130  1.0000 0.1369828048
H   H29       1.0  0.72340  0.26900  0.31720  1.0000 0.1083744204
H   H30       1.0  0.73100  0.27660  0.81720  1.0000 0.1083744204
H   H31       1.0  0.00710  0.72330  0.17170  1.0000 0.1312415354
H   H32       1.0  0.27670  0.99290  0.67170  1.0000 0.1312415354
H   H33       1.0  0.13160  0.55240  0.37070  1.0000 0.1369828048
H   H34       1.0  0.44760  0.86840  0.87070  1.0000 0.1369828048
H   H35       1.0  0.05210  0.83890  0.11460  1.0000 0.1019475201
H   H36       1.0  0.16110  0.94790  0.61460  1.0000 0.1019475201
H   H37       1.0  0.29430  0.89990  0.21550  1.0000 0.1312415354
H   H38       1.0  0.10010  0.70570  0.71550  1.0000 0.1312415354
H   H39       1.0  0.84240  0.54960  0.22890  1.0000 0.1312415354
H   H40       1.0  0.45040  0.15760  0.72890  1.0000 0.1312415354
H   H41       1.0  0.45540  0.60760  0.38080  1.0000 0.1083744204
H   H42       1.0  0.39240  0.54460  0.88080  1.0000 0.1083744204
H   H43       1.0  0.38970  0.53470  0.50050  1.0000 0.1083744204
H   H44       1.0  0.46530  0.61030  0.00050  1.0000 0.1083744204
H   H45       1.0  0.35150  0.39050  0.50230  1.0000 0.1369828048
H   H46       1.0  0.60950  0.64850  0.00230  1.0000 0.1369828048
H   H47       1.0  0.42480  0.46900  0.37910  1.0000 0.1312415354
H   H48       1.0  0.53100  0.57520  0.87910  1.0000 0.1312415354
H   H49       1.0  0.08650  0.41570  0.15530  1.0000 0.1083744204
H   H50       1.0  0.58430  0.91350  0.65530  1.0000 0.1083744204
H   H51       1.0  0.09220  0.35140  0.10620  1.0000 0.1312415354
H   H52       1.0  0.64860  0.90780  0.60620  1.0000 0.1312415354
H   H53       1.0  0.12710  0.15470  0.98810  1.0000 0.1369828048
H   H54       1.0  0.84530  0.87290  0.48810  1.0000 0.1369828048
H   H55       1.0  0.98280  0.03420  0.94770  1.0000 0.1019475201
H   H56       1.0  0.96580  0.01720  0.44770  1.0000 0.1019475201
H   H57       1.0  0.98960  0.22040  0.02330  1.0000 0.1369828048
H   H58       1.0  0.77960  0.01040  0.52330  1.0000 0.1369828048
H   H59       1.0  0.85090  0.09870  0.98060  1.0000 0.1083744204
H   H60       1.0  0.90130  0.14910  0.48060  1.0000 0.1083744204
H   H61       1.0  0.35660  0.55540  0.20260  1.0000 0.1083744204
H   H62       1.0  0.44460  0.64340  0.70260  1.0000 0.1019475201
H   H63       1.0  0.37030  0.49350  0.15230  1.0000 0.1312415354
H   H64       1.0  0.50650  0.62970  0.65230  1.0000 0.1312415354
H   H65       1.0  0.57630  0.25250  0.08110  1.0000 0.1083744204
H   H66       1.0  0.74750  0.42370  0.58110  1.0000 0.1083744204
H   H67       1.0  0.82630  0.46050  0.14390  1.0000 0.1083744204
H   H68       1.0  0.53950  0.17370  0.64390  1.0000 0.1083744204
H   H69       1.0  0.01010  0.33130  0.34410  1.0000 0.1083744204
H   H70       1.0  0.66870  0.98990  0.84410  1.0000 0.1083744204
H   H71       1.0  0.40890  0.67470  0.27180  1.0000 0.1019475201
H   H72       1.0  0.32530  0.59110  0.77180  1.0000 0.1019475201
H   H73       1.0  0.80710  0.34590  0.19600  1.0000 0.1312415354
H   H74       1.0  0.65410  0.19290  0.69600  1.0000 0.1312415354
H   H75       1.0  0.40540  0.89040  0.17870  1.0000 0.1369828048
H   H76       1.0  0.10960  0.59460  0.67870  1.0000 0.1369828048
H   H77       1.0  0.26900  0.72340  0.18280  1.0000 0.1083744204
H   H78       1.0  0.27660  0.73100  0.68280  1.0000 0.1083744204
H   H79       1.0  0.72330  0.00710  0.32830  1.0000 0.1312415354
H   H80       1.0  0.99290  0.27670  0.82830  1.0000 0.1312415354
H   H81       1.0  0.55240  0.13160  0.12930  1.0000 0.1369828048
H   H82       1.0  0.86840  0.44760  0.62930  1.0000 0.1369828048
H   H83       1.0  0.83890  0.05210  0.38540  1.0000 0.1019475201
H   H84       1.0  0.94790  0.16110  0.88540  1.0000 0.1019475201
H   H85       1.0  0.89990  0.29430  0.28450  1.0000 0.1312415354
H   H86       1.0  0.70570  0.10010  0.78450  1.0000 0.1312415354
H   H87       1.0  0.54960  0.84240  0.27110  1.0000 0.1312415354
H   H88       1.0  0.15760  0.45040  0.77110  1.0000 0.1369828048
H   H89       1.0  0.60760  0.45540  0.11920  1.0000 0.1083744204
H   H90       1.0  0.54460  0.39240  0.61920  1.0000 0.1083744204
H   H91       1.0  0.53470  0.38970  0.99950  1.0000 0.1083744204
H   H92       1.0  0.61030  0.46530  0.49950  1.0000 0.1083744204
H   H93       1.0  0.39050  0.35150  0.99770  1.0000 0.1369828048
H   H94       1.0  0.64850  0.60950  0.49770  1.0000 0.1369828048
H   H95       1.0  0.46900  0.42480  0.12090  1.0000 0.1312415354
H   H96       1.0  0.57520  0.53100  0.62090  1.0000 0.1312415354
C   C1        1.0  0.43110  0.14510  0.34470  1.0000 0.0795796063
C   C2        1.0  0.85490  0.56890  0.84470  1.0000 0.0795796063
C   C3        1.0  0.39340  0.14800  0.37440  1.0000 -0.1425977016
C   C4        1.0  0.85200  0.60660  0.87440  1.0000 -0.1425977016
C   C5        1.0  0.41560  0.23160  0.37650  1.0000 0.070064711
C   C6        1.0  0.76840  0.58440  0.87650  1.0000 0.070064711
C   C7        1.0  0.37280  0.23620  0.40880  1.0000 0.3902595609
C   C8        1.0  0.76380  0.62720  0.90880  1.0000 0.3902595609
C   C9        1.0  0.14440  0.07120  0.51290  1.0000 -0.1483326687
C   C10       1.0  0.92880  0.85560  0.01290  1.0000 -0.1483326687
C   C11       1.0  0.20100  0.07420  0.48990  1.0000 0.0795796063
C   C12       1.0  0.92580  0.79900  0.98990  1.0000 0.0795796063
C   C13       1.0  0.07290  0.98490  0.53700  1.0000 0.070064711
C   C14       1.0  0.01510  0.92710  0.03700  1.0000 0.070064711
C   C15       1.0  0.18400  0.99060  0.49190  1.0000 -0.1483326687
C   C16       1.0  0.00940  0.81600  0.99190  1.0000 -0.1483326687
C   C17       1.0  0.36540  0.32460  0.44080  1.0000 0.3902595609
C   C18       1.0  0.67540  0.63460  0.94080  1.0000 0.3902595609
C   C19       1.0  0.11060  0.90800  0.51760  1.0000 0.0896275077
C   C20       1.0  0.09200  0.88940  0.01760  1.0000 0.0896275077
C   C21       1.0  0.27790  0.16570  0.46300  1.0000 0.379809768
C   C22       1.0  0.83430  0.72210  0.96300  1.0000 0.379809768
C   C23       1.0  0.38720  0.41560  0.44210  1.0000 0.070064711
C   C24       1.0  0.58440  0.61280  0.94210  1.0000 0.070064711
C   C25       1.0  0.51270  0.30190  0.31700  1.0000 0.0795796063
C   C26       1.0  0.69810  0.48730  0.81700  1.0000 0.0795796063
C   C27       1.0  0.47660  0.31100  0.34730  1.0000 -0.1425977016
C   C28       1.0  0.68900  0.52340  0.84730  1.0000 -0.1425977016
C   C29       1.0  0.11524  0.72376  0.23800  1.0000 0.3902595609
C   C30       1.0  0.27624  0.88476  0.73800  1.0000 0.3902595609
C   C31       1.0  0.27140  0.62440  0.39560  1.0000 0.0896275077
C   C32       1.0  0.37560  0.72860  0.89560  1.0000 0.0896275077
C   C33       1.0  0.39290  0.76970  0.35870  1.0000 0.0795796063
C   C34       1.0  0.23030  0.60710  0.85870  1.0000 0.0795796063
C   C35       1.0  0.14630  0.79870  0.20090  1.0000 0.0562825669
C   C36       1.0  0.20130  0.85370  0.70090  1.0000 0.0562825669
C   C37       1.0  0.26470  0.95150  0.15960  1.0000 0.0896275077
C   C38       1.0  0.04850  0.73530  0.65960  1.0000 0.0896275077
C   C39       1.0  0.71910  0.40810  0.24680  1.0000 0.0795796063
C   C40       1.0  0.59190  0.28090  0.74680  1.0000 0.0795796063
C   C41       1.0  0.32490  0.75950  0.32780  1.0000 -0.1483326687
C   C42       1.0  0.24050  0.67510  0.82780  1.0000 -0.1483326687
C   C43       1.0  0.22605  0.67915  0.33210  1.0000 0.0512493552
C   C44       1.0  0.32085  0.77395  0.83210  1.0000 0.0512493552
C   C45       1.0  0.99176  0.58044  0.27360  1.0000 0.379809768
C   C46       1.0  0.41956  0.00824  0.77360  1.0000 0.379809768
C   C47       1.0  0.15169  0.66651  0.29940  1.0000 0.3961988787
C   C48       1.0  0.33349  0.84831  0.79940  1.0000 0.3961988787
C   C49       1.0  0.88530  0.49270  0.27460  1.0000 0.0562825669
C   C50       1.0  0.50730  0.11470  0.77460  1.0000 0.0562825669
C   C51       1.0  0.84770  0.40730  0.30160  1.0000 -0.160932538
C   C52       1.0  0.59270  0.15230  0.80160  1.0000 -0.160932538
C   C53       1.0  0.74800  0.32660  0.29910  1.0000 0.070064711
C   C54       1.0  0.67340  0.25200  0.79910  1.0000 0.070064711
C   C55       1.0  0.07410  0.78190  0.16940  1.0000 -0.1425977016
C   C56       1.0  0.21810  0.92590  0.66940  1.0000 -0.1425977016
C   C57       1.0  0.19870  0.60910  0.36690  1.0000 -0.1425977016
C   C58       1.0  0.39090  0.80130  0.86690  1.0000 -0.1483326687
C   C59       1.0  0.10170  0.85130  0.13550  1.0000 0.0795796063
C   C60       1.0  0.14870  0.89830  0.63550  1.0000 0.0795796063
C   C61       1.0  0.24310  0.88550  0.19530  1.0000 -0.160932538
C   C62       1.0  0.11450  0.75690  0.69530  1.0000 -0.160932538
C   C63       1.0  0.81940  0.49280  0.24710  1.0000 -0.1483326687
C   C64       1.0  0.50720  0.18060  0.74710  1.0000 -0.1483326687
C   C65       1.0  0.43600  0.56360  0.40590  1.0000 0.0896275077
C   C66       1.0  0.43640  0.56400  0.90590  1.0000 0.0896275077
C   C67       1.0  0.39680  0.52080  0.47590  1.0000 0.0795796063
C   C68       1.0  0.47920  0.60320  0.97590  1.0000 0.0795796063
C   C69       1.0  0.37480  0.43520  0.47730  1.0000 -0.1483326687
C   C70       1.0  0.56480  0.62520  0.97730  1.0000 -0.1483326687
C   C71       1.0  0.41750  0.48130  0.40430  1.0000 -0.1425977016
C   C72       1.0  0.51870  0.58250  0.90430  1.0000 -0.1483326687
C   C73       1.0  0.14510  0.43110  0.15530  1.0000 0.0795796063
C   C74       1.0  0.56890  0.85490  0.65530  1.0000 0.0795796063
C   C75       1.0  0.14800  0.39340  0.12560  1.0000 -0.1425977016
C   C76       1.0  0.60660  0.85200  0.62560  1.0000 -0.1425977016
C   C77       1.0  0.23160  0.41560  0.12350  1.0000 0.070064711
C   C78       1.0  0.58440  0.76840  0.62350  1.0000 0.070064711
C   C79       1.0  0.23620  0.37280  0.09120  1.0000 0.3902595609
C   C80       1.0  0.62720  0.76380  0.59120  1.0000 0.3902595609
C   C81       1.0  0.07120  0.14440  0.98710  1.0000 -0.1483326687
C   C82       1.0  0.85560  0.92880  0.48710  1.0000 -0.1483326687
C   C83       1.0  0.07420  0.20100  0.01010  1.0000 0.0795796063
C   C84       1.0  0.79900  0.92580  0.51010  1.0000 0.0795796063
C   C85       1.0  0.98490  0.07290  0.96300  1.0000 0.070064711
C   C86       1.0  0.92710  0.01510  0.46300  1.0000 0.070064711
C   C87       1.0  0.99060  0.18400  0.00810  1.0000 -0.1483326687
C   C88       1.0  0.81600  0.00940  0.50810  1.0000 -0.1483326687
C   C89       1.0  0.32460  0.36540  0.05920  1.0000 0.3902595609
C   C90       1.0  0.63460  0.67540  0.55920  1.0000 0.3902595609
C   C91       1.0  0.90800  0.11060  0.98240  1.0000 0.0896275077
C   C92       1.0  0.88940  0.09200  0.48240  1.0000 0.0896275077
C   C93       1.0  0.16570  0.27790  0.03700  1.0000 0.379809768
C   C94       1.0  0.72210  0.83430  0.53700  1.0000 0.379809768
C   C95       1.0  0.41560  0.38720  0.05790  1.0000 0.070064711
C   C96       1.0  0.61280  0.58440  0.55790  1.0000 0.070064711
C   C97       1.0  0.30190  0.51270  0.18300  1.0000 0.0795796063
C   C98       1.0  0.48730  0.69810  0.68300  1.0000 0.0795796063
C   C99       1.0  0.31100  0.47660  0.15270  1.0000 -0.1425977016
C   C100      1.0  0.52340  0.68900  0.65270  1.0000 -0.1425977016
C   C101      1.0  0.72376  0.11524  0.26200  1.0000 0.3902595609
C   C102      1.0  0.88476  0.27624  0.76200  1.0000 0.3961988787
C   C103      1.0  0.62440  0.27140  0.10440  1.0000 0.0896275077
C   C104      1.0  0.72860  0.37560  0.60440  1.0000 0.0896275077
C   C105      1.0  0.76970  0.39290  0.14130  1.0000 0.0795796063
C   C106      1.0  0.60710  0.23030  0.64130  1.0000 0.0795796063
C   C107      1.0  0.79870  0.14630  0.29910  1.0000 0.0562825669
C   C108      1.0  0.85370  0.20130  0.79910  1.0000 0.0562825669
C   C109      1.0  0.95150  0.26470  0.34040  1.0000 0.0896275077
C   C110      1.0  0.73530  0.04850  0.84040  1.0000 0.0896275077
C   C111      1.0  0.40810  0.71910  0.25320  1.0000 0.0795796063
C   C112      1.0  0.28090  0.59190  0.75320  1.0000 0.0795796063
C   C113      1.0  0.75950  0.32490  0.17220  1.0000 -0.1483326687
C   C114      1.0  0.67510  0.24050  0.67220  1.0000 -0.1483326687
C   C115      1.0  0.67915  0.22605  0.16790  1.0000 0.0512493552
C   C116      1.0  0.77395  0.32085  0.66790  1.0000 0.0512493552
C   C117      1.0  0.58044  0.99176  0.22640  1.0000 0.379809768
C   C118      1.0  0.00824  0.41956  0.72640  1.0000 0.379809768
C   C119      1.0  0.66651  0.15169  0.20060  1.0000 0.3961988787
C   C120      1.0  0.84831  0.33349  0.70060  1.0000 0.3961988787
C   C121      1.0  0.49270  0.88530  0.22540  1.0000 0.0562825669
C   C122      1.0  0.11470  0.50730  0.72540  1.0000 0.0562825669
C   C123      1.0  0.40730  0.84770  0.19840  1.0000 -0.160932538
C   C124      1.0  0.15230  0.59270  0.69840  1.0000 -0.160932538
C   C125      1.0  0.32660  0.74800  0.20090  1.0000 0.070064711
C   C126      1.0  0.25200  0.67340  0.70090  1.0000 0.070064711
C   C127      1.0  0.78190  0.07410  0.33060  1.0000 -0.1425977016
C   C128      1.0  0.92590  0.21810  0.83060  1.0000 -0.1425977016
C   C129      1.0  0.60910  0.19870  0.13310  1.0000 -0.1425977016
C   C130      1.0  0.80130  0.39090  0.63310  1.0000 -0.1425977016
C   C131      1.0  0.85130  0.10170  0.36450  1.0000 0.0795796063
C   C132      1.0  0.89830  0.14870  0.86450  1.0000 0.0795796063
C   C133      1.0  0.88550  0.24310  0.30470  1.0000 -0.160932538
C   C134      1.0  0.75690  0.11450  0.80470  1.0000 -0.160932538
C   C135      1.0  0.49280  0.81940  0.25290  1.0000 -0.1483326687
C   C136      1.0  0.18060  0.50720  0.75290  1.0000 -0.1483326687
C   C137      1.0  0.56360  0.43600  0.09410  1.0000 0.0896275077
C   C138      1.0  0.56400  0.43640  0.59410  1.0000 0.0896275077
C   C139      1.0  0.52080  0.39680  0.02410  1.0000 0.0795796063
C   C140      1.0  0.60320  0.47920  0.52410  1.0000 0.0795796063
C   C141      1.0  0.43520  0.37480  0.02270  1.0000 -0.1483326687
C   C142      1.0  0.62520  0.56480  0.52270  1.0000 -0.1483326687
C   C143      1.0  0.48130  0.41750  0.09570  1.0000 -0.1425977016
C   C144      1.0  0.58250  0.51870  0.59570  1.0000 -0.1425977016
I   I1        1.0  0.63311  0.84215  0.40472  1.0000 -0.463313668
I   I2        1.0  0.15785  0.36689  0.90472  1.0000 -0.463313668
I   I3        1.0  0.49391  0.04441  0.28916  1.0000 -0.4489183379
I   I4        1.0  0.95559  0.50609  0.78916  1.0000 -0.4489183379
I   I5        1.0  0.46413  0.22557  0.19325  1.0000 -0.4418592592
I   I6        1.0  0.77443  0.53587  0.69325  1.0000 -0.4418592592
I   I7        1.0  0.43979  0.72669  0.51091  1.0000 -0.4418592592
I   I8        1.0  0.27331  0.56021  0.01091  1.0000 -0.4418592592
I   I9        1.0  0.88213  0.63249  0.54369  1.0000 -0.4489183379
I   I10       1.0  0.36751  0.11787  0.04369  1.0000 -0.4489183379
I   I11       1.0  0.87872  0.81386  0.61554  1.0000 -0.4294683476
I   I12       1.0  0.18614  0.12128  0.11554  1.0000 -0.4294683476
I   I13       1.0  0.84215  0.63311  0.09528  1.0000 -0.463313668
I   I14       1.0  0.36689  0.15785  0.59528  1.0000 -0.463313668
I   I15       1.0  0.04441  0.49391  0.21084  1.0000 -0.4489183379
I   I16       1.0  0.50609  0.95559  0.71084  1.0000 -0.4489183379
I   I17       1.0  0.22557  0.46413  0.30675  1.0000 -0.4418592592
I   I18       1.0  0.53587  0.77443  0.80675  1.0000 -0.4418592592
I   I19       1.0  0.72669  0.43979  0.98909  1.0000 -0.4418592592
I   I20       1.0  0.56021  0.27331  0.48909  1.0000 -0.4418592592
I   I21       1.0  0.63249  0.88213  0.95631  1.0000 -0.4489183379
I   I22       1.0  0.11787  0.36751  0.45631  1.0000 -0.4489183379
I   I23       1.0  0.81386  0.87872  0.88446  1.0000 -0.4294683476
I   I24       1.0  0.12128  0.18614  0.38446  1.0000 -0.4294683476
N   N1        1.0  0.42808  0.58532  0.44060  1.0000 -0.1917574535
N   N2        1.0  0.41468  0.57192  0.94060  1.0000 -0.1917574535
N   N3        1.0  0.40234  0.32346  0.40990  1.0000 -0.4016603285
N   N4        1.0  0.67654  0.59766  0.90990  1.0000 -0.4016603285
N   N5        1.0  0.30854  0.15406  0.43330  1.0000 -0.3909991374
N   N6        1.0  0.84594  0.69146  0.93330  1.0000 -0.3909991374
N   N7        1.0  0.30600  0.24960  0.47050  1.0000 -0.3909991374
N   N8        1.0  0.75040  0.69400  0.97050  1.0000 -0.3909991374
N   N9        1.0  0.48880  0.21840  0.31500  1.0000 -0.1917574535
N   N10       1.0  0.78160  0.51120  0.81500  1.0000 -0.1917574535
N   N11       1.0  0.05704  0.90436  0.53930  1.0000 -0.1917574535
N   N12       1.0  0.09564  0.94296  0.03930  1.0000 -0.1917574535
N   N13       1.0  0.19522  0.93558  0.13040  1.0000 -0.1801297897
N   N14       1.0  0.06442  0.80478  0.63040  1.0000 -0.1801297897
N   N15       1.0  0.01808  0.64856  0.24050  1.0000 -0.4064018985
N   N16       1.0  0.35144  0.98192  0.74050  1.0000 -0.4064018985
N   N17       1.0  0.18455  0.73645  0.26610  1.0000 -0.3909991374
N   N18       1.0  0.26355  0.81545  0.76610  1.0000 -0.3909991374
N   N19       1.0  0.05485  0.58595  0.30470  1.0000 -0.4016603285
N   N20       1.0  0.41405  0.94515  0.80470  1.0000 -0.4016603285
N   N21       1.0  0.36734  0.70326  0.39220  1.0000 -0.1801297897
N   N22       1.0  0.29674  0.63266  0.89220  1.0000 -0.1801297897
N   N23       1.0  0.68283  0.32497  0.27200  1.0000 -0.1917574535
N   N24       1.0  0.67503  0.31717  0.77200  1.0000 -0.1917574535
N   N25       1.0  0.58532  0.42808  0.05940  1.0000 -0.1917574535
N   N26       1.0  0.57192  0.41468  0.55940  1.0000 -0.1917574535
N   N27       1.0  0.32346  0.40234  0.09010  1.0000 -0.4016603285
N   N28       1.0  0.59766  0.67654  0.59010  1.0000 -0.4016603285
N   N29       1.0  0.15406  0.30854  0.06670  1.0000 -0.3909991374
N   N30       1.0  0.69146  0.84594  0.56670  1.0000 -0.3909991374
N   N31       1.0  0.24960  0.30600  0.02950  1.0000 -0.3909991374
N   N32       1.0  0.69400  0.75040  0.52950  1.0000 -0.3909991374
N   N33       1.0  0.21840  0.48880  0.18500  1.0000 -0.1917574535
N   N34       1.0  0.51120  0.78160  0.68500  1.0000 -0.1917574535
N   N35       1.0  0.90436  0.05704  0.96070  1.0000 -0.1917574535
N   N36       1.0  0.94296  0.09564  0.46070  1.0000 -0.1917574535
N   N37       1.0  0.93558  0.19522  0.36960  1.0000 -0.1801297897
N   N38       1.0  0.80478  0.06442  0.86960  1.0000 -0.1801297897
N   N39       1.0  0.64856  0.01808  0.25950  1.0000 -0.4064018985
N   N40       1.0  0.98192  0.35144  0.75950  1.0000 -0.4064018985
N   N41       1.0  0.73645  0.18455  0.23390  1.0000 -0.3909991374
N   N42       1.0  0.81545  0.26355  0.73390  1.0000 -0.3909991374
N   N43       1.0  0.58595  0.05485  0.19530  1.0000 -0.4016603285
N   N44       1.0  0.94515  0.41405  0.69530  1.0000 -0.4064018985
N   N45       1.0  0.70326  0.36734  0.10780  1.0000 -0.1801297897
N   N46       1.0  0.63266  0.29674  0.60780  1.0000 -0.1801297897
N   N47       1.0  0.32497  0.68283  0.22800  1.0000 -0.1917574535
N   N48       1.0  0.31717  0.67503  0.72800  1.0000 -0.1917574535
