# DDEC6 charges by PACMAN v1.1 (https://github.com/mtap-research/PACMAN-charge/)
data_2007[Cu][nan]3[ASR]1
_chemical_formula_sum              "Cu8 H60 C84 N12 O32"
_cell_length_a       16.6639
_cell_length_b       16.6639
_cell_length_c       16.6639
_cell_angle_alpha    127.774
_cell_angle_beta     119.328
_cell_angle_gamma    84.1254

_symmetry_space_group_name_H-M    "P 1"
_symmetry_Int_Tables_number       1

loop_
  _symmetry_equiv_pos_as_xyz
  'x, y, z'

loop_
  _atom_site_type_symbol
  _atom_site_label
  _atom_site_symmetry_multiplicity
  _atom_site_fract_x
  _atom_site_fract_y
  _atom_site_fract_z
  _atom_site_occupancy
  _atom_site_charge
Cu  Cu1       1.0  0.95242  0.57280  0.52522  1.0000 0.7584643578
Cu  Cu2       1.0  0.04758  0.42720  0.47478  1.0000 0.7584643578
Cu  Cu3       1.0  0.45242  0.92720  0.37962  1.0000 0.7584643578
Cu  Cu4       1.0  0.54758  0.07280  0.62038  1.0000 0.7584643578
Cu  Cu5       1.0  0.44400  0.25000  0.19400  1.0000 0.7915731734
Cu  Cu6       1.0  0.05600  0.25000  0.80600  1.0000 0.7915731734
Cu  Cu7       1.0  0.55600  0.75000  0.80600  1.0000 0.7915731734
Cu  Cu8       1.0  0.94400  0.75000  0.19400  1.0000 0.7915731734
H   H1        1.0  0.55750  0.80670  0.98400  1.0000 0.3065766981
H   H2        1.0  0.82270  0.57350  0.01600  1.0000 0.3065766981
H   H3        1.0  0.67730  0.69330  0.75080  1.0000 0.3065766981
H   H4        1.0  0.94250  0.92650  0.24920  1.0000 0.3065766981
H   H5        1.0  0.44250  0.19330  0.01600  1.0000 0.3065766981
H   H6        1.0  0.17730  0.42650  0.98400  1.0000 0.3065766981
H   H7        1.0  0.32270  0.30670  0.24920  1.0000 0.3065766981
H   H8        1.0  0.05750  0.07350  0.75080  1.0000 0.3065766981
H   H9        1.0  0.50490  0.69480  0.88690  1.0000 0.3034210345
H   H10       1.0  0.80790  0.61800  0.11310  1.0000 0.3034210345
H   H11       1.0  0.69210  0.80520  0.81010  1.0000 0.3034210345
H   H12       1.0  0.99510  0.88200  0.18990  1.0000 0.3034210345
H   H13       1.0  0.49510  0.30520  0.11310  1.0000 0.3034210345
H   H14       1.0  0.19210  0.38200  0.88690  1.0000 0.3034210345
H   H15       1.0  0.30790  0.19480  0.18990  1.0000 0.3034210345
H   H16       1.0  0.00490  0.11800  0.81010  1.0000 0.3034210345
H   H17       1.0  0.33640  0.63660  0.73980  1.0000 0.1403860869
H   H18       1.0  0.89680  0.59660  0.26020  1.0000 0.1403860869
H   H19       1.0  0.60320  0.86340  0.69980  1.0000 0.1403860869
H   H20       1.0  0.16360  0.90340  0.30020  1.0000 0.1403860869
H   H21       1.0  0.66360  0.36340  0.26020  1.0000 0.1403860869
H   H22       1.0  0.10320  0.40340  0.73980  1.0000 0.1403860869
H   H23       1.0  0.39680  0.13660  0.30020  1.0000 0.1403860869
H   H24       1.0  0.83640  0.09660  0.69980  1.0000 0.1403860869
H   H25       1.0  0.48240  0.94080  0.02600  1.0000 0.1403860869
H   H26       1.0  0.91480  0.45640  0.97400  1.0000 0.1403860869
H   H27       1.0  0.58520  0.55920  0.54160  1.0000 0.1403860869
H   H28       1.0  0.01760  0.04360  0.45840  1.0000 0.1403860869
H   H29       1.0  0.51760  0.05920  0.97400  1.0000 0.1403860869
H   H30       1.0  0.08520  0.54360  0.02600  1.0000 0.1403860869
H   H31       1.0  0.41480  0.44080  0.45840  1.0000 0.1403860869
H   H32       1.0  0.98240  0.95640  0.54160  1.0000 0.1403860869
H   H33       1.0  0.19300  0.85390  0.82150  1.0000 0.1253468794
H   H34       1.0  0.03240  0.37150  0.17850  1.0000 0.1253468794
H   H35       1.0  0.46760  0.64610  0.33910  1.0000 0.1253468794
H   H36       1.0  0.30700  0.12850  0.66090  1.0000 0.1253468794
H   H37       1.0  0.80700  0.14610  0.17850  1.0000 0.1253468794
H   H38       1.0  0.96760  0.62850  0.82150  1.0000 0.1253468794
H   H39       1.0  0.53240  0.35390  0.66090  1.0000 0.1253468794
H   H40       1.0  0.69300  0.87150  0.33910  1.0000 0.1253468794
H   H41       1.0  0.95660  0.78020  0.73680  1.0000 0.1238810038
H   H42       1.0  0.04340  0.21980  0.26320  1.0000 0.1238810038
H   H43       1.0  0.45660  0.71980  0.17640  1.0000 0.1238810038
H   H44       1.0  0.54340  0.28020  0.82360  1.0000 0.1238810038
H   H45       1.0  0.87520  0.90480  0.78000  1.0000 0.1403860869
H   H46       1.0  0.12480  0.09520  0.22000  1.0000 0.1403860869
H   H47       1.0  0.37520  0.59520  0.97040  1.0000 0.1403860869
H   H48       1.0  0.62480  0.40480  0.02960  1.0000 0.1403860869
H   H49       1.0  0.73700  0.88110  0.61810  1.0000 0.1253468794
H   H50       1.0  0.26300  0.11890  0.38190  1.0000 0.1253468794
H   H51       1.0  0.23700  0.61890  0.85590  1.0000 0.1253468794
H   H52       1.0  0.76300  0.38110  0.14410  1.0000 0.1253468794
H   H53       1.0  0.68900  0.74100  0.43000  1.0000 0.1403860869
H   H54       1.0  0.31100  0.25900  0.57000  1.0000 0.1403860869
H   H55       1.0  0.18900  0.75900  0.94800  1.0000 0.1403860869
H   H56       1.0  0.81100  0.24100  0.05200  1.0000 0.1403860869
H   H57       1.0  0.77700  0.61890  0.39590  1.0000 0.1075036321
H   H58       1.0  0.22300  0.38110  0.60410  1.0000 0.1075036321
H   H59       1.0  0.27700  0.88110  0.15810  1.0000 0.1075036321
H   H60       1.0  0.72300  0.11890  0.84190  1.0000 0.1075036321
C   C1        1.0  0.33840  0.02870  0.01250  1.0000 0.5424968069
C   C2        1.0  0.01620  0.32590  0.98750  1.0000 0.5424968069
C   C3        1.0  0.48380  0.47130  0.30970  1.0000 0.5424968069
C   C4        1.0  0.16160  0.17410  0.69030  1.0000 0.5424968069
C   C5        1.0  0.66160  0.97130  0.98750  1.0000 0.5424968069
C   C6        1.0  0.98380  0.67410  0.01250  1.0000 0.5424968069
C   C7        1.0  0.51620  0.52870  0.69030  1.0000 0.5424968069
C   C8        1.0  0.83840  0.82590  0.30970  1.0000 0.5424968069
C   C9        1.0  0.24990  0.73110  0.76300  1.0000 -0.0099989034
C   C10       1.0  0.96810  0.48690  0.23700  1.0000 -0.0099989034
C   C11       1.0  0.53190  0.76890  0.51880  1.0000 -0.0099989034
C   C12       1.0  0.25010  0.01310  0.48120  1.0000 -0.0099989034
C   C13       1.0  0.75010  0.26890  0.23700  1.0000 -0.0099989034
C   C14       1.0  0.03190  0.51310  0.76300  1.0000 -0.0099989034
C   C15       1.0  0.46810  0.23110  0.48120  1.0000 -0.0099989034
C   C16       1.0  0.74990  0.98690  0.51880  1.0000 -0.0099989034
C   C17       1.0  0.33670  0.70690  0.78860  1.0000 -0.2071903581
C   C18       1.0  0.91830  0.54810  0.21140  1.0000 -0.2071903581
C   C19       1.0  0.58170  0.79310  0.62980  1.0000 -0.2071903581
C   C20       1.0  0.16330  0.95190  0.37020  1.0000 -0.2071903581
C   C21       1.0  0.66330  0.29310  0.21140  1.0000 -0.2071903581
C   C22       1.0  0.08170  0.45190  0.78860  1.0000 -0.2071903581
C   C23       1.0  0.41830  0.20690  0.37020  1.0000 -0.2071903581
C   C24       1.0  0.83670  0.04810  0.62980  1.0000 -0.2071903581
C   C25       1.0  0.42300  0.78410  0.88410  1.0000 0.2352177007
C   C26       1.0  0.90000  0.53890  0.11590  1.0000 0.2352177007
C   C27       1.0  0.60000  0.71590  0.63890  1.0000 0.2352177007
C   C28       1.0  0.07700  0.96110  0.36110  1.0000 0.2352177007
C   C29       1.0  0.57700  0.21590  0.11590  1.0000 0.2352177007
C   C30       1.0  0.10000  0.46110  0.88410  1.0000 0.2352177007
C   C31       1.0  0.40000  0.28410  0.36110  1.0000 0.2352177007
C   C32       1.0  0.92300  0.03890  0.63890  1.0000 0.2352177007
C   C33       1.0  0.42420  0.88860  0.95920  1.0000 -0.1928077368
C   C34       1.0  0.92940  0.46500  0.04080  1.0000 -0.1928077368
C   C35       1.0  0.57060  0.61140  0.53560  1.0000 -0.1928077368
C   C36       1.0  0.07580  0.03500  0.46440  1.0000 -0.1928077368
C   C37       1.0  0.57580  0.11140  0.04080  1.0000 -0.1928077368
C   C38       1.0  0.07060  0.53500  0.95920  1.0000 -0.1928077368
C   C39       1.0  0.42940  0.38860  0.46440  1.0000 -0.1928077368
C   C40       1.0  0.92420  0.96500  0.53560  1.0000 -0.1928077368
C   C41       1.0  0.33850  0.91560  0.93510  1.0000 -0.0099989034
C   C42       1.0  0.98050  0.40340  0.06490  1.0000 -0.0099989034
C   C43       1.0  0.51950  0.58440  0.42290  1.0000 -0.0099989034
C   C44       1.0  0.16150  0.09660  0.57710  1.0000 -0.0099989034
C   C45       1.0  0.66150  0.08440  0.06490  1.0000 -0.0099989034
C   C46       1.0  0.01950  0.59660  0.93510  1.0000 -0.0099989034
C   C47       1.0  0.48050  0.41560  0.57710  1.0000 -0.0099989034
C   C48       1.0  0.83850  0.90340  0.42290  1.0000 -0.0099989034
C   C49       1.0  0.25050  0.83620  0.83690  1.0000 -0.1521684686
C   C50       1.0  0.99930  0.41360  0.16310  1.0000 -0.1521684686
C   C51       1.0  0.50070  0.66380  0.41430  1.0000 -0.1521684686
C   C52       1.0  0.24950  0.08640  0.58570  1.0000 -0.1521684686
C   C53       1.0  0.74950  0.16380  0.16310  1.0000 -0.1521684686
C   C54       1.0  0.00070  0.58640  0.83690  1.0000 -0.1521684686
C   C55       1.0  0.49930  0.33620  0.58570  1.0000 -0.1521684686
C   C56       1.0  0.75050  0.91360  0.41430  1.0000 -0.1521684686
C   C57       1.0  0.15580  0.64590  0.66110  1.0000 0.5578268683
C   C58       1.0  0.98480  0.49470  0.33890  1.0000 0.5578268683
C   C59       1.0  0.51520  0.85410  0.50990  1.0000 0.5578268683
C   C60       1.0  0.34420  0.00530  0.49010  1.0000 0.5578268683
C   C61       1.0  0.84420  0.35410  0.33890  1.0000 0.5578268683
C   C62       1.0  0.01520  0.50530  0.66110  1.0000 0.5578268683
C   C63       1.0  0.48480  0.14590  0.49010  1.0000 0.5578268683
C   C64       1.0  0.65580  0.99470  0.50990  1.0000 0.5578268683
C   C65       1.0  0.90190  0.77160  0.67350  1.0000 0.0650148904
C   C66       1.0  0.09810  0.22840  0.32650  1.0000 0.0650148904
C   C67       1.0  0.40190  0.72840  0.13030  1.0000 0.0650148904
C   C68       1.0  0.59810  0.27160  0.86970  1.0000 0.0650148904
C   C69       1.0  0.85410  0.84620  0.70030  1.0000 -0.1521684686
C   C70       1.0  0.14590  0.15380  0.29970  1.0000 -0.1521684686
C   C71       1.0  0.35410  0.65380  0.00790  1.0000 -0.1521684686
C   C72       1.0  0.64590  0.34620  0.99210  1.0000 -0.1521684686
C   C73       1.0  0.77150  0.83150  0.60300  1.0000 -0.0544819413
C   C74       1.0  0.22850  0.16850  0.39700  1.0000 -0.0544819413
C   C75       1.0  0.27150  0.66850  0.94000  1.0000 -0.0544819413
C   C76       1.0  0.72850  0.33150  0.06000  1.0000 -0.0544819413
C   C77       1.0  0.74360  0.75120  0.49480  1.0000 -0.1322408104
C   C78       1.0  0.25640  0.24880  0.50520  1.0000 -0.1322408104
C   C79       1.0  0.24360  0.74880  0.99240  1.0000 -0.1322408104
C   C80       1.0  0.75640  0.25120  0.00760  1.0000 -0.1322408104
C   C81       1.0  0.79770  0.67770  0.47540  1.0000 0.1075036321
C   C82       1.0  0.20230  0.32230  0.52460  1.0000 0.1075036321
C   C83       1.0  0.29770  0.82230  0.12000  1.0000 0.1075036321
C   C84       1.0  0.70230  0.17770  0.88000  1.0000 0.1075036321
N   N1        1.0  0.51150  0.75780  0.90490  1.0000 -0.5764699662
N   N2        1.0  0.85290  0.60660  0.09510  1.0000 -0.5764699662
N   N3        1.0  0.64710  0.74220  0.75370  1.0000 -0.5764699662
N   N4        1.0  0.98850  0.89340  0.24630  1.0000 -0.5764699662
N   N5        1.0  0.48850  0.24220  0.09510  1.0000 -0.5764699662
N   N6        1.0  0.14710  0.39340  0.90490  1.0000 -0.5764699662
N   N7        1.0  0.35290  0.25780  0.24630  1.0000 -0.5764699662
N   N8        1.0  0.01150  0.10660  0.75370  1.0000 -0.5764699662
N   N9        1.0  0.87390  0.68650  0.56040  1.0000 -0.2221496636
N   N10       1.0  0.12610  0.31350  0.43960  1.0000 -0.2221496636
N   N11       1.0  0.37390  0.81350  0.18740  1.0000 -0.2221496636
N   N12       1.0  0.62610  0.18650  0.81260  1.0000 -0.2221496636
O   O1        1.0  0.41730  0.09720  0.09450  1.0000 -0.5385329807
O   O2        1.0  0.00270  0.32280  0.90550  1.0000 -0.5385329807
O   O3        1.0  0.49730  0.40280  0.32010  1.0000 -0.5385329807
O   O4        1.0  0.08270  0.17720  0.67990  1.0000 -0.5385329807
O   O5        1.0  0.58270  0.90280  0.90550  1.0000 -0.5385329807
O   O6        1.0  0.99730  0.67720  0.09450  1.0000 -0.5385329807
O   O7        1.0  0.50270  0.59720  0.67990  1.0000 -0.5385329807
O   O8        1.0  0.91730  0.82280  0.32010  1.0000 -0.5385329807
O   O9        1.0  0.08090  0.67180  0.64310  1.0000 -0.4813472489
O   O10       1.0  0.02870  0.43780  0.35690  1.0000 -0.4813472489
O   O11       1.0  0.47130  0.82820  0.40910  1.0000 -0.4813472489
O   O12       1.0  0.41910  0.06220  0.59090  1.0000 -0.4813472489
O   O13       1.0  0.91910  0.32820  0.35690  1.0000 -0.4813472489
O   O14       1.0  0.97130  0.56220  0.64310  1.0000 -0.4813472489
O   O15       1.0  0.52870  0.17180  0.59090  1.0000 -0.4813472489
O   O16       1.0  0.58090  0.93780  0.40910  1.0000 -0.4813472489
O   O17       1.0  0.16050  0.55240  0.60210  1.0000 -0.5080137933
O   O18       1.0  0.95030  0.55840  0.39790  1.0000 -0.5080137933
O   O19       1.0  0.54970  0.94760  0.60810  1.0000 -0.5080137933
O   O20       1.0  0.33950  0.94160  0.39190  1.0000 -0.5080137933
O   O21       1.0  0.83950  0.44760  0.39790  1.0000 -0.5080137933
O   O22       1.0  0.04970  0.44160  0.60210  1.0000 -0.5080137933
O   O23       1.0  0.45030  0.05240  0.39190  1.0000 -0.5080137933
O   O24       1.0  0.66050  0.05840  0.60810  1.0000 -0.5080137933
O   O25       1.0  0.26070  0.05000  0.99270  1.0000 -0.5746392319
O   O26       1.0  0.05730  0.26800  0.00730  1.0000 -0.5746392319
O   O27       1.0  0.44270  0.45000  0.21070  1.0000 -0.5746392319
O   O28       1.0  0.23930  0.23200  0.78930  1.0000 -0.5746392319
O   O29       1.0  0.73930  0.95000  0.00730  1.0000 -0.5746392319
O   O30       1.0  0.94270  0.73200  0.99270  1.0000 -0.5746392319
O   O31       1.0  0.55730  0.55000  0.78930  1.0000 -0.5746392319
O   O32       1.0  0.76070  0.76800  0.21070  1.0000 -0.5746392319
