# DDEC6 charges by PACMAN v1.1 (https://github.com/mtap-research/PACMAN-charge/)
data_2007[In][ctn]3[ASR]2
_chemical_formula_sum              "In6 H24 C72 O48"
_cell_length_a       17.6437
_cell_length_b       17.6437
_cell_length_c       17.6437
_cell_angle_alpha    109.471
_cell_angle_beta     109.471
_cell_angle_gamma    109.471

_symmetry_space_group_name_H-M    "P 1"
_symmetry_Int_Tables_number       1

loop_
  _symmetry_equiv_pos_as_xyz
  'x, y, z'

loop_
  _atom_site_type_symbol
  _atom_site_label
  _atom_site_symmetry_multiplicity
  _atom_site_fract_x
  _atom_site_fract_y
  _atom_site_fract_z
  _atom_site_occupancy
  _atom_site_charge
In  In1       1.0  0.37500  0.62500  0.75000  1.0000 1.3281998937
In  In2       1.0  0.87500  0.25000  0.12500  1.0000 1.3281998937
In  In3       1.0  0.12500  0.87500  0.25000  1.0000 1.3281998937
In  In4       1.0  0.62500  0.75000  0.37500  1.0000 1.3281998937
In  In5       1.0  0.75000  0.37500  0.62500  1.0000 1.3281998937
In  In6       1.0  0.25000  0.12500  0.87500  1.0000 1.3281998937
H   H1        1.0  0.48070  0.65750  0.04400  1.0000 0.1476365842
H   H2        1.0  0.34250  0.88650  0.82320  1.0000 0.1476365842
H   H3        1.0  0.11350  0.43670  0.45600  1.0000 0.1476365842
H   H4        1.0  0.56330  0.51930  0.67680  1.0000 0.1476365842
H   H5        1.0  0.61350  0.95600  0.93670  1.0000 0.1476365842
H   H6        1.0  0.01930  0.06330  0.17680  1.0000 0.1476365842
H   H7        1.0  0.88650  0.82320  0.34250  1.0000 0.1476365842
H   H8        1.0  0.67680  0.56330  0.51930  1.0000 0.1476365842
H   H9        1.0  0.38650  0.84250  0.32320  1.0000 0.1476365842
H   H10       1.0  0.95600  0.93670  0.61350  1.0000 0.1476365842
H   H11       1.0  0.04400  0.48070  0.65750  1.0000 0.1476365842
H   H12       1.0  0.65750  0.04400  0.48070  1.0000 0.1476365842
H   H13       1.0  0.06330  0.17680  0.01930  1.0000 0.1476365842
H   H14       1.0  0.45600  0.11350  0.43670  1.0000 0.1476365842
H   H15       1.0  0.43670  0.45600  0.11350  1.0000 0.1476365842
H   H16       1.0  0.32320  0.38650  0.84250  1.0000 0.1476365842
H   H17       1.0  0.17680  0.01930  0.06330  1.0000 0.1476365842
H   H18       1.0  0.84250  0.32320  0.38650  1.0000 0.1476365842
H   H19       1.0  0.93670  0.61350  0.95600  1.0000 0.1476365842
H   H20       1.0  0.15750  0.98070  0.54400  1.0000 0.1476365842
H   H21       1.0  0.51930  0.67680  0.56330  1.0000 0.1476365842
H   H22       1.0  0.98070  0.54400  0.15750  1.0000 0.1476365842
H   H23       1.0  0.82320  0.34250  0.88650  1.0000 0.1476365842
H   H24       1.0  0.54400  0.15750  0.98070  1.0000 0.1476365842
C   C1        1.0  0.40090  0.52610  0.93320  1.0000 0.0032076856
C   C2        1.0  0.47390  0.90710  0.87480  1.0000 0.0032076856
C   C3        1.0  0.09290  0.46770  0.56680  1.0000 0.0032076856
C   C4        1.0  0.53230  0.59910  0.62520  1.0000 0.0032076856
C   C5        1.0  0.59290  0.06680  0.96770  1.0000 0.0032076856
C   C6        1.0  0.09910  0.03230  0.12520  1.0000 0.0032076856
C   C7        1.0  0.90710  0.87480  0.47390  1.0000 0.0032076856
C   C8        1.0  0.62520  0.53230  0.59910  1.0000 0.0032076856
C   C9        1.0  0.40710  0.97390  0.37480  1.0000 0.0032076856
C   C10       1.0  0.06680  0.96770  0.59290  1.0000 0.0032076856
C   C11       1.0  0.93320  0.40090  0.52610  1.0000 0.0032076856
C   C12       1.0  0.52610  0.93320  0.40090  1.0000 0.0032076856
C   C13       1.0  0.03230  0.12520  0.09910  1.0000 0.0032076856
C   C14       1.0  0.56680  0.09290  0.46770  1.0000 0.0032076856
C   C15       1.0  0.46770  0.56680  0.09290  1.0000 0.0032076856
C   C16       1.0  0.37480  0.40710  0.97390  1.0000 0.0032076856
C   C17       1.0  0.12520  0.09910  0.03230  1.0000 0.0032076856
C   C18       1.0  0.97390  0.37480  0.40710  1.0000 0.0032076856
C   C19       1.0  0.96770  0.59290  0.06680  1.0000 0.0032076856
C   C20       1.0  0.02610  0.90090  0.43320  1.0000 0.0032076856
C   C21       1.0  0.59910  0.62520  0.53230  1.0000 0.0032076856
C   C22       1.0  0.90090  0.43320  0.02610  1.0000 0.0032076856
C   C23       1.0  0.87480  0.47390  0.90710  1.0000 0.0032076856
C   C24       1.0  0.43320  0.02610  0.90090  1.0000 0.0032076856
C   C25       1.0  0.38510  0.55430  0.86040  1.0000 0.543203116
C   C26       1.0  0.44570  0.80610  0.83080  1.0000 0.543203116
C   C27       1.0  0.19390  0.52470  0.63960  1.0000 0.543203116
C   C28       1.0  0.47530  0.61490  0.66920  1.0000 0.543203116
C   C29       1.0  0.69390  0.13960  0.02470  1.0000 0.543203116
C   C30       1.0  0.11490  0.97530  0.16920  1.0000 0.543203116
C   C31       1.0  0.80610  0.83080  0.44570  1.0000 0.543203116
C   C32       1.0  0.66920  0.47530  0.61490  1.0000 0.543203116
C   C33       1.0  0.30610  0.94570  0.33080  1.0000 0.543203116
C   C34       1.0  0.13960  0.02470  0.69390  1.0000 0.543203116
C   C35       1.0  0.86040  0.38510  0.55430  1.0000 0.543203116
C   C36       1.0  0.55430  0.86040  0.38510  1.0000 0.543203116
C   C37       1.0  0.97530  0.16920  0.11490  1.0000 0.543203116
C   C38       1.0  0.63960  0.19390  0.52470  1.0000 0.543203116
C   C39       1.0  0.52470  0.63960  0.19390  1.0000 0.543203116
C   C40       1.0  0.33080  0.30610  0.94570  1.0000 0.543203116
C   C41       1.0  0.16920  0.11490  0.97530  1.0000 0.543203116
C   C42       1.0  0.94570  0.33080  0.30610  1.0000 0.543203116
C   C43       1.0  0.02470  0.69390  0.13960  1.0000 0.543203116
C   C44       1.0  0.05430  0.88510  0.36040  1.0000 0.543203116
C   C45       1.0  0.61490  0.66920  0.47530  1.0000 0.543203116
C   C46       1.0  0.88510  0.36040  0.05430  1.0000 0.543203116
C   C47       1.0  0.83080  0.44570  0.80610  1.0000 0.543203116
C   C48       1.0  0.36040  0.05430  0.88510  1.0000 0.543203116
C   C49       1.0  0.45400  0.59370  0.02610  1.0000 -0.0834933735
C   C50       1.0  0.40630  0.93240  0.86030  1.0000 -0.0834933735
C   C51       1.0  0.06760  0.42790  0.47390  1.0000 -0.0834933735
C   C52       1.0  0.57210  0.54600  0.63970  1.0000 -0.0834933735
C   C53       1.0  0.56760  0.97390  0.92790  1.0000 -0.0834933735
C   C54       1.0  0.04600  0.07210  0.13970  1.0000 -0.0834933735
C   C55       1.0  0.93240  0.86030  0.40630  1.0000 -0.0834933735
C   C56       1.0  0.63970  0.57210  0.54600  1.0000 -0.0834933735
C   C57       1.0  0.43240  0.90630  0.36030  1.0000 -0.0834933735
C   C58       1.0  0.97390  0.92790  0.56760  1.0000 -0.0834933735
C   C59       1.0  0.02610  0.45400  0.59370  1.0000 -0.0834933735
C   C60       1.0  0.59370  0.02610  0.45400  1.0000 -0.0834933735
C   C61       1.0  0.07210  0.13970  0.04600  1.0000 -0.0834933735
C   C62       1.0  0.47390  0.06760  0.42790  1.0000 -0.0834933735
C   C63       1.0  0.42790  0.47390  0.06760  1.0000 -0.0834933735
C   C64       1.0  0.36030  0.43240  0.90630  1.0000 -0.0834933735
C   C65       1.0  0.13970  0.04600  0.07210  1.0000 -0.0834933735
C   C66       1.0  0.90630  0.36030  0.43240  1.0000 -0.0834933735
C   C67       1.0  0.92790  0.56760  0.97390  1.0000 -0.0834933735
C   C68       1.0  0.09370  0.95400  0.52610  1.0000 -0.0834933735
C   C69       1.0  0.54600  0.63970  0.57210  1.0000 -0.0834933735
C   C70       1.0  0.95400  0.52610  0.09370  1.0000 -0.0834933735
C   C71       1.0  0.86030  0.40630  0.93240  1.0000 -0.0834933735
C   C72       1.0  0.52610  0.09370  0.95400  1.0000 -0.0834933735
O   O1        1.0  0.41680  0.63880  0.88560  1.0000 -0.4863876037
O   O2        1.0  0.36120  0.74680  0.77800  1.0000 -0.4863876037
O   O3        1.0  0.25320  0.53120  0.61440  1.0000 -0.4863876037
O   O4        1.0  0.46880  0.58320  0.72200  1.0000 -0.4863876037
O   O5        1.0  0.75320  0.11440  0.03120  1.0000 -0.4863876037
O   O6        1.0  0.08320  0.96880  0.22200  1.0000 -0.4863876037
O   O7        1.0  0.74680  0.77800  0.36120  1.0000 -0.4863876037
O   O8        1.0  0.72200  0.46880  0.58320  1.0000 -0.4863876037
O   O9        1.0  0.24680  0.86120  0.27800  1.0000 -0.4863876037
O   O10       1.0  0.11440  0.03120  0.75320  1.0000 -0.4863876037
O   O11       1.0  0.88560  0.41680  0.63880  1.0000 -0.4863876037
O   O12       1.0  0.63880  0.88560  0.41680  1.0000 -0.4863876037
O   O13       1.0  0.96880  0.22200  0.08320  1.0000 -0.4863876037
O   O14       1.0  0.61440  0.25320  0.53120  1.0000 -0.4863876037
O   O15       1.0  0.53120  0.61440  0.25320  1.0000 -0.4863876037
O   O16       1.0  0.27800  0.24680  0.86120  1.0000 -0.4863876037
O   O17       1.0  0.22200  0.08320  0.96880  1.0000 -0.4863876037
O   O18       1.0  0.86120  0.27800  0.24680  1.0000 -0.4863876037
O   O19       1.0  0.03120  0.75320  0.11440  1.0000 -0.4863876037
O   O20       1.0  0.13880  0.91680  0.38560  1.0000 -0.4863876037
O   O21       1.0  0.58320  0.72200  0.46880  1.0000 -0.4863876037
O   O22       1.0  0.91680  0.38560  0.13880  1.0000 -0.4863876037
O   O23       1.0  0.77800  0.36120  0.74680  1.0000 -0.4863876037
O   O24       1.0  0.38560  0.13880  0.91680  1.0000 -0.4863876037
O   O25       1.0  0.34450  0.49540  0.77670  1.0000 -0.4546673815
O   O26       1.0  0.50460  0.78130  0.84910  1.0000 -0.4546673815
O   O27       1.0  0.21870  0.56780  0.72330  1.0000 -0.4546673815
O   O28       1.0  0.43220  0.65550  0.65090  1.0000 -0.4569908822
O   O29       1.0  0.71870  0.22330  0.06780  1.0000 -0.4569908822
O   O30       1.0  0.15550  0.93220  0.15090  1.0000 -0.4569908822
O   O31       1.0  0.78130  0.84910  0.50460  1.0000 -0.4569908822
O   O32       1.0  0.65090  0.43220  0.65550  1.0000 -0.4569908822
O   O33       1.0  0.28130  0.00460  0.34910  1.0000 -0.4546673815
O   O34       1.0  0.22330  0.06780  0.71870  1.0000 -0.4569908822
O   O35       1.0  0.77670  0.34450  0.49540  1.0000 -0.4546673815
O   O36       1.0  0.49540  0.77670  0.34450  1.0000 -0.4569908822
O   O37       1.0  0.93220  0.15090  0.15550  1.0000 -0.4569908822
O   O38       1.0  0.72330  0.21870  0.56780  1.0000 -0.4569908822
O   O39       1.0  0.56780  0.72330  0.21870  1.0000 -0.4546673815
O   O40       1.0  0.34910  0.28130  0.00460  1.0000 -0.4569908822
O   O41       1.0  0.15090  0.15550  0.93220  1.0000 -0.4569908822
O   O42       1.0  0.00460  0.34910  0.28130  1.0000 -0.4569908822
O   O43       1.0  0.06780  0.71870  0.22330  1.0000 -0.4569908822
O   O44       1.0  0.99540  0.84450  0.27670  1.0000 -0.4569908822
O   O45       1.0  0.65550  0.65090  0.43220  1.0000 -0.4569908822
O   O46       1.0  0.84450  0.27670  0.99540  1.0000 -0.4546673815
O   O47       1.0  0.84910  0.50460  0.78130  1.0000 -0.4546673815
O   O48       1.0  0.27670  0.99540  0.84450  1.0000 -0.4569908822
