# DDEC6 charges by PACMAN v1.1 (https://github.com/mtap-research/PACMAN-charge/)
data_2007[Cd][pyr]3[ASR]1
_chemical_formula_sum              "Cd4 H144 C192 N48 O24"
_cell_length_a       21.4393
_cell_length_b       21.4393
_cell_length_c       21.4393
_cell_angle_alpha    109.471
_cell_angle_beta     109.471
_cell_angle_gamma    109.471

_symmetry_space_group_name_H-M    "P 1"
_symmetry_Int_Tables_number       1

loop_
  _symmetry_equiv_pos_as_xyz
  'x, y, z'

loop_
  _atom_site_type_symbol
  _atom_site_label
  _atom_site_symmetry_multiplicity
  _atom_site_fract_x
  _atom_site_fract_y
  _atom_site_fract_z
  _atom_site_occupancy
  _atom_site_charge
Cd  Cd1       1.0  0.00000  0.00000  0.00000  1.0000 0.6093479426
Cd  Cd2       1.0  0.50000  0.00000  0.50000  1.0000 0.6093479426
Cd  Cd3       1.0  0.50000  0.50000  0.00000  1.0000 0.6093479426
Cd  Cd4       1.0  0.00000  0.50000  0.50000  1.0000 0.6093479426
H   H1        1.0  0.08360  0.08160  0.92400  1.0000 0.096995877
H   H2        1.0  0.08160  0.92400  0.08360  1.0000 0.096995877
H   H3        1.0  0.92400  0.08360  0.08160  1.0000 0.096995877
H   H4        1.0  0.65760  0.15960  0.57600  1.0000 0.096995877
H   H5        1.0  0.34040  0.99800  0.41640  1.0000 0.096995877
H   H6        1.0  0.50200  0.84240  0.41840  1.0000 0.096995877
H   H7        1.0  0.41840  0.50200  0.84240  1.0000 0.096995877
H   H8        1.0  0.57600  0.65760  0.15960  1.0000 0.096995877
H   H9        1.0  0.99800  0.41640  0.34040  1.0000 0.096995877
H   H10       1.0  0.84240  0.41840  0.50200  1.0000 0.096995877
H   H11       1.0  0.15960  0.57600  0.65760  1.0000 0.096995877
H   H12       1.0  0.41640  0.34040  0.99800  1.0000 0.096995877
H   H13       1.0  0.91640  0.91840  0.07600  1.0000 0.096995877
H   H14       1.0  0.91840  0.07600  0.91640  1.0000 0.096995877
H   H15       1.0  0.07600  0.91640  0.91840  1.0000 0.096995877
H   H16       1.0  0.34240  0.84040  0.42400  1.0000 0.096995877
H   H17       1.0  0.65960  0.00200  0.58360  1.0000 0.096995877
H   H18       1.0  0.49800  0.15760  0.58160  1.0000 0.096995877
H   H19       1.0  0.58160  0.49800  0.15760  1.0000 0.096995877
H   H20       1.0  0.42400  0.34240  0.84040  1.0000 0.096995877
H   H21       1.0  0.00200  0.58360  0.65960  1.0000 0.096995877
H   H22       1.0  0.15760  0.58160  0.49800  1.0000 0.096995877
H   H23       1.0  0.84040  0.42400  0.34240  1.0000 0.096995877
H   H24       1.0  0.58360  0.65960  0.00200  1.0000 0.096995877
H   H25       1.0  0.13630  0.19080  0.91890  1.0000 0.1525548653
H   H26       1.0  0.19080  0.91890  0.13630  1.0000 0.1525548653
H   H27       1.0  0.91890  0.13630  0.19080  1.0000 0.1525548653
H   H28       1.0  0.77190  0.21740  0.58110  1.0000 0.1525548653
H   H29       1.0  0.28260  0.05450  0.36370  1.0000 0.1525548653
H   H30       1.0  0.44550  0.72810  0.30920  1.0000 0.1525548653
H   H31       1.0  0.30920  0.44550  0.72810  1.0000 0.1525548653
H   H32       1.0  0.58110  0.77190  0.21740  1.0000 0.1525548653
H   H33       1.0  0.05450  0.36370  0.28260  1.0000 0.1525548653
H   H34       1.0  0.72810  0.30920  0.44550  1.0000 0.1525548653
H   H35       1.0  0.21740  0.58110  0.77190  1.0000 0.1525548653
H   H36       1.0  0.36370  0.28260  0.05450  1.0000 0.1525548653
H   H37       1.0  0.86370  0.80920  0.08110  1.0000 0.1525548653
H   H38       1.0  0.80920  0.08110  0.86370  1.0000 0.1525548653
H   H39       1.0  0.08110  0.86370  0.80920  1.0000 0.1525548653
H   H40       1.0  0.22810  0.78260  0.41890  1.0000 0.1525548653
H   H41       1.0  0.71740  0.94550  0.63630  1.0000 0.1525548653
H   H42       1.0  0.55450  0.27190  0.69080  1.0000 0.1525548653
H   H43       1.0  0.69080  0.55450  0.27190  1.0000 0.1525548653
H   H44       1.0  0.41890  0.22810  0.78260  1.0000 0.1525548653
H   H45       1.0  0.94550  0.63630  0.71740  1.0000 0.1525548653
H   H46       1.0  0.27190  0.69080  0.55450  1.0000 0.1525548653
H   H47       1.0  0.78260  0.41890  0.22810  1.0000 0.1525548653
H   H48       1.0  0.63630  0.71740  0.94550  1.0000 0.1525548653
H   H49       1.0  0.10560  0.29060  0.09320  1.0000 0.1377479614
H   H50       1.0  0.29060  0.09320  0.10560  1.0000 0.1377479614
H   H51       1.0  0.09320  0.10560  0.29060  1.0000 0.1377479614
H   H52       1.0  0.69740  0.01240  0.40680  1.0000 0.1377479614
H   H53       1.0  0.48760  0.18500  0.39440  1.0000 0.1377479614
H   H54       1.0  0.31500  0.80260  0.20940  1.0000 0.1377479614
H   H55       1.0  0.20940  0.31500  0.80260  1.0000 0.1377479614
H   H56       1.0  0.40680  0.69740  0.01240  1.0000 0.1377479614
H   H57       1.0  0.18500  0.39440  0.48760  1.0000 0.1377479614
H   H58       1.0  0.80260  0.20940  0.31500  1.0000 0.1377479614
H   H59       1.0  0.01240  0.40680  0.69740  1.0000 0.1377479614
H   H60       1.0  0.39440  0.48760  0.18500  1.0000 0.1377479614
H   H61       1.0  0.89440  0.70940  0.90680  1.0000 0.1377479614
H   H62       1.0  0.70940  0.90680  0.89440  1.0000 0.1377479614
H   H63       1.0  0.90680  0.89440  0.70940  1.0000 0.1377479614
H   H64       1.0  0.30260  0.98760  0.59320  1.0000 0.1377479614
H   H65       1.0  0.51240  0.81500  0.60560  1.0000 0.1377479614
H   H66       1.0  0.68500  0.19740  0.79060  1.0000 0.1377479614
H   H67       1.0  0.79060  0.68500  0.19740  1.0000 0.1377479614
H   H68       1.0  0.59320  0.30260  0.98760  1.0000 0.1377479614
H   H69       1.0  0.81500  0.60560  0.51240  1.0000 0.1377479614
H   H70       1.0  0.19740  0.79060  0.68500  1.0000 0.1377479614
H   H71       1.0  0.98760  0.59320  0.30260  1.0000 0.1377479614
H   H72       1.0  0.60560  0.51240  0.81500  1.0000 0.1377479614
H   H73       1.0  0.06000  0.17980  0.09280  1.0000 0.096995877
H   H74       1.0  0.17980  0.09280  0.06000  1.0000 0.096995877
H   H75       1.0  0.09280  0.06000  0.17980  1.0000 0.096995877
H   H76       1.0  0.58700  0.96720  0.40720  1.0000 0.096995877
H   H77       1.0  0.53280  0.11980  0.44000  1.0000 0.096995877
H   H78       1.0  0.38020  0.91300  0.32020  1.0000 0.096995877
H   H79       1.0  0.32020  0.38020  0.91300  1.0000 0.096995877
H   H80       1.0  0.40720  0.58700  0.96720  1.0000 0.096995877
H   H81       1.0  0.11980  0.44000  0.53280  1.0000 0.096995877
H   H82       1.0  0.91300  0.32020  0.38020  1.0000 0.096995877
H   H83       1.0  0.96720  0.40720  0.58700  1.0000 0.096995877
H   H84       1.0  0.44000  0.53280  0.11980  1.0000 0.096995877
H   H85       1.0  0.94000  0.82020  0.90720  1.0000 0.096995877
H   H86       1.0  0.82020  0.90720  0.94000  1.0000 0.096995877
H   H87       1.0  0.90720  0.94000  0.82020  1.0000 0.096995877
H   H88       1.0  0.41300  0.03280  0.59280  1.0000 0.096995877
H   H89       1.0  0.46720  0.88020  0.56000  1.0000 0.096995877
H   H90       1.0  0.61980  0.08700  0.67980  1.0000 0.096995877
H   H91       1.0  0.67980  0.61980  0.08700  1.0000 0.096995877
H   H92       1.0  0.59280  0.41300  0.03280  1.0000 0.096995877
H   H93       1.0  0.88020  0.56000  0.46720  1.0000 0.096995877
H   H94       1.0  0.08700  0.67980  0.61980  1.0000 0.096995877
H   H95       1.0  0.03280  0.59280  0.41300  1.0000 0.096995877
H   H96       1.0  0.56000  0.46720  0.88020  1.0000 0.096995877
H   H97       1.0  0.16430  0.40120  0.87730  1.0000 0.1110785113
H   H98       1.0  0.40120  0.87730  0.16430  1.0000 0.1110785113
H   H99       1.0  0.87730  0.16430  0.40120  1.0000 0.1110785113
H   H100      1.0  0.02390  0.28700  0.62270  1.0000 0.1110785113
H   H101      1.0  0.21300  0.23690  0.33570  1.0000 0.1110785113
H   H102      1.0  0.26310  0.47610  0.09880  1.0000 0.1110785113
H   H103      1.0  0.09880  0.26310  0.47610  1.0000 0.1110785113
H   H104      1.0  0.62270  0.02390  0.28700  1.0000 0.1110785113
H   H105      1.0  0.23690  0.33570  0.21300  1.0000 0.1110785113
H   H106      1.0  0.47610  0.09880  0.26310  1.0000 0.1110785113
H   H107      1.0  0.28700  0.62270  0.02390  1.0000 0.1110785113
H   H108      1.0  0.33570  0.21300  0.23690  1.0000 0.1110785113
H   H109      1.0  0.83570  0.59880  0.12270  1.0000 0.1110785113
H   H110      1.0  0.59880  0.12270  0.83570  1.0000 0.1110785113
H   H111      1.0  0.12270  0.83570  0.59880  1.0000 0.1110785113
H   H112      1.0  0.97610  0.71300  0.37730  1.0000 0.1110785113
H   H113      1.0  0.78700  0.76310  0.66430  1.0000 0.1110785113
H   H114      1.0  0.73690  0.52390  0.90120  1.0000 0.1110785113
H   H115      1.0  0.90120  0.73690  0.52390  1.0000 0.1110785113
H   H116      1.0  0.37730  0.97610  0.71300  1.0000 0.1110785113
H   H117      1.0  0.76310  0.66430  0.78700  1.0000 0.1110785113
H   H118      1.0  0.52390  0.90120  0.73690  1.0000 0.1110785113
H   H119      1.0  0.71300  0.37730  0.97610  1.0000 0.1110785113
H   H120      1.0  0.66430  0.78700  0.76310  1.0000 0.1110785113
H   H121      1.0  0.16160  0.36410  0.04690  1.0000 0.2751757757
H   H122      1.0  0.36410  0.04690  0.16160  1.0000 0.2751757757
H   H123      1.0  0.04690  0.16160  0.36410  1.0000 0.2751757757
H   H124      1.0  0.81720  0.11470  0.45310  1.0000 0.2751757757
H   H125      1.0  0.38530  0.20250  0.33840  1.0000 0.2751757757
H   H126      1.0  0.29750  0.68280  0.13590  1.0000 0.2751757757
H   H127      1.0  0.13590  0.29750  0.68280  1.0000 0.2751757757
H   H128      1.0  0.45310  0.81720  0.11470  1.0000 0.2751757757
H   H129      1.0  0.20250  0.33840  0.38530  1.0000 0.2751757757
H   H130      1.0  0.68280  0.13590  0.29750  1.0000 0.2751757757
H   H131      1.0  0.11470  0.45310  0.81720  1.0000 0.2751757757
H   H132      1.0  0.33840  0.38530  0.20250  1.0000 0.2751757757
H   H133      1.0  0.83840  0.63590  0.95310  1.0000 0.2751757757
H   H134      1.0  0.63590  0.95310  0.83840  1.0000 0.2751757757
H   H135      1.0  0.95310  0.83840  0.63590  1.0000 0.2751757757
H   H136      1.0  0.18280  0.88530  0.54690  1.0000 0.2751757757
H   H137      1.0  0.61470  0.79750  0.66160  1.0000 0.2751757757
H   H138      1.0  0.70250  0.31720  0.86410  1.0000 0.2751757757
H   H139      1.0  0.86410  0.70250  0.31720  1.0000 0.2751757757
H   H140      1.0  0.54690  0.18280  0.88530  1.0000 0.2751757757
H   H141      1.0  0.79750  0.66160  0.61470  1.0000 0.2751757757
H   H142      1.0  0.31720  0.86410  0.70250  1.0000 0.2751757757
H   H143      1.0  0.88530  0.54690  0.18280  1.0000 0.2751757757
H   H144      1.0  0.66160  0.61470  0.79750  1.0000 0.2751757757
C   C1        1.0  0.08870  0.12520  0.95930  1.0000 0.0564490274
C   C2        1.0  0.12520  0.95930  0.08870  1.0000 0.0564490274
C   C3        1.0  0.95930  0.08870  0.12520  1.0000 0.0564490274
C   C4        1.0  0.66590  0.12940  0.54070  1.0000 0.0564490274
C   C5        1.0  0.37060  0.03650  0.41130  1.0000 0.0564490274
C   C6        1.0  0.46350  0.83410  0.37480  1.0000 0.0564490274
C   C7        1.0  0.37480  0.46350  0.83410  1.0000 0.0564490274
C   C8        1.0  0.54070  0.66590  0.12940  1.0000 0.0564490274
C   C9        1.0  0.03650  0.41130  0.37060  1.0000 0.0564490274
C   C10       1.0  0.83410  0.37480  0.46350  1.0000 0.0564490274
C   C11       1.0  0.12940  0.54070  0.66590  1.0000 0.0564490274
C   C12       1.0  0.41130  0.37060  0.03650  1.0000 0.0564490274
C   C13       1.0  0.91130  0.87480  0.04070  1.0000 0.0564490274
C   C14       1.0  0.87480  0.04070  0.91130  1.0000 0.0564490274
C   C15       1.0  0.04070  0.91130  0.87480  1.0000 0.0564490274
C   C16       1.0  0.33410  0.87060  0.45930  1.0000 0.0564490274
C   C17       1.0  0.62940  0.96350  0.58870  1.0000 0.0564490274
C   C18       1.0  0.53650  0.16590  0.62520  1.0000 0.0564490274
C   C19       1.0  0.62520  0.53650  0.16590  1.0000 0.0564490274
C   C20       1.0  0.45930  0.33410  0.87060  1.0000 0.0564490274
C   C21       1.0  0.96350  0.58870  0.62940  1.0000 0.0564490274
C   C22       1.0  0.16590  0.62520  0.53650  1.0000 0.0564490274
C   C23       1.0  0.87060  0.45930  0.33410  1.0000 0.0564490274
C   C24       1.0  0.58870  0.62940  0.96350  1.0000 0.0564490274
C   C25       1.0  0.12030  0.18980  0.95410  1.0000 -0.2371254507
C   C26       1.0  0.18980  0.95410  0.12030  1.0000 -0.2371254507
C   C27       1.0  0.95410  0.12030  0.18980  1.0000 -0.2371254507
C   C28       1.0  0.73570  0.16620  0.54590  1.0000 -0.2371254507
C   C29       1.0  0.33380  0.06950  0.37970  1.0000 -0.2371254507
C   C30       1.0  0.43050  0.76430  0.31020  1.0000 -0.2371254507
C   C31       1.0  0.31020  0.43050  0.76430  1.0000 -0.2371254507
C   C32       1.0  0.54590  0.73570  0.16620  1.0000 -0.2371254507
C   C33       1.0  0.06950  0.37970  0.33380  1.0000 -0.2371254507
C   C34       1.0  0.76430  0.31020  0.43050  1.0000 -0.2371254507
C   C35       1.0  0.16620  0.54590  0.73570  1.0000 -0.2371254507
C   C36       1.0  0.37970  0.33380  0.06950  1.0000 -0.2371254507
C   C37       1.0  0.87970  0.81020  0.04590  1.0000 -0.2371254507
C   C38       1.0  0.81020  0.04590  0.87970  1.0000 -0.2371254507
C   C39       1.0  0.04590  0.87970  0.81020  1.0000 -0.2371254507
C   C40       1.0  0.26430  0.83380  0.45410  1.0000 -0.2371254507
C   C41       1.0  0.66620  0.93050  0.62030  1.0000 -0.2371254507
C   C42       1.0  0.56950  0.23570  0.68980  1.0000 -0.2371254507
C   C43       1.0  0.68980  0.56950  0.23570  1.0000 -0.2371254507
C   C44       1.0  0.45410  0.26430  0.83380  1.0000 -0.2371254507
C   C45       1.0  0.93050  0.62030  0.66620  1.0000 -0.2371254507
C   C46       1.0  0.23570  0.68980  0.56950  1.0000 -0.2371254507
C   C47       1.0  0.83380  0.45410  0.26430  1.0000 -0.2371254507
C   C48       1.0  0.62030  0.66620  0.93050  1.0000 -0.2371254507
C   C49       1.0  0.12740  0.25490  0.00690  1.0000 0.2489786018
C   C50       1.0  0.25490  0.00690  0.12740  1.0000 0.2489786018
C   C51       1.0  0.00690  0.12740  0.25490  1.0000 0.2489786018
C   C52       1.0  0.74800  0.12050  0.49310  1.0000 0.2489786018
C   C53       1.0  0.37950  0.12750  0.37260  1.0000 0.2489786018
C   C54       1.0  0.37250  0.75200  0.24510  1.0000 0.2489786018
C   C55       1.0  0.24510  0.37250  0.75200  1.0000 0.2489786018
C   C56       1.0  0.49310  0.74800  0.12050  1.0000 0.2489786018
C   C57       1.0  0.12750  0.37260  0.37950  1.0000 0.2489786018
C   C58       1.0  0.75200  0.24510  0.37250  1.0000 0.2489786018
C   C59       1.0  0.12050  0.49310  0.74800  1.0000 0.2489786018
C   C60       1.0  0.37260  0.37950  0.12750  1.0000 0.2489786018
C   C61       1.0  0.87260  0.74510  0.99310  1.0000 0.2489786018
C   C62       1.0  0.74510  0.99310  0.87260  1.0000 0.2489786018
C   C63       1.0  0.99310  0.87260  0.74510  1.0000 0.2489786018
C   C64       1.0  0.25200  0.87950  0.50690  1.0000 0.2489786018
C   C65       1.0  0.62050  0.87250  0.62740  1.0000 0.2489786018
C   C66       1.0  0.62750  0.24800  0.75490  1.0000 0.2489786018
C   C67       1.0  0.75490  0.62750  0.24800  1.0000 0.2489786018
C   C68       1.0  0.50690  0.25200  0.87950  1.0000 0.2489786018
C   C69       1.0  0.87250  0.62740  0.62050  1.0000 0.2489786018
C   C70       1.0  0.24800  0.75490  0.62750  1.0000 0.2489786018
C   C71       1.0  0.87950  0.50690  0.25200  1.0000 0.2489786018
C   C72       1.0  0.62740  0.62050  0.87250  1.0000 0.2489786018
C   C73       1.0  0.10220  0.24820  0.05780  1.0000 -0.2602809481
C   C74       1.0  0.24820  0.05780  0.10220  1.0000 -0.2602809481
C   C75       1.0  0.05780  0.10220  0.24820  1.0000 -0.2602809481
C   C76       1.0  0.69040  0.04440  0.44220  1.0000 -0.2602809481
C   C77       1.0  0.45560  0.14600  0.39780  1.0000 -0.2602809481
C   C78       1.0  0.35400  0.80960  0.25180  1.0000 -0.2602809481
C   C79       1.0  0.25180  0.35400  0.80960  1.0000 -0.2602809481
C   C80       1.0  0.44220  0.69040  0.04440  1.0000 -0.2602809481
C   C81       1.0  0.14600  0.39780  0.45560  1.0000 -0.2602809481
C   C82       1.0  0.80960  0.25180  0.35400  1.0000 -0.2602809481
C   C83       1.0  0.04440  0.44220  0.69040  1.0000 -0.2602809481
C   C84       1.0  0.39780  0.45560  0.14600  1.0000 -0.2602809481
C   C85       1.0  0.89780  0.75180  0.94220  1.0000 -0.2602809481
C   C86       1.0  0.75180  0.94220  0.89780  1.0000 -0.2602809481
C   C87       1.0  0.94220  0.89780  0.75180  1.0000 -0.2602809481
C   C88       1.0  0.30960  0.95560  0.55780  1.0000 -0.2602809481
C   C89       1.0  0.54440  0.85400  0.60220  1.0000 -0.2602809481
C   C90       1.0  0.64600  0.19040  0.74820  1.0000 -0.2602809481
C   C91       1.0  0.74820  0.64600  0.19040  1.0000 -0.2602809481
C   C92       1.0  0.55780  0.30960  0.95560  1.0000 -0.2602809481
C   C93       1.0  0.85400  0.60220  0.54440  1.0000 -0.2602809481
C   C94       1.0  0.19040  0.74820  0.64600  1.0000 -0.2602809481
C   C95       1.0  0.95560  0.55780  0.30960  1.0000 -0.2602809481
C   C96       1.0  0.60220  0.54440  0.85400  1.0000 -0.2602809481
C   C97       1.0  0.07460  0.18170  0.05690  1.0000 0.038689867
C   C98       1.0  0.18170  0.05690  0.07460  1.0000 0.038689867
C   C99       1.0  0.05690  0.07460  0.18170  1.0000 0.038689867
C   C100      1.0  0.62480  0.01770  0.44310  1.0000 0.038689867
C   C101      1.0  0.48230  0.10710  0.42540  1.0000 0.038689867
C   C102      1.0  0.39290  0.87520  0.31830  1.0000 0.038689867
C   C103      1.0  0.31830  0.39290  0.87520  1.0000 0.038689867
C   C104      1.0  0.44310  0.62480  0.01770  1.0000 0.038689867
C   C105      1.0  0.10710  0.42540  0.48230  1.0000 0.038689867
C   C106      1.0  0.87520  0.31830  0.39290  1.0000 0.038689867
C   C107      1.0  0.01770  0.44310  0.62480  1.0000 0.038689867
C   C108      1.0  0.42540  0.48230  0.10710  1.0000 0.038689867
C   C109      1.0  0.92540  0.81830  0.94310  1.0000 0.038689867
C   C110      1.0  0.81830  0.94310  0.92540  1.0000 0.038689867
C   C111      1.0  0.94310  0.92540  0.81830  1.0000 0.038689867
C   C112      1.0  0.37520  0.98230  0.55690  1.0000 0.038689867
C   C113      1.0  0.51770  0.89290  0.57460  1.0000 0.038689867
C   C114      1.0  0.60710  0.12480  0.68170  1.0000 0.038689867
C   C115      1.0  0.68170  0.60710  0.12480  1.0000 0.038689867
C   C116      1.0  0.55690  0.37520  0.98230  1.0000 0.038689867
C   C117      1.0  0.89290  0.57460  0.51770  1.0000 0.038689867
C   C118      1.0  0.12480  0.68170  0.60710  1.0000 0.038689867
C   C119      1.0  0.98230  0.55690  0.37520  1.0000 0.038689867
C   C120      1.0  0.57460  0.51770  0.89290  1.0000 0.038689867
C   C121      1.0  0.17840  0.34410  0.96370  1.0000 0.4485329607
C   C122      1.0  0.34410  0.96370  0.17840  1.0000 0.4485329607
C   C123      1.0  0.96370  0.17840  0.34410  1.0000 0.4485329607
C   C124      1.0  0.88040  0.21470  0.53630  1.0000 0.4485329607
C   C125      1.0  0.28530  0.16570  0.32160  1.0000 0.4485329607
C   C126      1.0  0.33430  0.61960  0.15590  1.0000 0.4485329607
C   C127      1.0  0.15590  0.33430  0.61960  1.0000 0.4485329607
C   C128      1.0  0.53630  0.88040  0.21470  1.0000 0.4485329607
C   C129      1.0  0.16570  0.32160  0.28530  1.0000 0.4485329607
C   C130      1.0  0.61960  0.15590  0.33430  1.0000 0.4485329607
C   C131      1.0  0.21470  0.53630  0.88040  1.0000 0.4485329607
C   C132      1.0  0.32160  0.28530  0.16570  1.0000 0.4485329607
C   C133      1.0  0.82160  0.65590  0.03630  1.0000 0.4485329607
C   C134      1.0  0.65590  0.03630  0.82160  1.0000 0.4485329607
C   C135      1.0  0.03630  0.82160  0.65590  1.0000 0.4485329607
C   C136      1.0  0.11960  0.78530  0.46370  1.0000 0.4485329607
C   C137      1.0  0.71470  0.83430  0.67840  1.0000 0.4485329607
C   C138      1.0  0.66570  0.38040  0.84410  1.0000 0.4485329607
C   C139      1.0  0.84410  0.66570  0.38040  1.0000 0.4485329607
C   C140      1.0  0.46370  0.11960  0.78530  1.0000 0.4485329607
C   C141      1.0  0.83430  0.67840  0.71470  1.0000 0.4485329607
C   C142      1.0  0.38040  0.84410  0.66570  1.0000 0.4485329607
C   C143      1.0  0.78530  0.46370  0.11960  1.0000 0.4485329607
C   C144      1.0  0.67840  0.71470  0.83430  1.0000 0.4485329607
C   C145      1.0  0.20850  0.42660  0.98430  1.0000 -0.0191135915
C   C146      1.0  0.42660  0.98430  0.20850  1.0000 -0.0191135915
C   C147      1.0  0.98430  0.20850  0.42660  1.0000 -0.0191135915
C   C148      1.0  0.94230  0.22420  0.51570  1.0000 -0.0191135915
C   C149      1.0  0.27580  0.21810  0.29150  1.0000 -0.0191135915
C   C150      1.0  0.28190  0.55770  0.07340  1.0000 -0.0191135915
C   C151      1.0  0.07340  0.28190  0.55770  1.0000 -0.0191135915
C   C152      1.0  0.51570  0.94230  0.22420  1.0000 -0.0191135915
C   C153      1.0  0.21810  0.29150  0.27580  1.0000 -0.0191135915
C   C154      1.0  0.55770  0.07340  0.28190  1.0000 -0.0191135915
C   C155      1.0  0.22420  0.51570  0.94230  1.0000 -0.0191135915
C   C156      1.0  0.29150  0.27580  0.21810  1.0000 -0.0191135915
C   C157      1.0  0.79150  0.57340  0.01570  1.0000 -0.0191135915
C   C158      1.0  0.57340  0.01570  0.79150  1.0000 -0.0191135915
C   C159      1.0  0.01570  0.79150  0.57340  1.0000 -0.0191135915
C   C160      1.0  0.05770  0.77580  0.48430  1.0000 -0.0191135915
C   C161      1.0  0.72420  0.78190  0.70850  1.0000 -0.0191135915
C   C162      1.0  0.71810  0.44230  0.92660  1.0000 -0.0191135915
C   C163      1.0  0.92660  0.71810  0.44230  1.0000 -0.0191135915
C   C164      1.0  0.48430  0.05770  0.77580  1.0000 -0.0191135915
C   C165      1.0  0.78190  0.70850  0.72420  1.0000 -0.0191135915
C   C166      1.0  0.44230  0.92660  0.71810  1.0000 -0.0191135915
C   C167      1.0  0.77580  0.48430  0.05770  1.0000 -0.0191135915
C   C168      1.0  0.70850  0.72420  0.78190  1.0000 -0.0191135915
C   C169      1.0  0.19460  0.44130  0.92750  1.0000 -0.1544514764
C   C170      1.0  0.44130  0.92750  0.19460  1.0000 -0.1544514764
C   C171      1.0  0.92750  0.19460  0.44130  1.0000 -0.1544514764
C   C172      1.0  0.01380  0.26710  0.57250  1.0000 -0.1544514764
C   C173      1.0  0.23290  0.24670  0.30540  1.0000 -0.1544514764
C   C174      1.0  0.25330  0.48620  0.05870  1.0000 -0.1544514764
C   C175      1.0  0.05870  0.25330  0.48620  1.0000 -0.1544514764
C   C176      1.0  0.57250  0.01380  0.26710  1.0000 -0.1544514764
C   C177      1.0  0.24670  0.30540  0.23290  1.0000 -0.1544514764
C   C178      1.0  0.48620  0.05870  0.25330  1.0000 -0.1544514764
C   C179      1.0  0.26710  0.57250  0.01380  1.0000 -0.1544514764
C   C180      1.0  0.30540  0.23290  0.24670  1.0000 -0.1544514764
C   C181      1.0  0.80540  0.55870  0.07250  1.0000 -0.1544514764
C   C182      1.0  0.55870  0.07250  0.80540  1.0000 -0.1544514764
C   C183      1.0  0.07250  0.80540  0.55870  1.0000 -0.1544514764
C   C184      1.0  0.98620  0.73290  0.42750  1.0000 -0.1544514764
C   C185      1.0  0.76710  0.75330  0.69460  1.0000 -0.1544514764
C   C186      1.0  0.74670  0.51380  0.94130  1.0000 -0.1544514764
C   C187      1.0  0.94130  0.74670  0.51380  1.0000 -0.1544514764
C   C188      1.0  0.42750  0.98620  0.73290  1.0000 -0.1544514764
C   C189      1.0  0.75330  0.69460  0.76710  1.0000 -0.1544514764
C   C190      1.0  0.51380  0.94130  0.74670  1.0000 -0.1544514764
C   C191      1.0  0.73290  0.42750  0.98620  1.0000 -0.1544514764
C   C192      1.0  0.69460  0.76710  0.75330  1.0000 -0.1544514764
N   N1        1.0  0.06500  0.11760  0.00620  1.0000 -0.2602809481
N   N2        1.0  0.11760  0.00620  0.06500  1.0000 -0.2602809481
N   N3        1.0  0.00620  0.06500  0.11760  1.0000 -0.2602809481
N   N4        1.0  0.61140  0.05880  0.49380  1.0000 -0.2602809481
N   N5        1.0  0.44120  0.05260  0.43500  1.0000 -0.2602809481
N   N6        1.0  0.44740  0.88860  0.38240  1.0000 -0.2602809481
N   N7        1.0  0.38240  0.44740  0.88860  1.0000 -0.2602809481
N   N8        1.0  0.49380  0.61140  0.05880  1.0000 -0.2602809481
N   N9        1.0  0.05260  0.43500  0.44120  1.0000 -0.2602809481
N   N10       1.0  0.88860  0.38240  0.44740  1.0000 -0.2602809481
N   N11       1.0  0.05880  0.49380  0.61140  1.0000 -0.2602809481
N   N12       1.0  0.43500  0.44120  0.05260  1.0000 -0.2602809481
N   N13       1.0  0.93500  0.88240  0.99380  1.0000 -0.2602809481
N   N14       1.0  0.88240  0.99380  0.93500  1.0000 -0.2602809481
N   N15       1.0  0.99380  0.93500  0.88240  1.0000 -0.2602809481
N   N16       1.0  0.38860  0.94120  0.50620  1.0000 -0.2602809481
N   N17       1.0  0.55880  0.94740  0.56500  1.0000 -0.2602809481
N   N18       1.0  0.55260  0.11140  0.61760  1.0000 -0.2602809481
N   N19       1.0  0.61760  0.55260  0.11140  1.0000 -0.2602809481
N   N20       1.0  0.50620  0.38860  0.94120  1.0000 -0.2602809481
N   N21       1.0  0.94740  0.56500  0.55880  1.0000 -0.2602809481
N   N22       1.0  0.11140  0.61760  0.55260  1.0000 -0.2602809481
N   N23       1.0  0.94120  0.50620  0.38860  1.0000 -0.2602809481
N   N24       1.0  0.56500  0.55880  0.94740  1.0000 -0.2602809481
N   N25       1.0  0.15750  0.32690  0.01060  1.0000 -0.3759207682
N   N26       1.0  0.32690  0.01060  0.15750  1.0000 -0.3759207682
N   N27       1.0  0.01060  0.15750  0.32690  1.0000 -0.3759207682
N   N28       1.0  0.81630  0.14690  0.48940  1.0000 -0.3759207682
N   N29       1.0  0.35310  0.16940  0.34250  1.0000 -0.3759207682
N   N30       1.0  0.33060  0.68370  0.17310  1.0000 -0.3759207682
N   N31       1.0  0.17310  0.33060  0.68370  1.0000 -0.3759207682
N   N32       1.0  0.48940  0.81630  0.14690  1.0000 -0.3759207682
N   N33       1.0  0.16940  0.34250  0.35310  1.0000 -0.3759207682
N   N34       1.0  0.68370  0.17310  0.33060  1.0000 -0.3759207682
N   N35       1.0  0.14690  0.48940  0.81630  1.0000 -0.3759207682
N   N36       1.0  0.34250  0.35310  0.16940  1.0000 -0.3759207682
N   N37       1.0  0.84250  0.67310  0.98940  1.0000 -0.3759207682
N   N38       1.0  0.67310  0.98940  0.84250  1.0000 -0.3759207682
N   N39       1.0  0.98940  0.84250  0.67310  1.0000 -0.3759207682
N   N40       1.0  0.18370  0.85310  0.51060  1.0000 -0.3759207682
N   N41       1.0  0.64690  0.83060  0.65750  1.0000 -0.3759207682
N   N42       1.0  0.66940  0.31630  0.82690  1.0000 -0.3759207682
N   N43       1.0  0.82690  0.66940  0.31630  1.0000 -0.3759207682
N   N44       1.0  0.51060  0.18370  0.85310  1.0000 -0.3759207682
N   N45       1.0  0.83060  0.65750  0.64690  1.0000 -0.3759207682
N   N46       1.0  0.31630  0.82690  0.66940  1.0000 -0.3759207682
N   N47       1.0  0.85310  0.51060  0.18370  1.0000 -0.3759207682
N   N48       1.0  0.65750  0.64690  0.83060  1.0000 -0.3759207682
O   O1        1.0  0.17460  0.29710  0.90930  1.0000 -0.4575841321
O   O2        1.0  0.29710  0.90930  0.17460  1.0000 -0.4575841321
O   O3        1.0  0.90930  0.17460  0.29710  1.0000 -0.4575841321
O   O4        1.0  0.88780  0.26530  0.59070  1.0000 -0.4575841321
O   O5        1.0  0.23470  0.12250  0.32540  1.0000 -0.4575841321
O   O6        1.0  0.37750  0.61220  0.20290  1.0000 -0.4575841321
O   O7        1.0  0.20290  0.37750  0.61220  1.0000 -0.4575841321
O   O8        1.0  0.59070  0.88780  0.26530  1.0000 -0.4575841321
O   O9        1.0  0.12250  0.32540  0.23470  1.0000 -0.4575841321
O   O10       1.0  0.61220  0.20290  0.37750  1.0000 -0.4575841321
O   O11       1.0  0.26530  0.59070  0.88780  1.0000 -0.4575841321
O   O12       1.0  0.32540  0.23470  0.12250  1.0000 -0.4575841321
O   O13       1.0  0.82540  0.70290  0.09070  1.0000 -0.4575841321
O   O14       1.0  0.70290  0.09070  0.82540  1.0000 -0.4575841321
O   O15       1.0  0.09070  0.82540  0.70290  1.0000 -0.4575841321
O   O16       1.0  0.11220  0.73470  0.40930  1.0000 -0.4575841321
O   O17       1.0  0.76530  0.87750  0.67460  1.0000 -0.4575841321
O   O18       1.0  0.62250  0.38780  0.79710  1.0000 -0.4575841321
O   O19       1.0  0.79710  0.62250  0.38780  1.0000 -0.4575841321
O   O20       1.0  0.40930  0.11220  0.73470  1.0000 -0.4575841321
O   O21       1.0  0.87750  0.67460  0.76530  1.0000 -0.4575841321
O   O22       1.0  0.38780  0.79710  0.62250  1.0000 -0.4575841321
O   O23       1.0  0.73470  0.40930  0.11220  1.0000 -0.4575841321
O   O24       1.0  0.67460  0.76530  0.87750  1.0000 -0.4575841321
