# DDEC6 charges by PACMAN v1.1 (https://github.com/mtap-research/PACMAN-charge/)
data_2007[Zn][srs]3[ASR]4
_chemical_formula_sum              "Zn24 H192 C288 I48 N96"
_cell_length_a       13.7934
_cell_length_b       27.424
_cell_length_c       45.907
_cell_angle_alpha    90
_cell_angle_beta     90
_cell_angle_gamma    90

_symmetry_space_group_name_H-M    "P 1"
_symmetry_Int_Tables_number       1

loop_
  _symmetry_equiv_pos_as_xyz
  'x, y, z'

loop_
  _atom_site_type_symbol
  _atom_site_label
  _atom_site_symmetry_multiplicity
  _atom_site_fract_x
  _atom_site_fract_y
  _atom_site_fract_z
  _atom_site_occupancy
  _atom_site_charge
Zn  Zn1       1.0  0.85320  0.94855  0.57114  1.0000 0.4487498981
Zn  Zn2       1.0  0.14680  0.55145  0.07114  1.0000 0.4487498981
Zn  Zn3       1.0  0.35320  0.05145  0.92886  1.0000 0.4487498981
Zn  Zn4       1.0  0.64680  0.44855  0.42886  1.0000 0.4487498981
Zn  Zn5       1.0  0.64372  0.97214  0.41344  1.0000 0.4575433192
Zn  Zn6       1.0  0.35628  0.52786  0.91344  1.0000 0.4575433192
Zn  Zn7       1.0  0.14372  0.02786  0.08656  1.0000 0.4575433192
Zn  Zn8       1.0  0.85628  0.47214  0.58656  1.0000 0.4575433192
Zn  Zn9       1.0  0.85067  0.75617  0.31153  1.0000 0.4724329075
Zn  Zn10      1.0  0.14933  0.74383  0.81153  1.0000 0.4724329075
Zn  Zn11      1.0  0.35067  0.24383  0.18847  1.0000 0.4724329075
Zn  Zn12      1.0  0.64933  0.25617  0.68847  1.0000 0.4724329075
Zn  Zn13      1.0  0.14680  0.05145  0.42886  1.0000 0.4487498981
Zn  Zn14      1.0  0.85320  0.44855  0.92886  1.0000 0.4487498981
Zn  Zn15      1.0  0.64680  0.94855  0.07114  1.0000 0.4487498981
Zn  Zn16      1.0  0.35320  0.55145  0.57114  1.0000 0.4487498981
Zn  Zn17      1.0  0.35628  0.02786  0.58656  1.0000 0.4575433192
Zn  Zn18      1.0  0.64372  0.47214  0.08656  1.0000 0.4575433192
Zn  Zn19      1.0  0.85628  0.97214  0.91344  1.0000 0.4575433192
Zn  Zn20      1.0  0.14372  0.52786  0.41344  1.0000 0.4575433192
Zn  Zn21      1.0  0.14933  0.24383  0.68847  1.0000 0.4724329075
Zn  Zn22      1.0  0.85067  0.25617  0.18847  1.0000 0.4724329075
Zn  Zn23      1.0  0.64933  0.75617  0.81153  1.0000 0.4754992259
Zn  Zn24      1.0  0.35067  0.74383  0.31153  1.0000 0.4724329075
H   H1        1.0  0.50720  0.94940  0.46310  1.0000 0.1093416168
H   H2        1.0  0.49280  0.55060  0.96310  1.0000 0.1093416168
H   H3        1.0  0.00720  0.05060  0.03690  1.0000 0.1093416168
H   H4        1.0  0.99280  0.44940  0.53690  1.0000 0.1093416168
H   H5        1.0  0.35100  0.92000  0.47060  1.0000 0.1327781037
H   H6        1.0  0.64900  0.58000  0.97060  1.0000 0.1327781037
H   H7        1.0  0.85100  0.08000  0.02940  1.0000 0.1327781037
H   H8        1.0  0.14900  0.42000  0.52940  1.0000 0.1327781037
H   H9        1.0  0.48540  0.92610  0.37910  1.0000 0.1093416168
H   H10       1.0  0.51460  0.57390  0.87910  1.0000 0.1093416168
H   H11       1.0  0.98540  0.07390  0.12090  1.0000 0.1093416168
H   H12       1.0  0.01460  0.42610  0.62090  1.0000 0.1093416168
H   H13       1.0  0.32970  0.89580  0.38420  1.0000 0.1327781037
H   H14       1.0  0.67030  0.60420  0.88420  1.0000 0.1327781037
H   H15       1.0  0.82970  0.10420  0.11580  1.0000 0.1327781037
H   H16       1.0  0.17030  0.39580  0.61580  1.0000 0.1327781037
H   H17       1.0  0.06210  0.77300  0.32830  1.0000 0.1093416168
H   H18       1.0  0.93790  0.72700  0.82830  1.0000 0.1093416168
H   H19       1.0  0.56210  0.22700  0.17170  1.0000 0.1093416168
H   H20       1.0  0.43790  0.27300  0.67170  1.0000 0.1093416168
H   H21       1.0  0.15120  0.80680  0.36600  1.0000 0.1327781037
H   H22       1.0  0.84880  0.69320  0.86600  1.0000 0.1327781037
H   H23       1.0  0.65120  0.19320  0.13400  1.0000 0.1327781037
H   H24       1.0  0.34880  0.30680  0.63400  1.0000 0.1327781037
H   H25       1.0  0.81530  0.81270  0.36520  1.0000 0.1093416168
H   H26       1.0  0.18470  0.68730  0.86520  1.0000 0.1093416168
H   H27       1.0  0.31530  0.18730  0.13480  1.0000 0.1093416168
H   H28       1.0  0.68470  0.31270  0.63480  1.0000 0.1093416168
H   H29       1.0  0.89880  0.84770  0.40360  1.0000 0.1327781037
H   H30       1.0  0.10120  0.65230  0.90360  1.0000 0.1327781037
H   H31       1.0  0.39880  0.15230  0.09640  1.0000 0.1327781037
H   H32       1.0  0.60120  0.34770  0.59640  1.0000 0.1327781037
H   H33       1.0  0.81800  0.89330  0.51500  1.0000 0.1093416168
H   H34       1.0  0.18200  0.60670  0.01500  1.0000 0.1093416168
H   H35       1.0  0.31800  0.10670  0.98500  1.0000 0.1093416168
H   H36       1.0  0.68200  0.39330  0.48500  1.0000 0.1093416168
H   H37       1.0  0.90290  0.86590  0.47470  1.0000 0.1361074693
H   H38       1.0  0.09710  0.63410  0.97470  1.0000 0.1361074693
H   H39       1.0  0.40290  0.13410  0.02530  1.0000 0.1361074693
H   H40       1.0  0.59710  0.36590  0.52530  1.0000 0.1361074693
H   H41       1.0  0.04600  0.96690  0.54290  1.0000 0.1093416168
H   H42       1.0  0.95400  0.53310  0.04290  1.0000 0.1093416168
H   H43       1.0  0.54600  0.03310  0.95710  1.0000 0.1093416168
H   H44       1.0  0.45400  0.46690  0.45710  1.0000 0.1093416168
H   H45       1.0  0.13600  0.94210  0.50300  1.0000 0.1361074693
H   H46       1.0  0.86400  0.55790  0.00300  1.0000 0.1361074693
H   H47       1.0  0.63600  0.05790  0.99700  1.0000 0.1327781037
H   H48       1.0  0.36400  0.44210  0.49700  1.0000 0.1361074693
H   H49       1.0  0.91990  0.91940  0.63130  1.0000 0.1001565445
H   H50       1.0  0.08010  0.58060  0.13130  1.0000 0.1001565445
H   H51       1.0  0.41990  0.08060  0.86870  1.0000 0.1001565445
H   H52       1.0  0.58010  0.41940  0.36870  1.0000 0.1001565445
H   H53       1.0  0.94370  0.85070  0.65940  1.0000 0.1327781037
H   H54       1.0  0.05630  0.64930  0.15940  1.0000 0.1327781037
H   H55       1.0  0.44370  0.14930  0.84060  1.0000 0.1327781037
H   H56       1.0  0.55630  0.35070  0.34060  1.0000 0.1327781037
H   H57       1.0  0.85160  0.84000  0.56310  1.0000 0.1001565445
H   H58       1.0  0.14840  0.66000  0.06310  1.0000 0.1001565445
H   H59       1.0  0.35160  0.16000  0.93690  1.0000 0.1001565445
H   H60       1.0  0.64840  0.34000  0.43690  1.0000 0.1001565445
H   H61       1.0  0.87530  0.76810  0.58880  1.0000 0.1327781037
H   H62       1.0  0.12470  0.73190  0.08880  1.0000 0.1327781037
H   H63       1.0  0.37530  0.23190  0.91120  1.0000 0.1327781037
H   H64       1.0  0.62470  0.26810  0.41120  1.0000 0.1327781037
H   H65       1.0  0.88990  0.57720  0.57050  1.0000 0.1093416168
H   H66       1.0  0.11010  0.92280  0.07050  1.0000 0.1093416168
H   H67       1.0  0.38990  0.42280  0.92950  1.0000 0.1093416168
H   H68       1.0  0.61010  0.07720  0.42950  1.0000 0.1093416168
H   H69       1.0  0.90940  0.65280  0.59220  1.0000 0.1327781037
H   H70       1.0  0.09060  0.84720  0.09220  1.0000 0.1327781037
H   H71       1.0  0.40940  0.34720  0.90780  1.0000 0.1327781037
H   H72       1.0  0.59060  0.15280  0.40780  1.0000 0.1327781037
H   H73       1.0  0.90310  0.51140  0.64670  1.0000 0.1093416168
H   H74       1.0  0.09690  0.98860  0.14670  1.0000 0.1093416168
H   H75       1.0  0.40310  0.48860  0.85330  1.0000 0.1093416168
H   H76       1.0  0.59690  0.01140  0.35330  1.0000 0.1093416168
H   H77       1.0  0.92760  0.58470  0.67050  1.0000 0.1327781037
H   H78       1.0  0.07240  0.91530  0.17050  1.0000 0.1327781037
H   H79       1.0  0.42760  0.41530  0.82950  1.0000 0.1327781037
H   H80       1.0  0.57240  0.08470  0.32950  1.0000 0.1361074693
H   H81       1.0  0.08860  0.66450  0.77170  1.0000 0.1093416168
H   H82       1.0  0.91140  0.83550  0.27170  1.0000 0.1093416168
H   H83       1.0  0.58860  0.33550  0.72830  1.0000 0.1093416168
H   H84       1.0  0.41140  0.16450  0.22830  1.0000 0.1093416168
H   H85       1.0  0.02640  0.65390  0.72470  1.0000 0.1327781037
H   H86       1.0  0.97360  0.84610  0.22470  1.0000 0.1327781037
H   H87       1.0  0.52640  0.34610  0.77530  1.0000 0.1327781037
H   H88       1.0  0.47360  0.15390  0.27530  1.0000 0.1327781037
H   H89       1.0  0.03340  0.80540  0.76900  1.0000 0.1093416168
H   H90       1.0  0.96660  0.69460  0.26900  1.0000 0.1093416168
H   H91       1.0  0.53340  0.19460  0.73100  1.0000 0.1093416168
H   H92       1.0  0.46660  0.30540  0.23100  1.0000 0.1093416168
H   H93       1.0  0.97210  0.79870  0.72200  1.0000 0.1327781037
H   H94       1.0  0.02790  0.70130  0.22200  1.0000 0.1327781037
H   H95       1.0  0.47210  0.20130  0.77800  1.0000 0.1327781037
H   H96       1.0  0.52790  0.29870  0.27800  1.0000 0.1327781037
H   H97       1.0  0.49280  0.05060  0.53690  1.0000 0.1093416168
H   H98       1.0  0.50720  0.44940  0.03690  1.0000 0.1093416168
H   H99       1.0  0.99280  0.94940  0.96310  1.0000 0.1093416168
H   H100      1.0  0.00720  0.55060  0.46310  1.0000 0.1093416168
H   H101      1.0  0.64900  0.08000  0.52940  1.0000 0.1327781037
H   H102      1.0  0.35100  0.42000  0.02940  1.0000 0.1327781037
H   H103      1.0  0.14900  0.92000  0.97060  1.0000 0.1327781037
H   H104      1.0  0.85100  0.58000  0.47060  1.0000 0.1327781037
H   H105      1.0  0.51460  0.07390  0.62090  1.0000 0.1093416168
H   H106      1.0  0.48540  0.42610  0.12090  1.0000 0.1093416168
H   H107      1.0  0.01460  0.92610  0.87910  1.0000 0.1093416168
H   H108      1.0  0.98540  0.57390  0.37910  1.0000 0.1093416168
H   H109      1.0  0.67030  0.10420  0.61580  1.0000 0.1327781037
H   H110      1.0  0.32970  0.39580  0.11580  1.0000 0.1327781037
H   H111      1.0  0.17030  0.89580  0.88420  1.0000 0.1327781037
H   H112      1.0  0.82970  0.60420  0.38420  1.0000 0.1361074693
H   H113      1.0  0.93790  0.22700  0.67170  1.0000 0.1093416168
H   H114      1.0  0.06210  0.27300  0.17170  1.0000 0.1093416168
H   H115      1.0  0.43790  0.77300  0.82830  1.0000 0.1093416168
H   H116      1.0  0.56210  0.72700  0.32830  1.0000 0.1093416168
H   H117      1.0  0.84880  0.19320  0.63400  1.0000 0.1327781037
H   H118      1.0  0.15120  0.30680  0.13400  1.0000 0.1327781037
H   H119      1.0  0.34880  0.80680  0.86600  1.0000 0.1327781037
H   H120      1.0  0.65120  0.69320  0.36600  1.0000 0.1327781037
H   H121      1.0  0.18470  0.18730  0.63480  1.0000 0.1093416168
H   H122      1.0  0.81530  0.31270  0.13480  1.0000 0.1093416168
H   H123      1.0  0.68470  0.81270  0.86520  1.0000 0.1093416168
H   H124      1.0  0.31530  0.68730  0.36520  1.0000 0.1093416168
H   H125      1.0  0.10120  0.15230  0.59640  1.0000 0.1327781037
H   H126      1.0  0.89880  0.34770  0.09640  1.0000 0.1327781037
H   H127      1.0  0.60120  0.84770  0.90360  1.0000 0.1327781037
H   H128      1.0  0.39880  0.65230  0.40360  1.0000 0.1327781037
H   H129      1.0  0.18200  0.10670  0.48500  1.0000 0.1093416168
H   H130      1.0  0.81800  0.39330  0.98500  1.0000 0.1093416168
H   H131      1.0  0.68200  0.89330  0.01500  1.0000 0.1093416168
H   H132      1.0  0.31800  0.60670  0.51500  1.0000 0.1093416168
H   H133      1.0  0.09710  0.13410  0.52530  1.0000 0.1361074693
H   H134      1.0  0.90290  0.36590  0.02530  1.0000 0.1361074693
H   H135      1.0  0.59710  0.86590  0.97470  1.0000 0.1361074693
H   H136      1.0  0.40290  0.63410  0.47470  1.0000 0.1361074693
H   H137      1.0  0.95400  0.03310  0.45710  1.0000 0.1093416168
H   H138      1.0  0.04600  0.46690  0.95710  1.0000 0.1093416168
H   H139      1.0  0.45400  0.96690  0.04290  1.0000 0.1093416168
H   H140      1.0  0.54600  0.53310  0.54290  1.0000 0.1093416168
H   H141      1.0  0.86400  0.05790  0.49700  1.0000 0.1361074693
H   H142      1.0  0.13600  0.44210  0.99700  1.0000 0.1327781037
H   H143      1.0  0.36400  0.94210  0.00300  1.0000 0.1361074693
H   H144      1.0  0.63600  0.55790  0.50300  1.0000 0.1361074693
H   H145      1.0  0.08010  0.08060  0.36870  1.0000 0.1001565445
H   H146      1.0  0.91990  0.41940  0.86870  1.0000 0.1001565445
H   H147      1.0  0.58010  0.91940  0.13130  1.0000 0.1001565445
H   H148      1.0  0.41990  0.58060  0.63130  1.0000 0.1001565445
H   H149      1.0  0.05630  0.14930  0.34060  1.0000 0.1327781037
H   H150      1.0  0.94370  0.35070  0.84060  1.0000 0.1327781037
H   H151      1.0  0.55630  0.85070  0.15940  1.0000 0.1327781037
H   H152      1.0  0.44370  0.64930  0.65940  1.0000 0.1327781037
H   H153      1.0  0.14840  0.16000  0.43690  1.0000 0.1001565445
H   H154      1.0  0.85160  0.34000  0.93690  1.0000 0.1001565445
H   H155      1.0  0.64840  0.84000  0.06310  1.0000 0.1001565445
H   H156      1.0  0.35160  0.66000  0.56310  1.0000 0.1001565445
H   H157      1.0  0.12470  0.23190  0.41120  1.0000 0.1327781037
H   H158      1.0  0.87530  0.26810  0.91120  1.0000 0.1327781037
H   H159      1.0  0.62470  0.76810  0.08880  1.0000 0.1327781037
H   H160      1.0  0.37530  0.73190  0.58880  1.0000 0.1327781037
H   H161      1.0  0.11010  0.42280  0.42950  1.0000 0.1093416168
H   H162      1.0  0.88990  0.07720  0.92950  1.0000 0.1093416168
H   H163      1.0  0.61010  0.57720  0.07050  1.0000 0.1093416168
H   H164      1.0  0.38990  0.92280  0.57050  1.0000 0.1093416168
H   H165      1.0  0.09060  0.34720  0.40780  1.0000 0.1327781037
H   H166      1.0  0.90940  0.15280  0.90780  1.0000 0.1327781037
H   H167      1.0  0.59060  0.65280  0.09220  1.0000 0.1327781037
H   H168      1.0  0.40940  0.84720  0.59220  1.0000 0.1327781037
H   H169      1.0  0.09690  0.48860  0.35330  1.0000 0.1093416168
H   H170      1.0  0.90310  0.01140  0.85330  1.0000 0.1093416168
H   H171      1.0  0.59690  0.51140  0.14670  1.0000 0.1093416168
H   H172      1.0  0.40310  0.98860  0.64670  1.0000 0.1093416168
H   H173      1.0  0.07240  0.41530  0.32950  1.0000 0.1361074693
H   H174      1.0  0.92760  0.08470  0.82950  1.0000 0.1327781037
H   H175      1.0  0.57240  0.58470  0.17050  1.0000 0.1327781037
H   H176      1.0  0.42760  0.91530  0.67050  1.0000 0.1327781037
H   H177      1.0  0.91140  0.33550  0.22830  1.0000 0.1093416168
H   H178      1.0  0.08860  0.16450  0.72830  1.0000 0.1093416168
H   H179      1.0  0.41140  0.66450  0.27170  1.0000 0.1093416168
H   H180      1.0  0.58860  0.83550  0.77170  1.0000 0.1093416168
H   H181      1.0  0.97360  0.34610  0.27530  1.0000 0.1327781037
H   H182      1.0  0.02640  0.15390  0.77530  1.0000 0.1327781037
H   H183      1.0  0.47360  0.65390  0.22470  1.0000 0.1327781037
H   H184      1.0  0.52640  0.84610  0.72470  1.0000 0.1327781037
H   H185      1.0  0.96660  0.19460  0.23100  1.0000 0.1093416168
H   H186      1.0  0.03340  0.30540  0.73100  1.0000 0.1093416168
H   H187      1.0  0.46660  0.80540  0.26900  1.0000 0.1093416168
H   H188      1.0  0.53340  0.69460  0.76900  1.0000 0.1093416168
H   H189      1.0  0.02790  0.20130  0.27800  1.0000 0.1327781037
H   H190      1.0  0.97210  0.29870  0.77800  1.0000 0.1327781037
H   H191      1.0  0.52790  0.79870  0.22200  1.0000 0.1327781037
H   H192      1.0  0.47210  0.70130  0.72200  1.0000 0.1327781037
C   C1        1.0  0.47060  0.93850  0.44688  1.0000 0.0826122188
C   C2        1.0  0.52940  0.56150  0.94688  1.0000 0.0826122188
C   C3        1.0  0.97060  0.06150  0.05312  1.0000 0.0826122188
C   C4        1.0  0.02940  0.43850  0.55312  1.0000 0.0826122188
C   C5        1.0  0.37740  0.92080  0.45147  1.0000 -0.1268633079
C   C6        1.0  0.62260  0.57920  0.95147  1.0000 -0.1268633079
C   C7        1.0  0.87740  0.07920  0.04853  1.0000 -0.1209363599
C   C8        1.0  0.12260  0.42080  0.54853  1.0000 -0.1268633079
C   C9        1.0  0.45760  0.92480  0.39801  1.0000 0.0879687561
C   C10       1.0  0.54240  0.57520  0.89801  1.0000 0.0879687561
C   C11       1.0  0.95760  0.07520  0.10199  1.0000 0.0879687561
C   C12       1.0  0.04240  0.42480  0.60199  1.0000 0.0879687561
C   C13       1.0  0.36470  0.90660  0.40077  1.0000 -0.1209363599
C   C14       1.0  0.63530  0.59340  0.90077  1.0000 -0.1209363599
C   C15       1.0  0.86470  0.09340  0.09923  1.0000 -0.1209363599
C   C16       1.0  0.13530  0.40660  0.59923  1.0000 -0.1209363599
C   C17       1.0  0.32380  0.90462  0.42823  1.0000 0.0582771245
C   C18       1.0  0.67620  0.59538  0.92823  1.0000 0.0582771245
C   C19       1.0  0.82380  0.09538  0.07177  1.0000 0.0582771245
C   C20       1.0  0.17620  0.40462  0.57177  1.0000 0.0582771245
C   C21       1.0  0.22240  0.88747  0.43189  1.0000 0.3783134155
C   C22       1.0  0.77760  0.61253  0.93189  1.0000 0.3783134155
C   C23       1.0  0.72240  0.11253  0.06811  1.0000 0.3783134155
C   C24       1.0  0.27760  0.38747  0.56811  1.0000 0.3783134155
C   C25       1.0  0.02870  0.78840  0.34391  1.0000 0.0826122188
C   C26       1.0  0.97130  0.71160  0.84391  1.0000 0.0826122188
C   C27       1.0  0.52870  0.21160  0.15609  1.0000 0.0826122188
C   C28       1.0  0.47130  0.28840  0.65609  1.0000 0.0826122188
C   C29       1.0  0.08240  0.80830  0.36627  1.0000 -0.1268633079
C   C30       1.0  0.91760  0.69170  0.86627  1.0000 -0.1268633079
C   C31       1.0  0.58240  0.19170  0.13373  1.0000 -0.1268633079
C   C32       1.0  0.41760  0.30830  0.63373  1.0000 -0.1268633079
C   C33       1.0  0.88410  0.81155  0.36539  1.0000 0.0826122188
C   C34       1.0  0.11590  0.68845  0.86539  1.0000 0.0826122188
C   C35       1.0  0.38410  0.18845  0.13461  1.0000 0.0826122188
C   C36       1.0  0.61590  0.31155  0.63461  1.0000 0.0826122188
C   C37       1.0  0.93340  0.83225  0.38833  1.0000 -0.1209363599
C   C38       1.0  0.06660  0.66775  0.88833  1.0000 -0.1209363599
C   C39       1.0  0.43340  0.16775  0.11167  1.0000 -0.1209363599
C   C40       1.0  0.56660  0.33225  0.61167  1.0000 -0.1209363599
C   C41       1.0  0.03430  0.83034  0.38894  1.0000 0.0582771245
C   C42       1.0  0.96570  0.66966  0.88894  1.0000 0.0582771245
C   C43       1.0  0.53430  0.16966  0.11106  1.0000 0.0582771245
C   C44       1.0  0.46570  0.33034  0.61106  1.0000 0.0582771245
C   C45       1.0  0.08700  0.85313  0.41350  1.0000 0.3783134155
C   C46       1.0  0.91300  0.64687  0.91350  1.0000 0.3730665103
C   C47       1.0  0.58700  0.14687  0.08650  1.0000 0.3730665103
C   C48       1.0  0.41300  0.35313  0.58650  1.0000 0.3730665103
C   C49       1.0  0.88350  0.90310  0.51257  1.0000 0.0741920044
C   C50       1.0  0.11650  0.59690  0.01257  1.0000 0.0741920044
C   C51       1.0  0.38350  0.09690  0.98743  1.0000 0.0741920044
C   C52       1.0  0.61650  0.40310  0.48743  1.0000 0.0741920044
C   C53       1.0  0.93360  0.88670  0.48845  1.0000 -0.1479630637
C   C54       1.0  0.06640  0.61330  0.98845  1.0000 -0.143005507
C   C55       1.0  0.43360  0.11330  0.01155  1.0000 -0.143005507
C   C56       1.0  0.56640  0.38670  0.51155  1.0000 -0.1479630637
C   C57       1.0  0.01670  0.94621  0.52879  1.0000 0.0826122188
C   C58       1.0  0.98330  0.55379  0.02879  1.0000 0.0826122188
C   C59       1.0  0.51670  0.05379  0.97121  1.0000 0.0826122188
C   C60       1.0  0.48330  0.44621  0.47121  1.0000 0.0826122188
C   C61       1.0  0.07080  0.93144  0.50523  1.0000 -0.143005507
C   C62       1.0  0.92920  0.56856  0.00523  1.0000 -0.143005507
C   C63       1.0  0.57080  0.06856  0.99477  1.0000 -0.143005507
C   C64       1.0  0.42920  0.43144  0.49477  1.0000 -0.143005507
C   C65       1.0  0.02870  0.90062  0.48457  1.0000 0.0582771245
C   C66       1.0  0.97130  0.59938  0.98457  1.0000 0.0582771245
C   C67       1.0  0.52870  0.09938  0.01543  1.0000 0.0582771245
C   C68       1.0  0.47130  0.40062  0.51543  1.0000 0.0582771245
C   C69       1.0  0.08570  0.88546  0.45859  1.0000 0.3730665103
C   C70       1.0  0.91430  0.61454  0.95859  1.0000 0.3730665103
C   C71       1.0  0.58570  0.11454  0.04141  1.0000 0.3730665103
C   C72       1.0  0.41430  0.38546  0.54141  1.0000 0.3730665103
C   C73       1.0  0.91060  0.88822  0.62275  1.0000 0.0879687561
C   C74       1.0  0.08940  0.61178  0.12275  1.0000 0.0879687561
C   C75       1.0  0.41060  0.11178  0.87725  1.0000 0.0879687561
C   C76       1.0  0.58940  0.38822  0.37725  1.0000 0.0879687561
C   C77       1.0  0.92510  0.84751  0.63960  1.0000 -0.1608729399
C   C78       1.0  0.07490  0.65249  0.13960  1.0000 -0.1608729399
C   C79       1.0  0.42510  0.15249  0.86040  1.0000 -0.1608729399
C   C80       1.0  0.57490  0.34751  0.36040  1.0000 -0.1608729399
C   C81       1.0  0.87100  0.84186  0.58289  1.0000 0.0826122188
C   C82       1.0  0.12900  0.65814  0.08289  1.0000 0.0879687561
C   C83       1.0  0.37100  0.15814  0.91711  1.0000 0.0879687561
C   C84       1.0  0.62900  0.34186  0.41711  1.0000 0.0826122188
C   C85       1.0  0.88460  0.79874  0.59807  1.0000 -0.1608729399
C   C86       1.0  0.11540  0.70126  0.09807  1.0000 -0.1608729399
C   C87       1.0  0.38460  0.20126  0.90193  1.0000 -0.1608729399
C   C88       1.0  0.61540  0.29874  0.40193  1.0000 -0.1608729399
C   C89       1.0  0.91240  0.80142  0.62725  1.0000 0.0582771245
C   C90       1.0  0.08760  0.69858  0.12725  1.0000 0.0582771245
C   C91       1.0  0.41240  0.19858  0.87275  1.0000 0.0582771245
C   C92       1.0  0.58760  0.30142  0.37275  1.0000 0.0582771245
C   C93       1.0  0.92630  0.75724  0.64477  1.0000 0.3730665103
C   C94       1.0  0.07370  0.74276  0.14477  1.0000 0.3730665103
C   C95       1.0  0.42630  0.24276  0.85523  1.0000 0.3730665103
C   C96       1.0  0.57370  0.25724  0.35523  1.0000 0.3730665103
C   C97       1.0  0.89620  0.57894  0.59106  1.0000 0.0879687561
C   C98       1.0  0.10380  0.92106  0.09106  1.0000 0.0879687561
C   C99       1.0  0.39620  0.42106  0.90894  1.0000 0.0879687561
C   C100      1.0  0.60380  0.07894  0.40894  1.0000 0.0879687561
C   C101      1.0  0.90830  0.62416  0.60380  1.0000 -0.1479630637
C   C102      1.0  0.09170  0.87584  0.10380  1.0000 -0.143005507
C   C103      1.0  0.40830  0.37584  0.89620  1.0000 -0.1479630637
C   C104      1.0  0.59170  0.12416  0.39620  1.0000 -0.1479630637
C   C105      1.0  0.90460  0.54060  0.63555  1.0000 0.0879687561
C   C106      1.0  0.09540  0.95940  0.13555  1.0000 0.0879687561
C   C107      1.0  0.40460  0.45940  0.86445  1.0000 0.0879687561
C   C108      1.0  0.59540  0.04060  0.36445  1.0000 0.0879687561
C   C109      1.0  0.91850  0.58410  0.64995  1.0000 -0.1608729399
C   C110      1.0  0.08150  0.91590  0.14995  1.0000 -0.1608729399
C   C111      1.0  0.41850  0.41590  0.85005  1.0000 -0.1608729399
C   C112      1.0  0.58150  0.08410  0.35005  1.0000 -0.1608729399
C   C113      1.0  0.91900  0.62725  0.63386  1.0000 0.0582771245
C   C114      1.0  0.08100  0.87275  0.13386  1.0000 0.0582771245
C   C115      1.0  0.41900  0.37275  0.86614  1.0000 0.0582771245
C   C116      1.0  0.58100  0.12725  0.36614  1.0000 0.0582771245
C   C117      1.0  0.92910  0.67532  0.64812  1.0000 0.3783134155
C   C118      1.0  0.07090  0.82468  0.14812  1.0000 0.3783134155
C   C119      1.0  0.42910  0.32468  0.85188  1.0000 0.3783134155
C   C120      1.0  0.57090  0.17532  0.35188  1.0000 0.3783134155
C   C121      1.0  0.06520  0.69210  0.76131  1.0000 0.0826122188
C   C122      1.0  0.93480  0.80790  0.26131  1.0000 0.0826122188
C   C123      1.0  0.56520  0.30790  0.73869  1.0000 0.0879687561
C   C124      1.0  0.43480  0.19210  0.23869  1.0000 0.0826122188
C   C125      1.0  0.02860  0.68540  0.73327  1.0000 -0.1479630637
C   C126      1.0  0.97140  0.81460  0.23327  1.0000 -0.1479630637
C   C127      1.0  0.52860  0.31460  0.76673  1.0000 -0.1479630637
C   C128      1.0  0.47140  0.18540  0.26673  1.0000 -0.1479630637
C   C129      1.0  0.03330  0.77443  0.75976  1.0000 0.1001565445
C   C130      1.0  0.96670  0.72557  0.25976  1.0000 0.1001565445
C   C131      1.0  0.53330  0.22557  0.74024  1.0000 0.1001565445
C   C132      1.0  0.46670  0.27443  0.24024  1.0000 0.1001565445
C   C133      1.0  0.99640  0.77068  0.73173  1.0000 -0.1479630637
C   C134      1.0  0.00360  0.72932  0.23173  1.0000 -0.1479630637
C   C135      1.0  0.49640  0.22932  0.76827  1.0000 -0.1479630637
C   C136      1.0  0.50360  0.27068  0.26827  1.0000 -0.1479630637
C   C137      1.0  0.99550  0.72587  0.71827  1.0000 0.0582771245
C   C138      1.0  0.00450  0.77413  0.21827  1.0000 0.0582771245
C   C139      1.0  0.49550  0.27413  0.78173  1.0000 0.0582771245
C   C140      1.0  0.50450  0.22587  0.28173  1.0000 0.0582771245
C   C141      1.0  0.96360  0.72118  0.68744  1.0000 0.3783134155
C   C142      1.0  0.03640  0.77882  0.18744  1.0000 0.3861646903
C   C143      1.0  0.46360  0.27882  0.81256  1.0000 0.3861646903
C   C144      1.0  0.53640  0.22118  0.31256  1.0000 0.3861646903
C   C145      1.0  0.52940  0.06150  0.55312  1.0000 0.0826122188
C   C146      1.0  0.47060  0.43850  0.05312  1.0000 0.0826122188
C   C147      1.0  0.02940  0.93850  0.94688  1.0000 0.0826122188
C   C148      1.0  0.97060  0.56150  0.44688  1.0000 0.0879687561
C   C149      1.0  0.62260  0.07920  0.54853  1.0000 -0.1268633079
C   C150      1.0  0.37740  0.42080  0.04853  1.0000 -0.1209363599
C   C151      1.0  0.12260  0.92080  0.95147  1.0000 -0.1268633079
C   C152      1.0  0.87740  0.57920  0.45147  1.0000 -0.1268633079
C   C153      1.0  0.54240  0.07520  0.60199  1.0000 0.0879687561
C   C154      1.0  0.45760  0.42480  0.10199  1.0000 0.0879687561
C   C155      1.0  0.04240  0.92480  0.89801  1.0000 0.0879687561
C   C156      1.0  0.95760  0.57520  0.39801  1.0000 0.0879687561
C   C157      1.0  0.63530  0.09340  0.59923  1.0000 -0.1209363599
C   C158      1.0  0.36470  0.40660  0.09923  1.0000 -0.1209363599
C   C159      1.0  0.13530  0.90660  0.90077  1.0000 -0.1209363599
C   C160      1.0  0.86470  0.59340  0.40077  1.0000 -0.1209363599
C   C161      1.0  0.67620  0.09538  0.57177  1.0000 0.0582771245
C   C162      1.0  0.32380  0.40462  0.07177  1.0000 0.0582771245
C   C163      1.0  0.17620  0.90462  0.92823  1.0000 0.0582771245
C   C164      1.0  0.82380  0.59538  0.42823  1.0000 0.0582771245
C   C165      1.0  0.77760  0.11253  0.56811  1.0000 0.3783134155
C   C166      1.0  0.22240  0.38747  0.06811  1.0000 0.3783134155
C   C167      1.0  0.27760  0.88747  0.93189  1.0000 0.3783134155
C   C168      1.0  0.72240  0.61253  0.43189  1.0000 0.3783134155
C   C169      1.0  0.97130  0.21160  0.65609  1.0000 0.0826122188
C   C170      1.0  0.02870  0.28840  0.15609  1.0000 0.0826122188
C   C171      1.0  0.47130  0.78840  0.84391  1.0000 0.0826122188
C   C172      1.0  0.52870  0.71160  0.34391  1.0000 0.0826122188
C   C173      1.0  0.91760  0.19170  0.63373  1.0000 -0.1268633079
C   C174      1.0  0.08240  0.30830  0.13373  1.0000 -0.1268633079
C   C175      1.0  0.41760  0.80830  0.86627  1.0000 -0.1268633079
C   C176      1.0  0.58240  0.69170  0.36627  1.0000 -0.1268633079
C   C177      1.0  0.11590  0.18845  0.63461  1.0000 0.0826122188
C   C178      1.0  0.88410  0.31155  0.13461  1.0000 0.0826122188
C   C179      1.0  0.61590  0.81155  0.86539  1.0000 0.0826122188
C   C180      1.0  0.38410  0.68845  0.36539  1.0000 0.0826122188
C   C181      1.0  0.06660  0.16775  0.61167  1.0000 -0.1209363599
C   C182      1.0  0.93340  0.33225  0.11167  1.0000 -0.1209363599
C   C183      1.0  0.56660  0.83225  0.88833  1.0000 -0.1209363599
C   C184      1.0  0.43340  0.66775  0.38833  1.0000 -0.1209363599
C   C185      1.0  0.96570  0.16966  0.61106  1.0000 0.0582771245
C   C186      1.0  0.03430  0.33034  0.11106  1.0000 0.0582771245
C   C187      1.0  0.46570  0.83034  0.88894  1.0000 0.0582771245
C   C188      1.0  0.53430  0.66966  0.38894  1.0000 0.0582771245
C   C189      1.0  0.91300  0.14687  0.58650  1.0000 0.3730665103
C   C190      1.0  0.08700  0.35313  0.08650  1.0000 0.3730665103
C   C191      1.0  0.41300  0.85313  0.91350  1.0000 0.3730665103
C   C192      1.0  0.58700  0.64687  0.41350  1.0000 0.3783134155
C   C193      1.0  0.11650  0.09690  0.48743  1.0000 0.0741920044
C   C194      1.0  0.88350  0.40310  0.98743  1.0000 0.0741920044
C   C195      1.0  0.61650  0.90310  0.01257  1.0000 0.0741920044
C   C196      1.0  0.38350  0.59690  0.51257  1.0000 0.0741920044
C   C197      1.0  0.06640  0.11330  0.51155  1.0000 -0.1479630637
C   C198      1.0  0.93360  0.38670  0.01155  1.0000 -0.143005507
C   C199      1.0  0.56640  0.88670  0.98845  1.0000 -0.143005507
C   C200      1.0  0.43360  0.61330  0.48845  1.0000 -0.1479630637
C   C201      1.0  0.98330  0.05379  0.47121  1.0000 0.0826122188
C   C202      1.0  0.01670  0.44621  0.97121  1.0000 0.0826122188
C   C203      1.0  0.48330  0.94621  0.02879  1.0000 0.0826122188
C   C204      1.0  0.51670  0.55379  0.52879  1.0000 0.0826122188
C   C205      1.0  0.92920  0.06856  0.49477  1.0000 -0.143005507
C   C206      1.0  0.07080  0.43144  0.99477  1.0000 -0.143005507
C   C207      1.0  0.42920  0.93144  0.00523  1.0000 -0.143005507
C   C208      1.0  0.57080  0.56856  0.50523  1.0000 -0.143005507
C   C209      1.0  0.97130  0.09938  0.51543  1.0000 0.0582771245
C   C210      1.0  0.02870  0.40062  0.01543  1.0000 0.0582771245
C   C211      1.0  0.47130  0.90062  0.98457  1.0000 0.0582771245
C   C212      1.0  0.52870  0.59938  0.48457  1.0000 0.0582771245
C   C213      1.0  0.91430  0.11454  0.54141  1.0000 0.3730665103
C   C214      1.0  0.08570  0.38546  0.04141  1.0000 0.3730665103
C   C215      1.0  0.41430  0.88546  0.95859  1.0000 0.3730665103
C   C216      1.0  0.58570  0.61454  0.45859  1.0000 0.3730665103
C   C217      1.0  0.08940  0.11178  0.37725  1.0000 0.0879687561
C   C218      1.0  0.91060  0.38822  0.87725  1.0000 0.0879687561
C   C219      1.0  0.58940  0.88822  0.12275  1.0000 0.0879687561
C   C220      1.0  0.41060  0.61178  0.62275  1.0000 0.0879687561
C   C221      1.0  0.07490  0.15249  0.36040  1.0000 -0.1608729399
C   C222      1.0  0.92510  0.34751  0.86040  1.0000 -0.1608729399
C   C223      1.0  0.57490  0.84751  0.13960  1.0000 -0.1608729399
C   C224      1.0  0.42510  0.65249  0.63960  1.0000 -0.1608729399
C   C225      1.0  0.12900  0.15814  0.41711  1.0000 0.0826122188
C   C226      1.0  0.87100  0.34186  0.91711  1.0000 0.0879687561
C   C227      1.0  0.62900  0.84186  0.08289  1.0000 0.0879687561
C   C228      1.0  0.37100  0.65814  0.58289  1.0000 0.0826122188
C   C229      1.0  0.11540  0.20126  0.40193  1.0000 -0.1608729399
C   C230      1.0  0.88460  0.29874  0.90193  1.0000 -0.1608729399
C   C231      1.0  0.61540  0.79874  0.09807  1.0000 -0.1608729399
C   C232      1.0  0.38460  0.70126  0.59807  1.0000 -0.1608729399
C   C233      1.0  0.08760  0.19858  0.37275  1.0000 0.0582771245
C   C234      1.0  0.91240  0.30142  0.87275  1.0000 0.0582771245
C   C235      1.0  0.58760  0.80142  0.12725  1.0000 0.0582771245
C   C236      1.0  0.41240  0.69858  0.62725  1.0000 0.0582771245
C   C237      1.0  0.07370  0.24276  0.35523  1.0000 0.3730665103
C   C238      1.0  0.92630  0.25724  0.85523  1.0000 0.3730665103
C   C239      1.0  0.57370  0.75724  0.14477  1.0000 0.3730665103
C   C240      1.0  0.42630  0.74276  0.64477  1.0000 0.3730665103
C   C241      1.0  0.10380  0.42106  0.40894  1.0000 0.0879687561
C   C242      1.0  0.89620  0.07894  0.90894  1.0000 0.0879687561
C   C243      1.0  0.60380  0.57894  0.09106  1.0000 0.0879687561
C   C244      1.0  0.39620  0.92106  0.59106  1.0000 0.0879687561
C   C245      1.0  0.09170  0.37584  0.39620  1.0000 -0.143005507
C   C246      1.0  0.90830  0.12416  0.89620  1.0000 -0.1479630637
C   C247      1.0  0.59170  0.62416  0.10380  1.0000 -0.143005507
C   C248      1.0  0.40830  0.87584  0.60380  1.0000 -0.143005507
C   C249      1.0  0.09540  0.45940  0.36445  1.0000 0.0879687561
C   C250      1.0  0.90460  0.04060  0.86445  1.0000 0.0879687561
C   C251      1.0  0.59540  0.54060  0.13555  1.0000 0.0879687561
C   C252      1.0  0.40460  0.95940  0.63555  1.0000 0.0879687561
C   C253      1.0  0.08150  0.41590  0.35005  1.0000 -0.1608729399
C   C254      1.0  0.91850  0.08410  0.85005  1.0000 -0.1608729399
C   C255      1.0  0.58150  0.58410  0.14995  1.0000 -0.1608729399
C   C256      1.0  0.41850  0.91590  0.64995  1.0000 -0.1608729399
C   C257      1.0  0.08100  0.37275  0.36614  1.0000 0.0582771245
C   C258      1.0  0.91900  0.12725  0.86614  1.0000 0.0582771245
C   C259      1.0  0.58100  0.62725  0.13386  1.0000 0.0582771245
C   C260      1.0  0.41900  0.87275  0.63386  1.0000 0.0582771245
C   C261      1.0  0.07090  0.32468  0.35188  1.0000 0.3783134155
C   C262      1.0  0.92910  0.17532  0.85188  1.0000 0.3783134155
C   C263      1.0  0.57090  0.67532  0.14812  1.0000 0.3783134155
C   C264      1.0  0.42910  0.82468  0.64812  1.0000 0.3783134155
C   C265      1.0  0.93480  0.30790  0.23869  1.0000 0.0826122188
C   C266      1.0  0.06520  0.19210  0.73869  1.0000 0.0826122188
C   C267      1.0  0.43480  0.69210  0.26131  1.0000 0.0826122188
C   C268      1.0  0.56520  0.80790  0.76131  1.0000 0.0826122188
C   C269      1.0  0.97140  0.31460  0.26673  1.0000 -0.1479630637
C   C270      1.0  0.02860  0.18540  0.76673  1.0000 -0.1479630637
C   C271      1.0  0.47140  0.68540  0.23327  1.0000 -0.1479630637
C   C272      1.0  0.52860  0.81460  0.73327  1.0000 -0.1479630637
C   C273      1.0  0.96670  0.22557  0.24024  1.0000 0.1001565445
C   C274      1.0  0.03330  0.27443  0.74024  1.0000 0.1001565445
C   C275      1.0  0.46670  0.77443  0.25976  1.0000 0.1001565445
C   C276      1.0  0.53330  0.72557  0.75976  1.0000 0.1001565445
C   C277      1.0  0.00360  0.22932  0.26827  1.0000 -0.1479630637
C   C278      1.0  0.99640  0.27068  0.76827  1.0000 -0.1479630637
C   C279      1.0  0.50360  0.77068  0.23173  1.0000 -0.1479630637
C   C280      1.0  0.49640  0.72932  0.73173  1.0000 -0.1479630637
C   C281      1.0  0.00450  0.27413  0.28173  1.0000 0.0582771245
C   C282      1.0  0.99550  0.22587  0.78173  1.0000 0.0582771245
C   C283      1.0  0.50450  0.72587  0.21827  1.0000 0.0582771245
C   C284      1.0  0.49550  0.77413  0.71827  1.0000 0.0582771245
C   C285      1.0  0.03640  0.27882  0.31256  1.0000 0.3861646903
C   C286      1.0  0.96360  0.22118  0.81256  1.0000 0.3783134155
C   C287      1.0  0.53640  0.72118  0.18744  1.0000 0.3861646903
C   C288      1.0  0.46360  0.77882  0.68744  1.0000 0.3783134155
I   I1        1.0  0.94655  0.01606  0.59693  1.0000 -0.4334315143
I   I2        1.0  0.05345  0.48394  0.09693  1.0000 -0.4334315143
I   I3        1.0  0.44655  0.98394  0.90307  1.0000 -0.4334315143
I   I4        1.0  0.55345  0.51606  0.40307  1.0000 -0.4334315143
I   I5        1.0  0.67000  0.94621  0.56429  1.0000 -0.4598721626
I   I6        1.0  0.33000  0.55379  0.06429  1.0000 -0.4598721626
I   I7        1.0  0.17000  0.05379  0.93571  1.0000 -0.4598721626
I   I8        1.0  0.83000  0.44621  0.43571  1.0000 -0.4598721626
I   I9        1.0  0.71770  0.99162  0.46307  1.0000 -0.4683856912
I   I10       1.0  0.28230  0.50838  0.96307  1.0000 -0.4683856912
I   I11       1.0  0.21770  0.00838  0.03693  1.0000 -0.4598721626
I   I12       1.0  0.78230  0.49162  0.53693  1.0000 -0.4683856912
I   I13       1.0  0.73541  0.92647  0.37391  1.0000 -0.4377004439
I   I14       1.0  0.26459  0.57353  0.87391  1.0000 -0.4377004439
I   I15       1.0  0.23541  0.07353  0.12609  1.0000 -0.4377004439
I   I16       1.0  0.76459  0.42647  0.62609  1.0000 -0.4377004439
I   I17       1.0  0.83528  0.66552  0.32285  1.0000 -0.4598721626
I   I18       1.0  0.16472  0.83448  0.82285  1.0000 -0.4598721626
I   I19       1.0  0.33528  0.33448  0.17715  1.0000 -0.4598721626
I   I20       1.0  0.66472  0.16552  0.67715  1.0000 -0.4598721626
I   I21       1.0  0.69677  0.80750  0.30487  1.0000 -0.4683856912
I   I22       1.0  0.30323  0.69250  0.80487  1.0000 -0.4683856912
I   I23       1.0  0.19677  0.19250  0.19513  1.0000 -0.4683856912
I   I24       1.0  0.80323  0.30750  0.69513  1.0000 -0.4683856912
I   I25       1.0  0.05345  0.98394  0.40307  1.0000 -0.4334315143
I   I26       1.0  0.94655  0.51606  0.90307  1.0000 -0.4334315143
I   I27       1.0  0.55345  0.01606  0.09693  1.0000 -0.4377004439
I   I28       1.0  0.44655  0.48394  0.59693  1.0000 -0.4334315143
I   I29       1.0  0.33000  0.05379  0.43571  1.0000 -0.4598721626
I   I30       1.0  0.67000  0.44621  0.93571  1.0000 -0.4598721626
I   I31       1.0  0.83000  0.94621  0.06429  1.0000 -0.4598721626
I   I32       1.0  0.17000  0.55379  0.56429  1.0000 -0.4598721626
I   I33       1.0  0.28230  0.00838  0.53693  1.0000 -0.4683856912
I   I34       1.0  0.71770  0.49162  0.03693  1.0000 -0.4683856912
I   I35       1.0  0.78230  0.99162  0.96307  1.0000 -0.4683856912
I   I36       1.0  0.21770  0.50838  0.46307  1.0000 -0.4683856912
I   I37       1.0  0.26459  0.07353  0.62609  1.0000 -0.4377004439
I   I38       1.0  0.73541  0.42647  0.12609  1.0000 -0.4377004439
I   I39       1.0  0.76459  0.92647  0.87391  1.0000 -0.4377004439
I   I40       1.0  0.23541  0.57353  0.37391  1.0000 -0.4377004439
I   I41       1.0  0.16472  0.33448  0.67715  1.0000 -0.4598721626
I   I42       1.0  0.83528  0.16552  0.17715  1.0000 -0.4598721626
I   I43       1.0  0.66472  0.66552  0.82285  1.0000 -0.4598721626
I   I44       1.0  0.33528  0.83448  0.32285  1.0000 -0.4598721626
I   I45       1.0  0.30323  0.19250  0.69513  1.0000 -0.4683856912
I   I46       1.0  0.69677  0.30750  0.19513  1.0000 -0.4683856912
I   I47       1.0  0.80323  0.80750  0.80487  1.0000 -0.4683856912
I   I48       1.0  0.19677  0.69250  0.30487  1.0000 -0.4683856912
N   N1        1.0  0.51050  0.94058  0.42031  1.0000 -0.1805292467
N   N2        1.0  0.48950  0.55942  0.92031  1.0000 -0.1805292467
N   N3        1.0  0.01050  0.05942  0.07969  1.0000 -0.1805292467
N   N4        1.0  0.98950  0.44058  0.57969  1.0000 -0.1805292467
N   N5        1.0  0.93090  0.78973  0.34313  1.0000 -0.1738489064
N   N6        1.0  0.06910  0.71027  0.84313  1.0000 -0.1738489064
N   N7        1.0  0.43090  0.21027  0.15687  1.0000 -0.1738489064
N   N8        1.0  0.56910  0.28973  0.65687  1.0000 -0.1738489064
N   N9        1.0  0.92350  0.93243  0.53263  1.0000 -0.1873200727
N   N10       1.0  0.07650  0.56757  0.03263  1.0000 -0.1805292467
N   N11       1.0  0.42350  0.06757  0.96737  1.0000 -0.1805292467
N   N12       1.0  0.57650  0.43243  0.46737  1.0000 -0.1805292467
N   N13       1.0  0.18050  0.86490  0.40925  1.0000 -0.3729274104
N   N14       1.0  0.81950  0.63510  0.90925  1.0000 -0.3729274104
N   N15       1.0  0.68050  0.13510  0.09075  1.0000 -0.3729274104
N   N16       1.0  0.31950  0.36490  0.59075  1.0000 -0.3729274104
N   N17       1.0  0.03630  0.86213  0.43774  1.0000 -0.3866768795
N   N18       1.0  0.96370  0.63787  0.93774  1.0000 -0.3866768795
N   N19       1.0  0.53630  0.13787  0.06226  1.0000 -0.3866768795
N   N20       1.0  0.46370  0.36213  0.56226  1.0000 -0.3866768795
N   N21       1.0  0.17850  0.89816  0.45710  1.0000 -0.3802390861
N   N22       1.0  0.82150  0.60184  0.95710  1.0000 -0.3802390861
N   N23       1.0  0.67850  0.10184  0.04290  1.0000 -0.3802390861
N   N24       1.0  0.32150  0.39816  0.54290  1.0000 -0.3802390861
N   N25       1.0  0.88350  0.88565  0.59455  1.0000 -0.1873200727
N   N26       1.0  0.11650  0.61435  0.09455  1.0000 -0.1873200727
N   N27       1.0  0.38350  0.11435  0.90545  1.0000 -0.1873200727
N   N28       1.0  0.61650  0.38565  0.40545  1.0000 -0.1873200727
N   N29       1.0  0.89310  0.53736  0.60653  1.0000 -0.1805292467
N   N30       1.0  0.10690  0.96264  0.10653  1.0000 -0.1805292467
N   N31       1.0  0.39310  0.46264  0.89347  1.0000 -0.1805292467
N   N32       1.0  0.60690  0.03736  0.39347  1.0000 -0.1805292467
N   N33       1.0  0.06870  0.73601  0.77425  1.0000 -0.1873200727
N   N34       1.0  0.93130  0.76399  0.27425  1.0000 -0.1873200727
N   N35       1.0  0.56870  0.26399  0.72575  1.0000 -0.1873200727
N   N36       1.0  0.43130  0.23601  0.22575  1.0000 -0.1873200727
N   N37       1.0  0.91430  0.71420  0.63146  1.0000 -0.4129022484
N   N38       1.0  0.08570  0.78580  0.13146  1.0000 -0.4129022484
N   N39       1.0  0.41430  0.28580  0.86854  1.0000 -0.4129022484
N   N40       1.0  0.58570  0.21420  0.36854  1.0000 -0.4169887053
N   N41       1.0  0.95360  0.67629  0.67637  1.0000 -0.4169887053
N   N42       1.0  0.04640  0.82371  0.17637  1.0000 -0.4169887053
N   N43       1.0  0.45360  0.32371  0.82363  1.0000 -0.4169887053
N   N44       1.0  0.54640  0.17629  0.32363  1.0000 -0.4169887053
N   N45       1.0  0.95060  0.76269  0.67276  1.0000 -0.4129022484
N   N46       1.0  0.04940  0.73731  0.17276  1.0000 -0.4129022484
N   N47       1.0  0.45060  0.23731  0.82724  1.0000 -0.4129022484
N   N48       1.0  0.54940  0.26269  0.32724  1.0000 -0.4129022484
N   N49       1.0  0.48950  0.05942  0.57969  1.0000 -0.1805292467
N   N50       1.0  0.51050  0.44058  0.07969  1.0000 -0.1805292467
N   N51       1.0  0.98950  0.94058  0.92031  1.0000 -0.1805292467
N   N52       1.0  0.01050  0.55942  0.42031  1.0000 -0.1805292467
N   N53       1.0  0.06910  0.21027  0.65687  1.0000 -0.1738489064
N   N54       1.0  0.93090  0.28973  0.15687  1.0000 -0.1738489064
N   N55       1.0  0.56910  0.78973  0.84313  1.0000 -0.1738489064
N   N56       1.0  0.43090  0.71027  0.34313  1.0000 -0.1738489064
N   N57       1.0  0.07650  0.06757  0.46737  1.0000 -0.1805292467
N   N58       1.0  0.92350  0.43243  0.96737  1.0000 -0.1805292467
N   N59       1.0  0.57650  0.93243  0.03263  1.0000 -0.1805292467
N   N60       1.0  0.42350  0.56757  0.53263  1.0000 -0.1873200727
N   N61       1.0  0.81950  0.13510  0.59075  1.0000 -0.3729274104
N   N62       1.0  0.18050  0.36490  0.09075  1.0000 -0.3729274104
N   N63       1.0  0.31950  0.86490  0.90925  1.0000 -0.3729274104
N   N64       1.0  0.68050  0.63510  0.40925  1.0000 -0.3729274104
N   N65       1.0  0.96370  0.13787  0.56226  1.0000 -0.3866768795
N   N66       1.0  0.03630  0.36213  0.06226  1.0000 -0.3866768795
N   N67       1.0  0.46370  0.86213  0.93774  1.0000 -0.3866768795
N   N68       1.0  0.53630  0.63787  0.43774  1.0000 -0.3866768795
N   N69       1.0  0.82150  0.10184  0.54290  1.0000 -0.3802390861
N   N70       1.0  0.17850  0.39816  0.04290  1.0000 -0.3802390861
N   N71       1.0  0.32150  0.89816  0.95710  1.0000 -0.3802390861
N   N72       1.0  0.67850  0.60184  0.45710  1.0000 -0.3802390861
N   N73       1.0  0.11650  0.11435  0.40545  1.0000 -0.1873200727
N   N74       1.0  0.88350  0.38565  0.90545  1.0000 -0.1873200727
N   N75       1.0  0.61650  0.88565  0.09455  1.0000 -0.1873200727
N   N76       1.0  0.38350  0.61435  0.59455  1.0000 -0.1873200727
N   N77       1.0  0.10690  0.46264  0.39347  1.0000 -0.1805292467
N   N78       1.0  0.89310  0.03736  0.89347  1.0000 -0.1805292467
N   N79       1.0  0.60690  0.53736  0.10653  1.0000 -0.1805292467
N   N80       1.0  0.39310  0.96264  0.60653  1.0000 -0.1805292467
N   N81       1.0  0.93130  0.26399  0.22575  1.0000 -0.1873200727
N   N82       1.0  0.06870  0.23601  0.72575  1.0000 -0.1873200727
N   N83       1.0  0.43130  0.73601  0.27425  1.0000 -0.1873200727
N   N84       1.0  0.56870  0.76399  0.77425  1.0000 -0.1873200727
N   N85       1.0  0.08570  0.28580  0.36854  1.0000 -0.4169887053
N   N86       1.0  0.91430  0.21420  0.86854  1.0000 -0.4129022484
N   N87       1.0  0.58570  0.71420  0.13146  1.0000 -0.4129022484
N   N88       1.0  0.41430  0.78580  0.63146  1.0000 -0.4129022484
N   N89       1.0  0.04640  0.32371  0.32363  1.0000 -0.4169887053
N   N90       1.0  0.95360  0.17629  0.82363  1.0000 -0.4169887053
N   N91       1.0  0.54640  0.67629  0.17637  1.0000 -0.4169887053
N   N92       1.0  0.45360  0.82371  0.67637  1.0000 -0.4169887053
N   N93       1.0  0.04940  0.23731  0.32724  1.0000 -0.4129022484
N   N94       1.0  0.95060  0.26269  0.82724  1.0000 -0.4129022484
N   N95       1.0  0.54940  0.76269  0.17276  1.0000 -0.4129022484
N   N96       1.0  0.45060  0.73731  0.67276  1.0000 -0.4129022484
