# DDEC6 charges by PACMAN v1.1 (https://github.com/mtap-research/PACMAN-charge/)
data_2007[Er][sra]3[ASR]1
_chemical_formula_sum              "Er4 H116 C192 N16 O32"
_cell_length_a       8.5175
_cell_length_b       28.1745
_cell_length_c       21.4217
_cell_angle_alpha    90
_cell_angle_beta     97.1026
_cell_angle_gamma    90

_symmetry_space_group_name_H-M    "P 1"
_symmetry_Int_Tables_number       1

loop_
  _symmetry_equiv_pos_as_xyz
  'x, y, z'

loop_
  _atom_site_type_symbol
  _atom_site_label
  _atom_site_symmetry_multiplicity
  _atom_site_fract_x
  _atom_site_fract_y
  _atom_site_fract_z
  _atom_site_occupancy
  _atom_site_charge
Er  Er1       1.0  0.70503  0.94169  0.99356  1.0000 2.0411457496
Er  Er2       1.0  0.29497  0.44169  0.50644  1.0000 2.0411457496
Er  Er3       1.0  0.29497  0.05831  0.00644  1.0000 2.0411457496
Er  Er4       1.0  0.70503  0.55831  0.49356  1.0000 2.0411457496
H   H1        1.0  0.41180  0.11700  0.43740  1.0000 0.1192504244
H   H2        1.0  0.58820  0.61700  0.06260  1.0000 0.1192504244
H   H3        1.0  0.58820  0.88300  0.56260  1.0000 0.1192504244
H   H4        1.0  0.41180  0.38300  0.93740  1.0000 0.1192504244
H   H5        1.0  0.49290  0.06240  0.35660  1.0000 0.1276635549
H   H6        1.0  0.50710  0.56240  0.14340  1.0000 0.1276635549
H   H7        1.0  0.50710  0.93760  0.64340  1.0000 0.1276635549
H   H8        1.0  0.49290  0.43760  0.85660  1.0000 0.1276635549
H   H9        1.0  0.35470  0.87870  0.29780  1.0000 0.1276635549
H   H10       1.0  0.64530  0.37870  0.20220  1.0000 0.1276635549
H   H11       1.0  0.64530  0.12130  0.70220  1.0000 0.1276635549
H   H12       1.0  0.35470  0.62130  0.79780  1.0000 0.1276635549
H   H13       1.0  0.30930  0.80970  0.36330  1.0000 0.1387188716
H   H14       1.0  0.69070  0.30970  0.13670  1.0000 0.1387188716
H   H15       1.0  0.69070  0.19030  0.63670  1.0000 0.1387188716
H   H16       1.0  0.30930  0.69030  0.86330  1.0000 0.1387188716
H   H17       1.0  0.24770  0.78710  0.60930  1.0000 0.1387188716
H   H18       1.0  0.75230  0.28710  0.89070  1.0000 0.1387188716
H   H19       1.0  0.75230  0.21290  0.39070  1.0000 0.1387188716
H   H20       1.0  0.24770  0.71290  0.10930  1.0000 0.1387188716
H   H21       1.0  0.16430  0.84070  0.69050  1.0000 0.1276635549
H   H22       1.0  0.83570  0.34070  0.80950  1.0000 0.1276635549
H   H23       1.0  0.83570  0.15930  0.30950  1.0000 0.1276635549
H   H24       1.0  0.16430  0.65930  0.19050  1.0000 0.1276635549
H   H25       1.0  0.98280  0.02500  0.68760  1.0000 0.1276635549
H   H26       1.0  0.01720  0.52500  0.81240  1.0000 0.1276635549
H   H27       1.0  0.01720  0.97500  0.31240  1.0000 0.1276635549
H   H28       1.0  0.98280  0.47500  0.18760  1.0000 0.1276635549
H   H29       1.0  0.03750  0.09420  0.62270  1.0000 0.1276635549
H   H30       1.0  0.96250  0.59420  0.87730  1.0000 0.1276635549
H   H31       1.0  0.96250  0.90580  0.37730  1.0000 0.1276635549
H   H32       1.0  0.03750  0.40580  0.12270  1.0000 0.1276635549
H   H33       1.0  0.30080  0.92700  0.47040  1.0000 0.2226157935
H   H34       1.0  0.69920  0.42700  0.02960  1.0000 0.2226157935
H   H35       1.0  0.69920  0.07300  0.52960  1.0000 0.2226157935
H   H36       1.0  0.30080  0.57300  0.97040  1.0000 0.2226157935
H   H37       1.0  0.22560  0.97830  0.55050  1.0000 0.2137367877
H   H38       1.0  0.77440  0.47830  0.94950  1.0000 0.2137367877
H   H39       1.0  0.77440  0.02170  0.44950  1.0000 0.2137367877
H   H40       1.0  0.22560  0.52170  0.05050  1.0000 0.2137367877
H   H41       1.0  0.60480  0.92370  0.30390  1.0000 0.1192504244
H   H42       1.0  0.39520  0.42370  0.19610  1.0000 0.1192504244
H   H43       1.0  0.39520  0.07630  0.69610  1.0000 0.1192504244
H   H44       1.0  0.60480  0.57630  0.80390  1.0000 0.1192504244
H   H45       1.0  0.65270  0.92860  0.19960  1.0000 0.1276635549
H   H46       1.0  0.34730  0.42860  0.30040  1.0000 0.1276635549
H   H47       1.0  0.34730  0.07140  0.80040  1.0000 0.1276635549
H   H48       1.0  0.65270  0.57140  0.69960  1.0000 0.1276635549
H   H49       1.0  0.34670  0.03830  0.17300  1.0000 0.1118570671
H   H50       1.0  0.65330  0.53830  0.32700  1.0000 0.1118570671
H   H51       1.0  0.65330  0.96170  0.82700  1.0000 0.1118570671
H   H52       1.0  0.34670  0.46170  0.67300  1.0000 0.1118570671
H   H53       1.0  0.28350  0.02890  0.27460  1.0000 0.1118570671
H   H54       1.0  0.71650  0.52890  0.22540  1.0000 0.1118570671
H   H55       1.0  0.71650  0.97110  0.72540  1.0000 0.1118570671
H   H56       1.0  0.28350  0.47110  0.77460  1.0000 0.1118570671
H   H57       1.0  0.51930  0.77760  0.54460  1.0000 0.1118570671
H   H58       1.0  0.48070  0.27760  0.95540  1.0000 0.1118570671
H   H59       1.0  0.48070  0.22240  0.45540  1.0000 0.1118570671
H   H60       1.0  0.51930  0.72240  0.04460  1.0000 0.1118570671
H   H61       1.0  0.56220  0.69610  0.53200  1.0000 0.1192504244
H   H62       1.0  0.43780  0.19610  0.96800  1.0000 0.1192504244
H   H63       1.0  0.43780  0.30390  0.46800  1.0000 0.1192504244
H   H64       1.0  0.56220  0.80390  0.03200  1.0000 0.1192504244
H   H65       1.0  0.14960  0.68350  0.42010  1.0000 0.1192504244
H   H66       1.0  0.85040  0.18350  0.07990  1.0000 0.1192504244
H   H67       1.0  0.85040  0.31650  0.57990  1.0000 0.1192504244
H   H68       1.0  0.14960  0.81650  0.92010  1.0000 0.1192504244
H   H69       1.0  0.10820  0.76500  0.42650  1.0000 0.1118570671
H   H70       1.0  0.89180  0.26500  0.07350  1.0000 0.1118570671
H   H71       1.0  0.89180  0.23500  0.57350  1.0000 0.1118570671
H   H72       1.0  0.10820  0.73500  0.92650  1.0000 0.1118570671
H   H73       1.0  0.20620  0.98100  0.75920  1.0000 0.1118570671
H   H74       1.0  0.79380  0.48100  0.74080  1.0000 0.1118570671
H   H75       1.0  0.79380  0.01900  0.24080  1.0000 0.1118570671
H   H76       1.0  0.20620  0.51900  0.25920  1.0000 0.1118570671
H   H77       1.0  0.11860  0.97610  0.85750  1.0000 0.1276635549
H   H78       1.0  0.88140  0.47610  0.64250  1.0000 0.1276635549
H   H79       1.0  0.88140  0.02390  0.14250  1.0000 0.1276635549
H   H80       1.0  0.11860  0.52390  0.35750  1.0000 0.1276635549
H   H81       1.0  0.81990  0.86970  0.79370  1.0000 0.1276635549
H   H82       1.0  0.18010  0.36970  0.70630  1.0000 0.1276635549
H   H83       1.0  0.18010  0.13030  0.20630  1.0000 0.1276635549
H   H84       1.0  0.81990  0.63030  0.29370  1.0000 0.1276635549
H   H85       1.0  0.90050  0.87730  0.69330  1.0000 0.1192504244
H   H86       1.0  0.09950  0.37730  0.80670  1.0000 0.1192504244
H   H87       1.0  0.09950  0.12270  0.30670  1.0000 0.1192504244
H   H88       1.0  0.90050  0.62270  0.19330  1.0000 0.1192504244
H   H89       1.0  0.10670  0.13700  0.43990  1.0000 0.1118570671
H   H90       1.0  0.89330  0.63700  0.06010  1.0000 0.1118570671
H   H91       1.0  0.89330  0.86300  0.56010  1.0000 0.1118570671
H   H92       1.0  0.10670  0.36300  0.93990  1.0000 0.1118570671
H   H93       1.0  0.08930  0.21930  0.44650  1.0000 0.1118570671
H   H94       1.0  0.91070  0.71930  0.05350  1.0000 0.1118570671
H   H95       1.0  0.91070  0.78070  0.55350  1.0000 0.1118570671
H   H96       1.0  0.08930  0.28070  0.94650  1.0000 0.1118570671
H   H97       1.0  0.30360  0.21540  0.62590  1.0000 0.1192504244
H   H98       1.0  0.69640  0.71540  0.87410  1.0000 0.1192504244
H   H99       1.0  0.69640  0.78460  0.37410  1.0000 0.1192504244
H   H100      1.0  0.30360  0.28460  0.12590  1.0000 0.1192504244
H   H101      1.0  0.32190  0.13300  0.61980  1.0000 0.1118570671
H   H102      1.0  0.67810  0.63300  0.88020  1.0000 0.1118570671
H   H103      1.0  0.67810  0.86700  0.38020  1.0000 0.1118570671
H   H104      1.0  0.32190  0.36700  0.11980  1.0000 0.1118570671
H   H105      1.0  0.21260  0.32630  0.59380  1.0000 0.3818810361
H   H106      1.0  0.78740  0.82630  0.90620  1.0000 0.3818810361
H   H107      1.0  0.78740  0.67370  0.40620  1.0000 0.3818810361
H   H108      1.0  0.21260  0.17370  0.09380  1.0000 0.3818810361
H   H109      1.0  0.26350  0.98510  0.47440  1.0000 0.2137367877
H   H110      1.0  0.73650  0.48510  0.02560  1.0000 0.2137367877
H   H111      1.0  0.73650  0.01490  0.52560  1.0000 0.2137367877
H   H112      1.0  0.26350  0.51490  0.97440  1.0000 0.2137367877
H   H113      1.0  0.21650  0.91960  0.53830  1.0000 0.2226157935
H   H114      1.0  0.78350  0.41960  0.96170  1.0000 0.2226157935
H   H115      1.0  0.78350  0.08040  0.46170  1.0000 0.2226157935
H   H116      1.0  0.21650  0.58040  0.03830  1.0000 0.2226157935
C   C1        1.0  0.30360  0.05535  0.47490  1.0000 0.1682711516
C   C2        1.0  0.69640  0.55535  0.02510  1.0000 0.1682711516
C   C3        1.0  0.69640  0.94465  0.52510  1.0000 0.1682711516
C   C4        1.0  0.30360  0.44465  0.97490  1.0000 0.1682711516
C   C5        1.0  0.39030  0.08390  0.43390  1.0000 -0.2096827688
C   C6        1.0  0.60970  0.58390  0.06610  1.0000 -0.2096827688
C   C7        1.0  0.60970  0.91610  0.56610  1.0000 -0.2096827688
C   C8        1.0  0.39030  0.41610  0.93390  1.0000 -0.2096827688
C   C9        1.0  0.43370  0.05414  0.38980  1.0000 -0.2096827688
C   C10       1.0  0.56630  0.55414  0.11020  1.0000 -0.2096827688
C   C11       1.0  0.56630  0.94586  0.61020  1.0000 -0.2096827688
C   C12       1.0  0.43370  0.44586  0.88980  1.0000 -0.2152707649
C   C13       1.0  0.37480  0.00772  0.40200  1.0000 0.1576465486
C   C14       1.0  0.62520  0.50772  0.09800  1.0000 0.1576465486
C   C15       1.0  0.62520  0.99228  0.59800  1.0000 0.1576465486
C   C16       1.0  0.37480  0.49228  0.90200  1.0000 0.1576465486
C   C17       1.0  0.38540  0.96720  0.36340  1.0000 -0.1135971916
C   C18       1.0  0.61460  0.46720  0.13660  1.0000 -0.1135971916
C   C19       1.0  0.61460  0.03280  0.63660  1.0000 -0.1135971916
C   C20       1.0  0.38540  0.53280  0.86340  1.0000 -0.1135971916
C   C21       1.0  0.34380  0.92127  0.37990  1.0000 0.1539284842
C   C22       1.0  0.65620  0.42127  0.12010  1.0000 0.1539284842
C   C23       1.0  0.65620  0.07873  0.62010  1.0000 0.1539284842
C   C24       1.0  0.34380  0.57873  0.87990  1.0000 0.1539284842
C   C25       1.0  0.34080  0.87947  0.34110  1.0000 -0.1969850359
C   C26       1.0  0.65920  0.37947  0.15890  1.0000 -0.1969850359
C   C27       1.0  0.65920  0.12053  0.65890  1.0000 -0.1969850359
C   C28       1.0  0.34080  0.62053  0.84110  1.0000 -0.1969850359
C   C29       1.0  0.31500  0.84190  0.37650  1.0000 -0.1905331833
C   C30       1.0  0.68500  0.34190  0.12350  1.0000 -0.1905331833
C   C31       1.0  0.68500  0.15810  0.62350  1.0000 -0.1905331833
C   C32       1.0  0.31500  0.65810  0.87650  1.0000 -0.1905331833
C   C33       1.0  0.29720  0.85984  0.43930  1.0000 0.1682711516
C   C34       1.0  0.70280  0.35984  0.06070  1.0000 0.1682711516
C   C35       1.0  0.70280  0.14016  0.56070  1.0000 0.1682711516
C   C36       1.0  0.29720  0.64016  0.93930  1.0000 0.1682711516
C   C37       1.0  0.28090  0.83140  0.49220  1.0000 -0.1234411943
C   C38       1.0  0.71910  0.33140  0.00780  1.0000 -0.1234411943
C   C39       1.0  0.71910  0.16860  0.50780  1.0000 -0.1234411943
C   C40       1.0  0.28090  0.66860  0.99220  1.0000 -0.1234411943
C   C41       1.0  0.24790  0.84931  0.55070  1.0000 0.1682711516
C   C42       1.0  0.75210  0.34931  0.94930  1.0000 0.1682711516
C   C43       1.0  0.75210  0.15069  0.44930  1.0000 0.1682711516
C   C44       1.0  0.24790  0.65069  0.05070  1.0000 0.1682711516
C   C45       1.0  0.23010  0.82035  0.60530  1.0000 -0.1905331833
C   C46       1.0  0.76990  0.32035  0.89470  1.0000 -0.1905331833
C   C47       1.0  0.76990  0.17965  0.39470  1.0000 -0.1905331833
C   C48       1.0  0.23010  0.67965  0.10530  1.0000 -0.1905331833
C   C49       1.0  0.18360  0.84962  0.64940  1.0000 -0.1969850359
C   C50       1.0  0.81640  0.34962  0.85060  1.0000 -0.1969850359
C   C51       1.0  0.81640  0.15038  0.35060  1.0000 -0.1969850359
C   C52       1.0  0.18360  0.65038  0.14940  1.0000 -0.1969850359
C   C53       1.0  0.16850  0.89672  0.62320  1.0000 0.1576465486
C   C54       1.0  0.83150  0.39672  0.87680  1.0000 0.1539284842
C   C55       1.0  0.83150  0.10328  0.37680  1.0000 0.1576465486
C   C56       1.0  0.16850  0.60328  0.12320  1.0000 0.1576465486
C   C57       1.0  0.11410  0.93700  0.65230  1.0000 -0.1234411943
C   C58       1.0  0.88590  0.43700  0.84770  1.0000 -0.1234411943
C   C59       1.0  0.88590  0.06300  0.34770  1.0000 -0.1234411943
C   C60       1.0  0.11410  0.56300  0.15230  1.0000 -0.1234411943
C   C61       1.0  0.11060  0.98331  0.62700  1.0000 0.1682711516
C   C62       1.0  0.88940  0.48331  0.87300  1.0000 0.1682711516
C   C63       1.0  0.88940  0.01669  0.37300  1.0000 0.1682711516
C   C64       1.0  0.11060  0.51669  0.12700  1.0000 0.1682711516
C   C65       1.0  0.04020  0.02460  0.65230  1.0000 -0.2096827688
C   C66       1.0  0.95980  0.52460  0.84770  1.0000 -0.2096827688
C   C67       1.0  0.95980  0.97540  0.34770  1.0000 -0.2096827688
C   C68       1.0  0.04020  0.47540  0.15230  1.0000 -0.2096827688
C   C69       1.0  0.07020  0.06240  0.61700  1.0000 -0.2096827688
C   C70       1.0  0.92980  0.56240  0.88300  1.0000 -0.2096827688
C   C71       1.0  0.92980  0.93760  0.38300  1.0000 -0.2096827688
C   C72       1.0  0.07020  0.43760  0.11700  1.0000 -0.2096827688
C   C73       1.0  0.16110  0.04542  0.56930  1.0000 0.1576465486
C   C74       1.0  0.83890  0.54542  0.93070  1.0000 0.1576465486
C   C75       1.0  0.83890  0.95458  0.43070  1.0000 0.1576465486
C   C76       1.0  0.16110  0.45458  0.06930  1.0000 0.1576465486
C   C77       1.0  0.22770  0.07329  0.52480  1.0000 -0.1234411943
C   C78       1.0  0.77230  0.57329  0.97520  1.0000 -0.1234411943
C   C79       1.0  0.77230  0.92671  0.47520  1.0000 -0.1234411943
C   C80       1.0  0.22770  0.42671  0.02480  1.0000 -0.1234411943
C   C81       1.0  0.43340  0.97440  0.29950  1.0000 0.0894526029
C   C82       1.0  0.56660  0.47440  0.20050  1.0000 0.0894526029
C   C83       1.0  0.56660  0.02560  0.70050  1.0000 0.0894526029
C   C84       1.0  0.43340  0.52560  0.79950  1.0000 0.0894526029
C   C85       1.0  0.54730  0.94585  0.27660  1.0000 -0.1593684306
C   C86       1.0  0.45270  0.44585  0.22340  1.0000 -0.1593684306
C   C87       1.0  0.45270  0.05415  0.72340  1.0000 -0.1593684306
C   C88       1.0  0.54730  0.55415  0.77660  1.0000 -0.1593684306
C   C89       1.0  0.57790  0.94922  0.21490  1.0000 -0.1002007311
C   C90       1.0  0.42210  0.44922  0.28510  1.0000 -0.1002007311
C   C91       1.0  0.42210  0.05078  0.78510  1.0000 -0.1002007311
C   C92       1.0  0.57790  0.55078  0.71490  1.0000 -0.1002007311
C   C93       1.0  0.49920  0.98286  0.17540  1.0000 -0.0326520854
C   C94       1.0  0.50080  0.48286  0.32460  1.0000 -0.0326520854
C   C95       1.0  0.50080  0.01714  0.82460  1.0000 -0.0326520854
C   C96       1.0  0.49920  0.51714  0.67540  1.0000 -0.0326520854
C   C97       1.0  0.39470  0.01360  0.19880  1.0000 -0.0826235718
C   C98       1.0  0.60530  0.51360  0.30120  1.0000 -0.0826235718
C   C99       1.0  0.60530  0.98640  0.80120  1.0000 -0.0826235718
C   C100      1.0  0.39470  0.48640  0.69880  1.0000 -0.0826235718
C   C101      1.0  0.35970  0.00850  0.25970  1.0000 -0.1492616718
C   C102      1.0  0.64030  0.50850  0.24030  1.0000 -0.1492616718
C   C103      1.0  0.64030  0.99150  0.74030  1.0000 -0.1492616718
C   C104      1.0  0.35970  0.49150  0.75970  1.0000 -0.1492616718
C   C105      1.0  0.52390  0.98490  0.10720  1.0000 0.6811486708
C   C106      1.0  0.47610  0.48490  0.39280  1.0000 0.6811486708
C   C107      1.0  0.47610  0.01510  0.89280  1.0000 0.6811486708
C   C108      1.0  0.52390  0.51510  0.60720  1.0000 0.6811486708
C   C109      1.0  0.30410  0.77963  0.48620  1.0000 0.0894526029
C   C110      1.0  0.69590  0.27963  0.01380  1.0000 0.0894526029
C   C111      1.0  0.69590  0.22037  0.51380  1.0000 0.0894526029
C   C112      1.0  0.30410  0.72037  0.98620  1.0000 0.0894526029
C   C113      1.0  0.44490  0.75890  0.51870  1.0000 -0.1593684306
C   C114      1.0  0.55510  0.25890  0.98130  1.0000 -0.1593684306
C   C115      1.0  0.55510  0.24110  0.48130  1.0000 -0.1593684306
C   C116      1.0  0.44490  0.74110  0.01870  1.0000 -0.1593684306
C   C117      1.0  0.46920  0.71050  0.51120  1.0000 -0.0887802613
C   C118      1.0  0.53080  0.21050  0.98880  1.0000 -0.0887802613
C   C119      1.0  0.53080  0.28950  0.48880  1.0000 -0.0887802613
C   C120      1.0  0.46920  0.78950  0.01120  1.0000 -0.0887802613
C   C121      1.0  0.36100  0.68290  0.47400  1.0000 -0.0157471902
C   C122      1.0  0.63900  0.18290  0.02600  1.0000 -0.0157471902
C   C123      1.0  0.63900  0.31710  0.52600  1.0000 -0.0157471902
C   C124      1.0  0.36100  0.81710  0.97400  1.0000 -0.0157471902
C   C125      1.0  0.22590  0.70280  0.44420  1.0000 -0.0826235718
C   C126      1.0  0.77410  0.20280  0.05580  1.0000 -0.0826235718
C   C127      1.0  0.77410  0.29720  0.55580  1.0000 -0.0826235718
C   C128      1.0  0.22590  0.79720  0.94420  1.0000 -0.0826235718
C   C129      1.0  0.19990  0.75120  0.44920  1.0000 -0.1593684306
C   C130      1.0  0.80010  0.25120  0.05080  1.0000 -0.1593684306
C   C131      1.0  0.80010  0.24880  0.55080  1.0000 -0.1593684306
C   C132      1.0  0.19990  0.74880  0.94920  1.0000 -0.1593684306
C   C133      1.0  0.39190  0.63000  0.46990  1.0000 0.6289997178
C   C134      1.0  0.60810  0.13000  0.03010  1.0000 0.6289997178
C   C135      1.0  0.60810  0.37000  0.53010  1.0000 0.6289997178
C   C136      1.0  0.39190  0.87000  0.96990  1.0000 0.6289997178
C   C137      1.0  0.06220  0.93075  0.71580  1.0000 0.0841024744
C   C138      1.0  0.93780  0.43075  0.78420  1.0000 0.0894526029
C   C139      1.0  0.93780  0.06925  0.28420  1.0000 0.0894526029
C   C140      1.0  0.06220  0.56925  0.21580  1.0000 0.0841024744
C   C141      1.0  0.12550  0.95890  0.76560  1.0000 -0.1492616718
C   C142      1.0  0.87450  0.45890  0.73440  1.0000 -0.1492616718
C   C143      1.0  0.87450  0.04110  0.23440  1.0000 -0.1492616718
C   C144      1.0  0.12550  0.54110  0.26560  1.0000 -0.1492616718
C   C145      1.0  0.07480  0.95585  0.82450  1.0000 -0.0732199063
C   C146      1.0  0.92520  0.45585  0.67550  1.0000 -0.0732199063
C   C147      1.0  0.92520  0.04415  0.17550  1.0000 -0.0732199063
C   C148      1.0  0.07480  0.54415  0.32450  1.0000 -0.0732199063
C   C149      1.0  0.95860  0.92271  0.83490  1.0000 -0.0128396611
C   C150      1.0  0.04140  0.42271  0.66510  1.0000 -0.0128396611
C   C151      1.0  0.04140  0.07729  0.16510  1.0000 -0.0128396611
C   C152      1.0  0.95860  0.57729  0.33490  1.0000 -0.0128396611
C   C153      1.0  0.89620  0.89292  0.78630  1.0000 -0.1002007311
C   C154      1.0  0.10380  0.39292  0.71370  1.0000 -0.1002007311
C   C155      1.0  0.10380  0.10708  0.21370  1.0000 -0.1002007311
C   C156      1.0  0.89620  0.60708  0.28630  1.0000 -0.1002007311
C   C157      1.0  0.94560  0.89711  0.72660  1.0000 -0.1689586376
C   C158      1.0  0.05440  0.39711  0.77340  1.0000 -0.1689586376
C   C159      1.0  0.05440  0.10289  0.27340  1.0000 -0.1689586376
C   C160      1.0  0.94560  0.60289  0.22660  1.0000 -0.1689586376
C   C161      1.0  0.88760  0.92335  0.89560  1.0000 0.5871151166
C   C162      1.0  0.11240  0.42335  0.60440  1.0000 0.5871151166
C   C163      1.0  0.11240  0.07665  0.10440  1.0000 0.5871151166
C   C164      1.0  0.88760  0.57665  0.39560  1.0000 0.5871151166
C   C165      1.0  0.21550  0.12610  0.52970  1.0000 0.098009296
C   C166      1.0  0.78450  0.62610  0.97030  1.0000 0.098009296
C   C167      1.0  0.78450  0.87390  0.47030  1.0000 0.098009296
C   C168      1.0  0.21550  0.37390  0.02970  1.0000 0.098009296
C   C169      1.0  0.14660  0.15270  0.47780  1.0000 -0.1593684306
C   C170      1.0  0.85340  0.65270  0.02220  1.0000 -0.1593684306
C   C171      1.0  0.85340  0.84730  0.52220  1.0000 -0.1593684306
C   C172      1.0  0.14660  0.34730  0.97780  1.0000 -0.1593684306
C   C173      1.0  0.13660  0.20170  0.48170  1.0000 -0.1002007311
C   C174      1.0  0.86340  0.70170  0.01830  1.0000 -0.1002007311
C   C175      1.0  0.86340  0.79830  0.51830  1.0000 -0.1002007311
C   C176      1.0  0.13660  0.29830  0.98170  1.0000 -0.1002007311
C   C177      1.0  0.19590  0.22540  0.53710  1.0000 -0.0483061389
C   C178      1.0  0.80410  0.72540  0.96290  1.0000 -0.0483061389
C   C179      1.0  0.80410  0.77460  0.46290  1.0000 -0.0483061389
C   C180      1.0  0.19590  0.27460  0.03710  1.0000 -0.0483061389
C   C181      1.0  0.26370  0.19960  0.58810  1.0000 -0.1002007311
C   C182      1.0  0.73630  0.69960  0.91190  1.0000 -0.1002007311
C   C183      1.0  0.73630  0.80040  0.41190  1.0000 -0.1002007311
C   C184      1.0  0.26370  0.30040  0.08810  1.0000 -0.1002007311
C   C185      1.0  0.27410  0.15040  0.58440  1.0000 -0.1593684306
C   C186      1.0  0.72590  0.65040  0.91560  1.0000 -0.1593684306
C   C187      1.0  0.72590  0.84960  0.41560  1.0000 -0.1593684306
C   C188      1.0  0.27410  0.34960  0.08440  1.0000 -0.1593684306
C   C189      1.0  0.17880  0.27810  0.53880  1.0000 0.5339932519
C   C190      1.0  0.82120  0.77810  0.96120  1.0000 0.5339932519
C   C191      1.0  0.82120  0.72190  0.46120  1.0000 0.5339932519
C   C192      1.0  0.17880  0.22190  0.03880  1.0000 0.5339932519
N   N1        1.0  0.30290  0.00938  0.45568  1.0000 -0.2926998956
N   N2        1.0  0.69710  0.50938  0.04432  1.0000 -0.2926998956
N   N3        1.0  0.69710  0.99062  0.54432  1.0000 -0.2926998956
N   N4        1.0  0.30290  0.49062  0.95568  1.0000 -0.2926998956
N   N5        1.0  0.31100  0.90779  0.43868  1.0000 -0.3130572416
N   N6        1.0  0.68900  0.40779  0.06132  1.0000 -0.3130572416
N   N7        1.0  0.68900  0.09221  0.56132  1.0000 -0.3130572416
N   N8        1.0  0.31100  0.59221  0.93868  1.0000 -0.3130572416
N   N9        1.0  0.21220  0.89519  0.56368  1.0000 -0.3156708402
N   N10       1.0  0.78780  0.39519  0.93632  1.0000 -0.3130572416
N   N11       1.0  0.78780  0.10481  0.43632  1.0000 -0.3130572416
N   N12       1.0  0.21220  0.60481  0.06368  1.0000 -0.3130572416
N   N13       1.0  0.17880  0.99703  0.57539  1.0000 -0.3130572416
N   N14       1.0  0.82120  0.49703  0.92461  1.0000 -0.3130572416
N   N15       1.0  0.82120  0.00297  0.42461  1.0000 -0.3130572416
N   N16       1.0  0.17880  0.50297  0.07539  1.0000 -0.3130572416
O   O1        1.0  0.60400  0.95311  0.08594  1.0000 -0.6685589029
O   O2        1.0  0.39600  0.45311  0.41406  1.0000 -0.6685589029
O   O3        1.0  0.39600  0.04689  0.91406  1.0000 -0.6685589029
O   O4        1.0  0.60400  0.54689  0.58594  1.0000 -0.6685589029
O   O5        1.0  0.46200  0.01923  0.07433  1.0000 -0.7160457296
O   O6        1.0  0.53800  0.51923  0.42567  1.0000 -0.7160457296
O   O7        1.0  0.53800  0.98077  0.92567  1.0000 -0.7160457296
O   O8        1.0  0.46200  0.48077  0.57433  1.0000 -0.7160457296
O   O9        1.0  0.27730  0.60397  0.45020  1.0000 -0.5272140426
O   O10       1.0  0.72270  0.10397  0.04980  1.0000 -0.5272140426
O   O11       1.0  0.72270  0.39603  0.54980  1.0000 -0.5272140426
O   O12       1.0  0.27730  0.89603  0.95020  1.0000 -0.5272140426
O   O13       1.0  0.53100  0.61596  0.48790  1.0000 -0.6973611934
O   O14       1.0  0.46900  0.11596  0.01210  1.0000 -0.6973611934
O   O15       1.0  0.46900  0.38404  0.51210  1.0000 -0.6973611934
O   O16       1.0  0.53100  0.88404  0.98790  1.0000 -0.6973611934
O   O17       1.0  0.91510  0.95877  0.93236  1.0000 -0.6493167055
O   O18       1.0  0.08490  0.45877  0.56764  1.0000 -0.6493167055
O   O19       1.0  0.08490  0.04123  0.06764  1.0000 -0.6493167055
O   O20       1.0  0.91510  0.54123  0.43236  1.0000 -0.6493167055
O   O21       1.0  0.78750  0.89267  0.90771  1.0000 -0.6493167055
O   O22       1.0  0.21250  0.39267  0.59229  1.0000 -0.6493167055
O   O23       1.0  0.21250  0.10733  0.09229  1.0000 -0.6493167055
O   O24       1.0  0.78750  0.60733  0.40771  1.0000 -0.6493167055
O   O25       1.0  0.12970  0.30159  0.49316  1.0000 -0.4830906836
O   O26       1.0  0.87030  0.80159  0.00684  1.0000 -0.4830906836
O   O27       1.0  0.87030  0.69841  0.50684  1.0000 -0.4830906836
O   O28       1.0  0.12970  0.19841  0.99316  1.0000 -0.4830906836
O   O29       1.0  0.22720  0.29680  0.59506  1.0000 -0.474375516
O   O30       1.0  0.77280  0.79680  0.90494  1.0000 -0.474375516
O   O31       1.0  0.77280  0.70320  0.40494  1.0000 -0.474375516
O   O32       1.0  0.22720  0.20320  0.09506  1.0000 -0.474375516
