# DDEC6 charges by PACMAN v1.1 (https://github.com/mtap-research/PACMAN-charge/)
data_2007[Zn][crb]3[ASR]1
_chemical_formula_sum              "Zn16 H96 C96 N64"
_cell_length_a       9.801
_cell_length_b       24.104
_cell_length_c       24.356
_cell_angle_alpha    90
_cell_angle_beta     90
_cell_angle_gamma    90

_symmetry_space_group_name_H-M    "P 1"
_symmetry_Int_Tables_number       1

loop_
  _symmetry_equiv_pos_as_xyz
  'x, y, z'

loop_
  _atom_site_type_symbol
  _atom_site_label
  _atom_site_symmetry_multiplicity
  _atom_site_fract_x
  _atom_site_fract_y
  _atom_site_fract_z
  _atom_site_occupancy
  _atom_site_charge
Zn  Zn1       1.0  0.97534  0.17578  0.50056  1.0000 0.5988561264
Zn  Zn2       1.0  0.52466  0.82422  0.00056  1.0000 0.5988561264
Zn  Zn3       1.0  0.02466  0.67578  0.99944  1.0000 0.5988561264
Zn  Zn4       1.0  0.47534  0.32422  0.49944  1.0000 0.5988561264
Zn  Zn5       1.0  0.02466  0.82422  0.49944  1.0000 0.5988561264
Zn  Zn6       1.0  0.47534  0.17578  0.99944  1.0000 0.5988561264
Zn  Zn7       1.0  0.97534  0.32422  0.00056  1.0000 0.5988561264
Zn  Zn8       1.0  0.52466  0.67578  0.50056  1.0000 0.5988561264
Zn  Zn9       1.0  0.99960  0.99941  0.67663  1.0000 0.5988561264
Zn  Zn10      1.0  0.50040  0.00059  0.17663  1.0000 0.5988561264
Zn  Zn11      1.0  0.00040  0.49941  0.82337  1.0000 0.5988561264
Zn  Zn12      1.0  0.49960  0.50059  0.32337  1.0000 0.5988561264
Zn  Zn13      1.0  0.00040  0.00059  0.32337  1.0000 0.5988561264
Zn  Zn14      1.0  0.49960  0.99941  0.82337  1.0000 0.5988561264
Zn  Zn15      1.0  0.99960  0.50059  0.17663  1.0000 0.5988561264
Zn  Zn16      1.0  0.50040  0.49941  0.67663  1.0000 0.5988561264
H   H1        1.0  0.26850  0.22370  0.46910  1.0000 0.0820451517
H   H2        1.0  0.23150  0.77630  0.96910  1.0000 0.0820451517
H   H3        1.0  0.73150  0.72370  0.03090  1.0000 0.0820451517
H   H4        1.0  0.76850  0.27630  0.53090  1.0000 0.0820451517
H   H5        1.0  0.73150  0.77630  0.53090  1.0000 0.0820451517
H   H6        1.0  0.76850  0.22370  0.03090  1.0000 0.0820451517
H   H7        1.0  0.26850  0.27630  0.96910  1.0000 0.0820451517
H   H8        1.0  0.23150  0.72370  0.46910  1.0000 0.0820451517
H   H9        1.0  0.21300  0.34330  0.57380  1.0000 0.1082149214
H   H10       1.0  0.28700  0.65670  0.07380  1.0000 0.1082149214
H   H11       1.0  0.78700  0.84330  0.92620  1.0000 0.1082149214
H   H12       1.0  0.71300  0.15670  0.42620  1.0000 0.1082149214
H   H13       1.0  0.78700  0.65670  0.42620  1.0000 0.1082149214
H   H14       1.0  0.71300  0.34330  0.92620  1.0000 0.1082149214
H   H15       1.0  0.21300  0.15670  0.07380  1.0000 0.1082149214
H   H16       1.0  0.28700  0.84330  0.57380  1.0000 0.1082149214
H   H17       1.0  0.01180  0.28440  0.57450  1.0000 0.1026009584
H   H18       1.0  0.48820  0.71560  0.07450  1.0000 0.1026009584
H   H19       1.0  0.98820  0.78440  0.92550  1.0000 0.1026009584
H   H20       1.0  0.51180  0.21560  0.42550  1.0000 0.1026009584
H   H21       1.0  0.98820  0.71560  0.42550  1.0000 0.1026009584
H   H22       1.0  0.51180  0.28440  0.92550  1.0000 0.1026009584
H   H23       1.0  0.01180  0.21560  0.07450  1.0000 0.1026009584
H   H24       1.0  0.48820  0.78440  0.57450  1.0000 0.1026009584
H   H25       1.0  0.02120  0.05440  0.55750  1.0000 0.0820451517
H   H26       1.0  0.47880  0.94560  0.05750  1.0000 0.0820451517
H   H27       1.0  0.97880  0.55440  0.94250  1.0000 0.0820451517
H   H28       1.0  0.52120  0.44560  0.44250  1.0000 0.0820451517
H   H29       1.0  0.97880  0.94560  0.44250  1.0000 0.0820451517
H   H30       1.0  0.52120  0.05440  0.94250  1.0000 0.0820451517
H   H31       1.0  0.02120  0.44560  0.05750  1.0000 0.0820451517
H   H32       1.0  0.47880  0.55440  0.55750  1.0000 0.0820451517
H   H33       1.0  0.93290  0.06040  0.44030  1.0000 0.0820451517
H   H34       1.0  0.56710  0.93960  0.94030  1.0000 0.0820451517
H   H35       1.0  0.06710  0.56040  0.05970  1.0000 0.0820451517
H   H36       1.0  0.43290  0.43960  0.55970  1.0000 0.0820451517
H   H37       1.0  0.06710  0.93960  0.55970  1.0000 0.0820451517
H   H38       1.0  0.43290  0.06040  0.05970  1.0000 0.0820451517
H   H39       1.0  0.93290  0.43960  0.94030  1.0000 0.0820451517
H   H40       1.0  0.56710  0.56040  0.44030  1.0000 0.0820451517
H   H41       1.0  0.15160  0.18560  0.39070  1.0000 0.1026009584
H   H42       1.0  0.34840  0.81440  0.89070  1.0000 0.1026009584
H   H43       1.0  0.84840  0.68560  0.10930  1.0000 0.1026009584
H   H44       1.0  0.65160  0.31440  0.60930  1.0000 0.1026009584
H   H45       1.0  0.84840  0.81440  0.60930  1.0000 0.1026009584
H   H46       1.0  0.65160  0.18560  0.10930  1.0000 0.1026009584
H   H47       1.0  0.15160  0.31440  0.89070  1.0000 0.1026009584
H   H48       1.0  0.34840  0.68560  0.39070  1.0000 0.1026009584
H   H49       1.0  0.15760  0.11500  0.32010  1.0000 0.1082149214
H   H50       1.0  0.34240  0.88500  0.82010  1.0000 0.1082149214
H   H51       1.0  0.84240  0.61500  0.17990  1.0000 0.1082149214
H   H52       1.0  0.65760  0.38500  0.67990  1.0000 0.1082149214
H   H53       1.0  0.84240  0.88500  0.67990  1.0000 0.1082149214
H   H54       1.0  0.65760  0.11500  0.17990  1.0000 0.1082149214
H   H55       1.0  0.15760  0.38500  0.82010  1.0000 0.1082149214
H   H56       1.0  0.34240  0.61500  0.32010  1.0000 0.1082149214
H   H57       1.0  0.69900  0.03100  0.72310  1.0000 0.0925003304
H   H58       1.0  0.80100  0.96900  0.22310  1.0000 0.0925003304
H   H59       1.0  0.30100  0.53100  0.77690  1.0000 0.0925003304
H   H60       1.0  0.19900  0.46900  0.27690  1.0000 0.0925003304
H   H61       1.0  0.30100  0.96900  0.27690  1.0000 0.0925003304
H   H62       1.0  0.19900  0.03100  0.77690  1.0000 0.0925003304
H   H63       1.0  0.69900  0.46900  0.22310  1.0000 0.0925003304
H   H64       1.0  0.80100  0.53100  0.72310  1.0000 0.0925003304
H   H65       1.0  0.98520  0.94450  0.79500  1.0000 0.1082149214
H   H66       1.0  0.51480  0.05550  0.29500  1.0000 0.1082149214
H   H67       1.0  0.01480  0.44450  0.70500  1.0000 0.1082149214
H   H68       1.0  0.48520  0.55550  0.20500  1.0000 0.1082149214
H   H69       1.0  0.01480  0.05550  0.20500  1.0000 0.1082149214
H   H70       1.0  0.48520  0.94450  0.70500  1.0000 0.1082149214
H   H71       1.0  0.98520  0.55550  0.29500  1.0000 0.1082149214
H   H72       1.0  0.51480  0.44450  0.79500  1.0000 0.1082149214
H   H73       1.0  0.78670  0.94720  0.85520  1.0000 0.1026009584
H   H74       1.0  0.71330  0.05280  0.35520  1.0000 0.1026009584
H   H75       1.0  0.21330  0.44720  0.64480  1.0000 0.1026009584
H   H76       1.0  0.28670  0.55280  0.14480  1.0000 0.1026009584
H   H77       1.0  0.21330  0.05280  0.14480  1.0000 0.1026009584
H   H78       1.0  0.28670  0.94720  0.64480  1.0000 0.1026009584
H   H79       1.0  0.78670  0.55280  0.35520  1.0000 0.1026009584
H   H80       1.0  0.71330  0.44720  0.85520  1.0000 0.1026009584
H   H81       1.0  0.88730  0.12180  0.69290  1.0000 0.1082149214
H   H82       1.0  0.61270  0.87820  0.19290  1.0000 0.1082149214
H   H83       1.0  0.11270  0.62180  0.80710  1.0000 0.1082149214
H   H84       1.0  0.38730  0.37820  0.30710  1.0000 0.1082149214
H   H85       1.0  0.11270  0.87820  0.30710  1.0000 0.1082149214
H   H86       1.0  0.38730  0.12180  0.80710  1.0000 0.1082149214
H   H87       1.0  0.88730  0.37820  0.19290  1.0000 0.1082149214
H   H88       1.0  0.61270  0.62180  0.69290  1.0000 0.1082149214
H   H89       1.0  0.87600  0.19020  0.62000  1.0000 0.1082149214
H   H90       1.0  0.62400  0.80980  0.12000  1.0000 0.1082149214
H   H91       1.0  0.12400  0.69020  0.88000  1.0000 0.1082149214
H   H92       1.0  0.37600  0.30980  0.38000  1.0000 0.1082149214
H   H93       1.0  0.12400  0.80980  0.38000  1.0000 0.1082149214
H   H94       1.0  0.37600  0.19020  0.88000  1.0000 0.1082149214
H   H95       1.0  0.87600  0.30980  0.12000  1.0000 0.1082149214
H   H96       1.0  0.62400  0.69020  0.62000  1.0000 0.1082149214
C   C1        1.0  0.22880  0.24670  0.49520  1.0000 0.1263933531
C   C2        1.0  0.27120  0.75330  0.99520  1.0000 0.1263933531
C   C3        1.0  0.77120  0.74670  0.00480  1.0000 0.1263933531
C   C4        1.0  0.72880  0.25330  0.50480  1.0000 0.1263933531
C   C5        1.0  0.77120  0.75330  0.50480  1.0000 0.1263933531
C   C6        1.0  0.72880  0.24670  0.00480  1.0000 0.1263933531
C   C7        1.0  0.22880  0.25330  0.99520  1.0000 0.1263933531
C   C8        1.0  0.27120  0.74670  0.49520  1.0000 0.1263933531
C   C9        1.0  0.20040  0.31190  0.55220  1.0000 -0.0600003749
C   C10       1.0  0.29960  0.68810  0.05220  1.0000 -0.0600003749
C   C11       1.0  0.79960  0.81190  0.94780  1.0000 -0.0600003749
C   C12       1.0  0.70040  0.18810  0.44780  1.0000 -0.0600003749
C   C13       1.0  0.79960  0.68810  0.44780  1.0000 -0.0600003749
C   C14       1.0  0.70040  0.31190  0.94780  1.0000 -0.0600003749
C   C15       1.0  0.20040  0.18810  0.05220  1.0000 -0.0600003749
C   C16       1.0  0.29960  0.81190  0.55220  1.0000 -0.0600003749
C   C17       1.0  0.08850  0.27930  0.55260  1.0000 -0.0691580431
C   C18       1.0  0.41150  0.72070  0.05260  1.0000 -0.0691580431
C   C19       1.0  0.91150  0.77930  0.94740  1.0000 -0.0691580431
C   C20       1.0  0.58850  0.22070  0.44740  1.0000 -0.0691580431
C   C21       1.0  0.91150  0.72070  0.44740  1.0000 -0.0691580431
C   C22       1.0  0.58850  0.27930  0.94740  1.0000 -0.0691580431
C   C23       1.0  0.08850  0.22070  0.05260  1.0000 -0.0691580431
C   C24       1.0  0.41150  0.77930  0.55260  1.0000 -0.0691580431
C   C25       1.0  0.98730  0.08010  0.58250  1.0000 0.1217760519
C   C26       1.0  0.51270  0.91990  0.08250  1.0000 0.1217760519
C   C27       1.0  0.01270  0.58010  0.91750  1.0000 0.1217760519
C   C28       1.0  0.48730  0.41990  0.41750  1.0000 0.1217760519
C   C29       1.0  0.01270  0.91990  0.41750  1.0000 0.1217760519
C   C30       1.0  0.48730  0.08010  0.91750  1.0000 0.1217760519
C   C31       1.0  0.98730  0.41990  0.08250  1.0000 0.1217760519
C   C32       1.0  0.51270  0.58010  0.58250  1.0000 0.1217760519
C   C33       1.0  0.98940  0.08270  0.41900  1.0000 0.1217760519
C   C34       1.0  0.51060  0.91730  0.91900  1.0000 0.1217760519
C   C35       1.0  0.01060  0.58270  0.08100  1.0000 0.1217760519
C   C36       1.0  0.48940  0.41730  0.58100  1.0000 0.1217760519
C   C37       1.0  0.01060  0.91730  0.58100  1.0000 0.1217760519
C   C38       1.0  0.48940  0.08270  0.08100  1.0000 0.1217760519
C   C39       1.0  0.98940  0.41730  0.91900  1.0000 0.1217760519
C   C40       1.0  0.51060  0.58270  0.41900  1.0000 0.1217760519
C   C41       1.0  0.10810  0.15130  0.39240  1.0000 -0.0691580431
C   C42       1.0  0.39190  0.84870  0.89240  1.0000 -0.0691580431
C   C43       1.0  0.89190  0.65130  0.10760  1.0000 -0.0691580431
C   C44       1.0  0.60810  0.34870  0.60760  1.0000 -0.0691580431
C   C45       1.0  0.89190  0.84870  0.60760  1.0000 -0.0691580431
C   C46       1.0  0.60810  0.15130  0.10760  1.0000 -0.0691580431
C   C47       1.0  0.10810  0.34870  0.89240  1.0000 -0.0691580431
C   C48       1.0  0.39190  0.65130  0.39240  1.0000 -0.0691580431
C   C49       1.0  0.11140  0.11220  0.35330  1.0000 -0.0600003749
C   C50       1.0  0.38860  0.88780  0.85330  1.0000 -0.0600003749
C   C51       1.0  0.88860  0.61220  0.14670  1.0000 -0.0600003749
C   C52       1.0  0.61140  0.38780  0.64670  1.0000 -0.0600003749
C   C53       1.0  0.88860  0.88780  0.64670  1.0000 -0.0600003749
C   C54       1.0  0.61140  0.11220  0.14670  1.0000 -0.0600003749
C   C55       1.0  0.11140  0.38780  0.85330  1.0000 -0.0600003749
C   C56       1.0  0.38860  0.61220  0.35330  1.0000 -0.0600003749
C   C57       1.0  0.74590  0.00930  0.74840  1.0000 0.1217760519
C   C58       1.0  0.75410  0.99070  0.24840  1.0000 0.1217760519
C   C59       1.0  0.25410  0.50930  0.75160  1.0000 0.1217760519
C   C60       1.0  0.24590  0.49070  0.25160  1.0000 0.1217760519
C   C61       1.0  0.25410  0.99070  0.25160  1.0000 0.1217760519
C   C62       1.0  0.24590  0.00930  0.75160  1.0000 0.1217760519
C   C63       1.0  0.74590  0.49070  0.24840  1.0000 0.1217760519
C   C64       1.0  0.75410  0.50930  0.74840  1.0000 0.1217760519
C   C65       1.0  0.90340  0.96250  0.78760  1.0000 -0.0813722671
C   C66       1.0  0.59660  0.03750  0.28760  1.0000 -0.0813722671
C   C67       1.0  0.09660  0.46250  0.71240  1.0000 -0.0813722671
C   C68       1.0  0.40340  0.53750  0.21240  1.0000 -0.0813722671
C   C69       1.0  0.09660  0.03750  0.21240  1.0000 -0.0813722671
C   C70       1.0  0.40340  0.96250  0.71240  1.0000 -0.0813722671
C   C71       1.0  0.90340  0.53750  0.28760  1.0000 -0.0813722671
C   C72       1.0  0.59660  0.46250  0.78760  1.0000 -0.0813722671
C   C73       1.0  0.79240  0.96350  0.82060  1.0000 -0.0691580431
C   C74       1.0  0.70760  0.03650  0.32060  1.0000 -0.0691580431
C   C75       1.0  0.20760  0.46350  0.67940  1.0000 -0.0691580431
C   C76       1.0  0.29240  0.53650  0.17940  1.0000 -0.0691580431
C   C77       1.0  0.20760  0.03650  0.17940  1.0000 -0.0691580431
C   C78       1.0  0.29240  0.96350  0.67940  1.0000 -0.0691580431
C   C79       1.0  0.79240  0.53650  0.32060  1.0000 -0.0691580431
C   C80       1.0  0.70760  0.46350  0.82060  1.0000 -0.0691580431
C   C81       1.0  0.91390  0.11620  0.65670  1.0000 -0.0691580431
C   C82       1.0  0.58610  0.88380  0.15670  1.0000 -0.0691580431
C   C83       1.0  0.08610  0.61620  0.84330  1.0000 -0.0691580431
C   C84       1.0  0.41390  0.38380  0.34330  1.0000 -0.0691580431
C   C85       1.0  0.08610  0.88380  0.34330  1.0000 -0.0691580431
C   C86       1.0  0.41390  0.11620  0.84330  1.0000 -0.0691580431
C   C87       1.0  0.91390  0.38380  0.15670  1.0000 -0.0691580431
C   C88       1.0  0.58610  0.61620  0.65670  1.0000 -0.0691580431
C   C89       1.0  0.90830  0.15410  0.61620  1.0000 -0.0691580431
C   C90       1.0  0.59170  0.84590  0.11620  1.0000 -0.0691580431
C   C91       1.0  0.09170  0.65410  0.88380  1.0000 -0.0691580431
C   C92       1.0  0.40830  0.34590  0.38380  1.0000 -0.0691580431
C   C93       1.0  0.09170  0.84590  0.38380  1.0000 -0.0691580431
C   C94       1.0  0.40830  0.15410  0.88380  1.0000 -0.0691580431
C   C95       1.0  0.90830  0.34590  0.11620  1.0000 -0.0691580431
C   C96       1.0  0.59170  0.65410  0.61620  1.0000 -0.0691580431
N   N1        1.0  0.10680  0.23810  0.51580  1.0000 -0.2698449479
N   N2        1.0  0.39320  0.76190  0.01580  1.0000 -0.2698449479
N   N3        1.0  0.89320  0.73810  0.98420  1.0000 -0.2698449479
N   N4        1.0  0.60680  0.26190  0.48420  1.0000 -0.2698449479
N   N5        1.0  0.89320  0.76190  0.48420  1.0000 -0.2698449479
N   N6        1.0  0.60680  0.23810  0.98420  1.0000 -0.2698449479
N   N7        1.0  0.10680  0.26190  0.01580  1.0000 -0.2698449479
N   N8        1.0  0.39320  0.73810  0.51580  1.0000 -0.2698449479
N   N9        1.0  0.29090  0.29190  0.51560  1.0000 -0.2897779238
N   N10       1.0  0.20910  0.70810  0.01560  1.0000 -0.2897779238
N   N11       1.0  0.70910  0.79190  0.98440  1.0000 -0.2897779238
N   N12       1.0  0.79090  0.20810  0.48440  1.0000 -0.2897779238
N   N13       1.0  0.70910  0.70810  0.48440  1.0000 -0.2897779238
N   N14       1.0  0.79090  0.29190  0.98440  1.0000 -0.2897779238
N   N15       1.0  0.29090  0.20810  0.01560  1.0000 -0.2897779238
N   N16       1.0  0.20910  0.79190  0.51560  1.0000 -0.2897779238
N   N17       1.0  0.95640  0.13180  0.56930  1.0000 -0.2897779238
N   N18       1.0  0.54360  0.86820  0.06930  1.0000 -0.2897779238
N   N19       1.0  0.04360  0.63180  0.93070  1.0000 -0.2897779238
N   N20       1.0  0.45640  0.36820  0.43070  1.0000 -0.2897779238
N   N21       1.0  0.04360  0.86820  0.43070  1.0000 -0.2897779238
N   N22       1.0  0.45640  0.13180  0.93070  1.0000 -0.2897779238
N   N23       1.0  0.95640  0.36820  0.06930  1.0000 -0.2897779238
N   N24       1.0  0.54360  0.63180  0.56930  1.0000 -0.2897779238
N   N25       1.0  0.96490  0.06840  0.63570  1.0000 -0.300275718
N   N26       1.0  0.53510  0.93160  0.13570  1.0000 -0.300275718
N   N27       1.0  0.03510  0.56840  0.86430  1.0000 -0.300275718
N   N28       1.0  0.46490  0.43160  0.36430  1.0000 -0.300275718
N   N29       1.0  0.03510  0.93160  0.36430  1.0000 -0.300275718
N   N30       1.0  0.46490  0.06840  0.86430  1.0000 -0.300275718
N   N31       1.0  0.96490  0.43160  0.13570  1.0000 -0.300275718
N   N32       1.0  0.53510  0.56840  0.63570  1.0000 -0.300275718
N   N33       1.0  0.03620  0.06750  0.36990  1.0000 -0.300275718
N   N34       1.0  0.46380  0.93250  0.86990  1.0000 -0.300275718
N   N35       1.0  0.96380  0.56750  0.13010  1.0000 -0.300275718
N   N36       1.0  0.53620  0.43250  0.63010  1.0000 -0.300275718
N   N37       1.0  0.96380  0.93250  0.63010  1.0000 -0.300275718
N   N38       1.0  0.53620  0.06750  0.13010  1.0000 -0.300275718
N   N39       1.0  0.03620  0.43250  0.86990  1.0000 -0.300275718
N   N40       1.0  0.46380  0.56750  0.36990  1.0000 -0.300275718
N   N41       1.0  0.03090  0.13270  0.43480  1.0000 -0.2897779238
N   N42       1.0  0.46910  0.86730  0.93480  1.0000 -0.2897779238
N   N43       1.0  0.96910  0.63270  0.06520  1.0000 -0.2897779238
N   N44       1.0  0.53090  0.36730  0.56520  1.0000 -0.2897779238
N   N45       1.0  0.96910  0.86730  0.56520  1.0000 -0.2897779238
N   N46       1.0  0.53090  0.13270  0.06520  1.0000 -0.2897779238
N   N47       1.0  0.03090  0.36730  0.93480  1.0000 -0.2897779238
N   N48       1.0  0.46910  0.63270  0.43480  1.0000 -0.2897779238
N   N49       1.0  0.87480  0.99280  0.74110  1.0000 -0.300275718
N   N50       1.0  0.62520  0.00720  0.24110  1.0000 -0.300275718
N   N51       1.0  0.12520  0.49280  0.75890  1.0000 -0.300275718
N   N52       1.0  0.37480  0.50720  0.25890  1.0000 -0.300275718
N   N53       1.0  0.12520  0.00720  0.25890  1.0000 -0.300275718
N   N54       1.0  0.37480  0.99280  0.75890  1.0000 -0.300275718
N   N55       1.0  0.87480  0.50720  0.24110  1.0000 -0.300275718
N   N56       1.0  0.62520  0.49280  0.74110  1.0000 -0.300275718
N   N57       1.0  0.69090  0.99180  0.79540  1.0000 -0.2897779238
N   N58       1.0  0.80910  0.00820  0.29540  1.0000 -0.2897779238
N   N59       1.0  0.30910  0.49180  0.70460  1.0000 -0.2897779238
N   N60       1.0  0.19090  0.50820  0.20460  1.0000 -0.2897779238
N   N61       1.0  0.30910  0.00820  0.20460  1.0000 -0.2897779238
N   N62       1.0  0.19090  0.99180  0.70460  1.0000 -0.2897779238
N   N63       1.0  0.69090  0.50820  0.29540  1.0000 -0.2897779238
N   N64       1.0  0.80910  0.49180  0.79540  1.0000 -0.2897779238
