# DDEC6 charges by PACMAN v1.1 (https://github.com/mtap-research/PACMAN-charge/)
data_2007[Ag][nan]3[ASR]2
_chemical_formula_sum              "Ag6 H102 C60 S6 N6 O6"
_cell_length_a       17.7315
_cell_length_b       17.7315
_cell_length_c       17.7315
_cell_angle_alpha    116.636
_cell_angle_beta     116.636
_cell_angle_gamma    116.636

_symmetry_space_group_name_H-M    "P 1"
_symmetry_Int_Tables_number       1

loop_
  _symmetry_equiv_pos_as_xyz
  'x, y, z'

loop_
  _atom_site_type_symbol
  _atom_site_label
  _atom_site_symmetry_multiplicity
  _atom_site_fract_x
  _atom_site_fract_y
  _atom_site_fract_z
  _atom_site_occupancy
  _atom_site_charge
Ag  Ag1       1.0  0.79455  0.36938  0.03672  1.0000 0.1152129043
Ag  Ag2       1.0  0.36938  0.03672  0.79455  1.0000 0.1152129043
Ag  Ag3       1.0  0.03672  0.79455  0.36938  1.0000 0.1152129043
Ag  Ag4       1.0  0.20545  0.63062  0.96328  1.0000 0.1152129043
Ag  Ag5       1.0  0.63062  0.96328  0.20545  1.0000 0.1152129043
Ag  Ag6       1.0  0.96328  0.20545  0.63062  1.0000 0.1152129043
H   H1        1.0  0.88480  0.70450  0.05510  1.0000 0.1063152707
H   H2        1.0  0.70450  0.05510  0.88480  1.0000 0.1063152707
H   H3        1.0  0.05510  0.88480  0.70450  1.0000 0.1063152707
H   H4        1.0  0.11520  0.29550  0.94490  1.0000 0.1063152707
H   H5        1.0  0.29550  0.94490  0.11520  1.0000 0.1063152707
H   H6        1.0  0.94490  0.11520  0.29550  1.0000 0.1063152707
H   H7        1.0  0.04190  0.82140  0.21520  1.0000 0.0920707634
H   H8        1.0  0.82140  0.21520  0.04190  1.0000 0.0920707634
H   H9        1.0  0.21520  0.04190  0.82140  1.0000 0.0920707634
H   H10       1.0  0.95810  0.17860  0.78480  1.0000 0.0920707634
H   H11       1.0  0.17860  0.78480  0.95810  1.0000 0.0920707634
H   H12       1.0  0.78480  0.95810  0.17860  1.0000 0.0920707634
H   H13       1.0  0.13020  0.82670  0.14710  1.0000 0.0992518793
H   H14       1.0  0.82670  0.14710  0.13020  1.0000 0.0992518793
H   H15       1.0  0.14710  0.13020  0.82670  1.0000 0.0992518793
H   H16       1.0  0.86980  0.17330  0.85290  1.0000 0.0992518793
H   H17       1.0  0.17330  0.85290  0.86980  1.0000 0.0992518793
H   H18       1.0  0.85290  0.86980  0.17330  1.0000 0.0992518793
H   H19       1.0  0.06090  0.85920  0.10710  1.0000 0.0920707634
H   H20       1.0  0.85920  0.10710  0.06090  1.0000 0.0920707634
H   H21       1.0  0.10710  0.06090  0.85920  1.0000 0.0920707634
H   H22       1.0  0.93910  0.14080  0.89290  1.0000 0.0920707634
H   H23       1.0  0.14080  0.89290  0.93910  1.0000 0.0920707634
H   H24       1.0  0.89290  0.93910  0.14080  1.0000 0.0920707634
H   H25       1.0  0.84860  0.61970  0.86380  1.0000 0.0920707634
H   H26       1.0  0.61970  0.86380  0.84860  1.0000 0.0920707634
H   H27       1.0  0.86380  0.84860  0.61970  1.0000 0.0920707634
H   H28       1.0  0.15140  0.38030  0.13620  1.0000 0.0920707634
H   H29       1.0  0.38030  0.13620  0.15140  1.0000 0.0920707634
H   H30       1.0  0.13620  0.15140  0.38030  1.0000 0.0920707634
H   H31       1.0  0.98440  0.68870  0.91310  1.0000 0.0920707634
H   H32       1.0  0.68870  0.91310  0.98440  1.0000 0.0920707634
H   H33       1.0  0.91310  0.98440  0.68870  1.0000 0.0920707634
H   H34       1.0  0.01560  0.31130  0.08690  1.0000 0.0920707634
H   H35       1.0  0.31130  0.08690  0.01560  1.0000 0.0920707634
H   H36       1.0  0.08690  0.01560  0.31130  1.0000 0.0920707634
H   H37       1.0  0.82490  0.45250  0.78080  1.0000 0.0832735306
H   H38       1.0  0.45250  0.78080  0.82490  1.0000 0.0832735306
H   H39       1.0  0.78080  0.82490  0.45250  1.0000 0.0832735306
H   H40       1.0  0.17510  0.54750  0.21920  1.0000 0.0832735306
H   H41       1.0  0.54750  0.21920  0.17510  1.0000 0.0832735306
H   H42       1.0  0.21920  0.17510  0.54750  1.0000 0.0832735306
H   H43       1.0  0.98140  0.57040  0.94170  1.0000 0.0992518793
H   H44       1.0  0.57040  0.94170  0.98140  1.0000 0.0992518793
H   H45       1.0  0.94170  0.98140  0.57040  1.0000 0.0992518793
H   H46       1.0  0.01860  0.42960  0.05830  1.0000 0.0992518793
H   H47       1.0  0.42960  0.05830  0.01860  1.0000 0.0992518793
H   H48       1.0  0.05830  0.01860  0.42960  1.0000 0.0992518793
H   H49       1.0  0.80550  0.41350  0.88780  1.0000 0.0992518793
H   H50       1.0  0.41350  0.88780  0.80550  1.0000 0.0992518793
H   H51       1.0  0.88780  0.80550  0.41350  1.0000 0.0992518793
H   H52       1.0  0.19450  0.58650  0.11220  1.0000 0.0992518793
H   H53       1.0  0.58650  0.11220  0.19450  1.0000 0.0992518793
H   H54       1.0  0.11220  0.19450  0.58650  1.0000 0.0992518793
H   H55       1.0  0.73300  0.44270  0.84500  1.0000 0.0992518793
H   H56       1.0  0.44270  0.84500  0.73300  1.0000 0.0992518793
H   H57       1.0  0.84500  0.73300  0.44270  1.0000 0.0992518793
H   H58       1.0  0.26700  0.55730  0.15500  1.0000 0.0992518793
H   H59       1.0  0.55730  0.15500  0.26700  1.0000 0.0992518793
H   H60       1.0  0.15500  0.26700  0.55730  1.0000 0.0992518793
H   H61       1.0  0.01850  0.65570  0.12770  1.0000 0.0920707634
H   H62       1.0  0.65570  0.12770  0.01850  1.0000 0.0920707634
H   H63       1.0  0.12770  0.01850  0.65570  1.0000 0.0920707634
H   H64       1.0  0.98150  0.34430  0.87230  1.0000 0.0920707634
H   H65       1.0  0.34430  0.87230  0.98150  1.0000 0.0920707634
H   H66       1.0  0.87230  0.98150  0.34430  1.0000 0.0920707634
H   H67       1.0  0.61900  0.41070  0.95590  1.0000 0.1341755545
H   H68       1.0  0.41070  0.95590  0.61900  1.0000 0.1341755545
H   H69       1.0  0.95590  0.61900  0.41070  1.0000 0.1341755545
H   H70       1.0  0.38100  0.58930  0.04410  1.0000 0.1341755545
H   H71       1.0  0.58930  0.04410  0.38100  1.0000 0.1341755545
H   H72       1.0  0.04410  0.38100  0.58930  1.0000 0.1341755545
H   H73       1.0  0.66640  0.47770  0.92430  1.0000 0.1390503204
H   H74       1.0  0.47770  0.92430  0.66640  1.0000 0.1390503204
H   H75       1.0  0.92430  0.66640  0.47770  1.0000 0.1390503204
H   H76       1.0  0.33360  0.52230  0.07570  1.0000 0.1390503204
H   H77       1.0  0.52230  0.07570  0.33360  1.0000 0.1390503204
H   H78       1.0  0.07570  0.33360  0.52230  1.0000 0.1390503204
H   H79       1.0  0.40700  0.41890  0.82610  1.0000 0.1063152707
H   H80       1.0  0.41890  0.82610  0.40700  1.0000 0.1063152707
H   H81       1.0  0.82610  0.40700  0.41890  1.0000 0.1063152707
H   H82       1.0  0.59300  0.58110  0.17390  1.0000 0.1063152707
H   H83       1.0  0.58110  0.17390  0.59300  1.0000 0.1063152707
H   H84       1.0  0.17390  0.59300  0.58110  1.0000 0.1063152707
H   H85       1.0  0.45780  0.36350  0.82710  1.0000 0.0992518793
H   H86       1.0  0.36350  0.82710  0.45780  1.0000 0.0992518793
H   H87       1.0  0.82710  0.45780  0.36350  1.0000 0.0992518793
H   H88       1.0  0.54220  0.63650  0.17290  1.0000 0.0992518793
H   H89       1.0  0.63650  0.17290  0.54220  1.0000 0.0992518793
H   H90       1.0  0.17290  0.54220  0.63650  1.0000 0.0992518793
H   H91       1.0  0.72190  0.75360  0.21180  1.0000 0.1063152707
H   H92       1.0  0.75360  0.21180  0.72190  1.0000 0.1063152707
H   H93       1.0  0.21180  0.72190  0.75360  1.0000 0.1063152707
H   H94       1.0  0.27810  0.24640  0.78820  1.0000 0.1063152707
H   H95       1.0  0.24640  0.78820  0.27810  1.0000 0.1063152707
H   H96       1.0  0.78820  0.27810  0.24640  1.0000 0.1063152707
H   H97       1.0  0.57360  0.66510  0.06790  1.0000 0.0992518793
H   H98       1.0  0.66510  0.06790  0.57360  1.0000 0.0992518793
H   H99       1.0  0.06790  0.57360  0.66510  1.0000 0.0992518793
H   H100      1.0  0.42640  0.33490  0.93210  1.0000 0.0992518793
H   H101      1.0  0.33490  0.93210  0.42640  1.0000 0.0992518793
H   H102      1.0  0.93210  0.42640  0.33490  1.0000 0.0992518793
C   C1        1.0  0.97113  0.73763  0.11114  1.0000 -0.2334564769
C   C2        1.0  0.73763  0.11114  0.97113  1.0000 -0.2396324966
C   C3        1.0  0.11114  0.97113  0.73763  1.0000 -0.2396324966
C   C4        1.0  0.02887  0.26237  0.88886  1.0000 -0.2396324966
C   C5        1.0  0.26237  0.88886  0.02887  1.0000 -0.2334564769
C   C6        1.0  0.88886  0.02887  0.26237  1.0000 -0.2334564769
C   C7        1.0  0.03839  0.78404  0.08327  1.0000 -0.1624083699
C   C8        1.0  0.78404  0.08327  0.03839  1.0000 -0.1624083699
C   C9        1.0  0.08327  0.03839  0.78404  1.0000 -0.1624083699
C   C10       1.0  0.96161  0.21596  0.91673  1.0000 -0.1624083699
C   C11       1.0  0.21596  0.91673  0.96161  1.0000 -0.1624083699
C   C12       1.0  0.91673  0.96161  0.21596  1.0000 -0.1624083699
C   C13       1.0  0.93680  0.65681  0.92719  1.0000 -0.1769180739
C   C14       1.0  0.65681  0.92719  0.93680  1.0000 -0.1769180739
C   C15       1.0  0.92719  0.93680  0.65681  1.0000 -0.1769180739
C   C16       1.0  0.06320  0.34319  0.07281  1.0000 -0.1769180739
C   C17       1.0  0.34319  0.07281  0.06320  1.0000 -0.1769180739
C   C18       1.0  0.07281  0.06320  0.34319  1.0000 -0.1769180739
C   C19       1.0  0.89438  0.53592  0.88440  1.0000 -0.1661588395
C   C20       1.0  0.53592  0.88440  0.89438  1.0000 -0.1661588395
C   C21       1.0  0.88440  0.89438  0.53592  1.0000 -0.1624083699
C   C22       1.0  0.10562  0.46408  0.11560  1.0000 -0.1624083699
C   C23       1.0  0.46408  0.11560  0.10562  1.0000 -0.1661588395
C   C24       1.0  0.11560  0.10562  0.46408  1.0000 -0.1661588395
C   C25       1.0  0.82593  0.48719  0.91008  1.0000 -0.2396324966
C   C26       1.0  0.48719  0.91008  0.82593  1.0000 -0.2396324966
C   C27       1.0  0.91008  0.82593  0.48719  1.0000 -0.2396324966
C   C28       1.0  0.17407  0.51281  0.08992  1.0000 -0.2396324966
C   C29       1.0  0.51281  0.08992  0.17407  1.0000 -0.2396324966
C   C30       1.0  0.08992  0.17407  0.51281  1.0000 -0.2396324966
C   C31       1.0  0.92773  0.61615  0.06692  1.0000 -0.0108272241
C   C32       1.0  0.61615  0.06692  0.92773  1.0000 -0.0108272241
C   C33       1.0  0.06692  0.92773  0.61615  1.0000 -0.0108272241
C   C34       1.0  0.07227  0.38385  0.93308  1.0000 -0.0108272241
C   C35       1.0  0.38385  0.93308  0.07227  1.0000 -0.0108272241
C   C36       1.0  0.93308  0.07227  0.38385  1.0000 -0.0108272241
C   C37       1.0  0.69821  0.50090  0.00219  1.0000 -0.3926355187
C   C38       1.0  0.50090  0.00219  0.69821  1.0000 -0.3926355187
C   C39       1.0  0.00219  0.69821  0.50090  1.0000 -0.3926355187
C   C40       1.0  0.30179  0.49910  0.99781  1.0000 -0.3926355187
C   C41       1.0  0.49910  0.99781  0.30179  1.0000 -0.3926355187
C   C42       1.0  0.99781  0.30179  0.49910  1.0000 -0.3926355187
C   C43       1.0  0.72517  0.61209  0.09264  1.0000 0.4275333043
C   C44       1.0  0.61209  0.09264  0.72517  1.0000 0.4275333043
C   C45       1.0  0.09264  0.72517  0.61209  1.0000 0.4275333043
C   C46       1.0  0.27483  0.38791  0.90736  1.0000 0.4275333043
C   C47       1.0  0.38791  0.90736  0.27483  1.0000 0.4275333043
C   C48       1.0  0.90736  0.27483  0.38791  1.0000 0.4275333043
C   C49       1.0  0.45834  0.41809  0.87967  1.0000 -0.1531881461
C   C50       1.0  0.41809  0.87967  0.45834  1.0000 -0.1531881461
C   C51       1.0  0.87967  0.45834  0.41809  1.0000 -0.1531881461
C   C52       1.0  0.54166  0.58191  0.12033  1.0000 -0.1531881461
C   C53       1.0  0.58191  0.12033  0.54166  1.0000 -0.1531881461
C   C54       1.0  0.12033  0.54166  0.58191  1.0000 -0.1531881461
C   C55       1.0  0.61894  0.65559  0.11307  1.0000 -0.1364145546
C   C56       1.0  0.65559  0.11307  0.61894  1.0000 -0.1364145546
C   C57       1.0  0.11307  0.61894  0.65559  1.0000 -0.1364145546
C   C58       1.0  0.38106  0.34441  0.88693  1.0000 -0.1364145546
C   C59       1.0  0.34441  0.88693  0.38106  1.0000 -0.1364145546
C   C60       1.0  0.88693  0.38106  0.34441  1.0000 -0.1364145546
S   S1        1.0  0.85743  0.56405  0.10859  1.0000 0.0270421002
S   S2        1.0  0.56405  0.10859  0.85743  1.0000 0.0270421002
S   S3        1.0  0.10859  0.85743  0.56405  1.0000 0.0270421002
S   S4        1.0  0.14257  0.43595  0.89141  1.0000 0.0270421002
S   S5        1.0  0.43595  0.89141  0.14257  1.0000 0.0270421002
S   S6        1.0  0.89141  0.14257  0.43595  1.0000 0.0270421002
N   N1        1.0  0.60827  0.56716  0.02629  1.0000 -0.1261029511
N   N2        1.0  0.56716  0.02629  0.60827  1.0000 -0.1261029511
N   N3        1.0  0.02629  0.60827  0.56716  1.0000 -0.1261029511
N   N4        1.0  0.39173  0.43284  0.97371  1.0000 -0.1261029511
N   N5        1.0  0.43284  0.97371  0.39173  1.0000 -0.1261029511
N   N6        1.0  0.97371  0.39173  0.43284  1.0000 -0.1261029511
O   O1        1.0  0.84731  0.73752  0.21995  1.0000 -0.5015181148
O   O2        1.0  0.73752  0.21995  0.84731  1.0000 -0.5015181148
O   O3        1.0  0.21995  0.84731  0.73752  1.0000 -0.5015181148
O   O4        1.0  0.15269  0.26248  0.78005  1.0000 -0.5015181148
O   O5        1.0  0.26248  0.78005  0.15269  1.0000 -0.5015181148
O   O6        1.0  0.78005  0.15269  0.26248  1.0000 -0.5015181148
