# DDEC6 charges by PACMAN v1.1 (https://github.com/mtap-research/PACMAN-charge/)
data_2007[CdMo][nan]3[ASR]1
_chemical_formula_sum              "Cd5 Mo12 P8 H16 C20 N4 O50"
_cell_length_a       12.806
_cell_length_b       13.809
_cell_length_c       14.508
_cell_angle_alpha    113.57
_cell_angle_beta     96.71
_cell_angle_gamma    106.21

_symmetry_space_group_name_H-M    "P 1"
_symmetry_Int_Tables_number       1

loop_
  _symmetry_equiv_pos_as_xyz
  'x, y, z'

loop_
  _atom_site_type_symbol
  _atom_site_label
  _atom_site_symmetry_multiplicity
  _atom_site_fract_x
  _atom_site_fract_y
  _atom_site_fract_z
  _atom_site_occupancy
  _atom_site_charge
Cd  Cd1       1.0  0.00000  0.50000  0.50000  1.0000 1.3560455221
Cd  Cd2       1.0  0.91520  0.75344  0.18480  1.0000 1.0836331028
Cd  Cd3       1.0  0.08480  0.24656  0.81520  1.0000 1.0836331028
Cd  Cd4       1.0  0.51195  0.63929  0.08284  1.0000 1.0512869734
Cd  Cd5       1.0  0.48805  0.36071  0.91716  1.0000 1.0512869734
Mo  Mo1       1.0  0.05688  0.42496  0.22506  1.0000 1.7495981235
Mo  Mo2       1.0  0.94312  0.57504  0.77494  1.0000 1.7495981235
Mo  Mo3       1.0  0.84710  0.40609  0.21016  1.0000 1.8491285223
Mo  Mo4       1.0  0.15290  0.59391  0.78984  1.0000 1.8445631641
Mo  Mo5       1.0  0.73082  0.34951  0.55473  1.0000 1.9804336805
Mo  Mo6       1.0  0.26918  0.65049  0.44527  1.0000 1.9745237011
Mo  Mo7       1.0  0.78567  0.20238  0.40624  1.0000 1.9279129881
Mo  Mo8       1.0  0.21433  0.79762  0.59376  1.0000 1.9215251583
Mo  Mo9       1.0  0.07093  0.23276  0.42877  1.0000 1.8678336519
Mo  Mo10      1.0  0.92907  0.76724  0.57123  1.0000 1.8678336519
Mo  Mo11      1.0  0.22675  0.39764  0.59198  1.0000 1.9804336805
Mo  Mo12      1.0  0.77325  0.60236  0.40802  1.0000 1.9891997952
P   P1        1.0  0.02902  0.68339  0.35205  1.0000 1.5479743857
P   P2        1.0  0.97098  0.31661  0.64795  1.0000 1.5479743857
P   P3        1.0  0.87117  0.98745  0.36648  1.0000 1.5191866536
P   P4        1.0  0.12883  0.01255  0.63352  1.0000 1.5191866536
P   P5        1.0  0.28039  0.59716  0.20117  1.0000 1.4712692875
P   P6        1.0  0.71961  0.40284  0.79883  1.0000 1.4712692875
P   P7        1.0  0.68275  0.53818  0.15644  1.0000 1.5061303753
P   P8        1.0  0.31725  0.46182  0.84356  1.0000 1.5061303753
H   H1        1.0  0.31390  0.35050  0.06310  1.0000 0.1400278959
H   H2        1.0  0.68610  0.64950  0.93690  1.0000 0.1400278959
H   H3        1.0  0.20370  0.23490  0.11970  1.0000 0.1400278959
H   H4        1.0  0.79630  0.76510  0.88030  1.0000 0.1400278959
H   H5        1.0  0.26970  0.97570  0.91490  1.0000 0.1459970328
H   H6        1.0  0.73030  0.02430  0.08510  1.0000 0.1459970328
H   H7        1.0  0.37970  0.10010  0.86700  1.0000 0.125352614
H   H8        1.0  0.62030  0.89990  0.13300  1.0000 0.125352614
H   H9        1.0  0.11380  0.77620  0.07070  1.0000 0.1400278959
H   H10       1.0  0.88620  0.22380  0.92930  1.0000 0.1400278959
H   H11       1.0  0.22890  0.89520  0.02050  1.0000 0.1459970328
H   H12       1.0  0.77110  0.10480  0.97950  1.0000 0.1459970328
H   H13       1.0  0.06350  0.10770  0.12410  1.0000 0.1400278959
H   H14       1.0  0.93650  0.89230  0.87590  1.0000 0.1400278959
H   H15       1.0  0.95850  0.98610  0.17940  1.0000 0.1078073503
H   H16       1.0  0.04150  0.01390  0.82060  1.0000 0.1078073503
C   C1        1.0  0.30680  0.27480  0.03490  1.0000 0.0997865903
C   C2        1.0  0.69320  0.72520  0.96510  1.0000 0.0997865903
C   C3        1.0  0.24020  0.20580  0.06920  1.0000 -0.1814253252
C   C4        1.0  0.75980  0.79420  0.93080  1.0000 -0.1814253252
C   C5        1.0  0.22830  0.09170  0.02720  1.0000 0.1078073503
C   C6        1.0  0.77170  0.90830  0.97280  1.0000 0.1078073503
C   C7        1.0  0.27940  0.05200  0.94820  1.0000 -0.1934037913
C   C8        1.0  0.72060  0.94800  0.05180  1.0000 -0.1934037913
C   C9        1.0  0.34530  0.12810  0.91960  1.0000 0.1171389598
C   C10       1.0  0.65470  0.87190  0.08040  1.0000 0.1171389598
C   C11       1.0  0.10390  0.84390  0.08180  1.0000 0.0997865903
C   C12       1.0  0.89610  0.15610  0.91820  1.0000 0.0997865903
C   C13       1.0  0.17290  0.91460  0.05070  1.0000 -0.1934037913
C   C14       1.0  0.82710  0.08540  0.94930  1.0000 -0.1934037913
C   C15       1.0  0.15800  0.01520  0.06490  1.0000 0.1078073503
C   C16       1.0  0.84200  0.98480  0.93510  1.0000 0.0997865903
C   C17       1.0  0.07590  0.04110  0.11300  1.0000 -0.1974263709
C   C18       1.0  0.92410  0.95890  0.88700  1.0000 -0.1974263709
C   C19       1.0  0.01170  0.96650  0.14460  1.0000 0.1078073503
C   C20       1.0  0.98830  0.03350  0.85540  1.0000 0.1078073503
N   N1        1.0  0.36260  0.23670  0.96150  1.0000 -0.249730311
N   N2        1.0  0.63740  0.76330  0.03850  1.0000 -0.249730311
N   N3        1.0  0.02330  0.86830  0.12720  1.0000 -0.2617084604
N   N4        1.0  0.97670  0.13170  0.87280  1.0000 -0.2617084604
O   O1        1.0  0.23530  0.68550  0.18050  1.0000 -0.7906041238
O   O2        1.0  0.76470  0.31450  0.81950  1.0000 -0.7906041238
O   O3        1.0  0.56050  0.48710  0.08940  1.0000 -0.7906041238
O   O4        1.0  0.43950  0.51290  0.91060  1.0000 -0.7906041238
O   O5        1.0  0.83780  0.87740  0.26790  1.0000 -0.81406524
O   O6        1.0  0.16220  0.12260  0.73210  1.0000 -0.81406524
O   O7        1.0  0.05600  0.75460  0.47130  1.0000 -0.8470025581
O   O8        1.0  0.94400  0.24540  0.52870  1.0000 -0.8470025581
O   O9        1.0  0.04710  0.75460  0.29550  1.0000 -0.7208351713
O   O10       1.0  0.95290  0.24540  0.70450  1.0000 -0.7208351713
O   O11       1.0  0.78480  0.04440  0.36570  1.0000 -0.7906041238
O   O12       1.0  0.21520  0.95560  0.63430  1.0000 -0.7906041238
O   O13       1.0  0.36700  0.58090  0.14280  1.0000 -0.7906041238
O   O14       1.0  0.63300  0.41910  0.85720  1.0000 -0.7906041238
O   O15       1.0  0.86970  0.96480  0.46340  1.0000 -0.6778314334
O   O16       1.0  0.13030  0.03520  0.53660  1.0000 -0.6778314334
O   O17       1.0  0.32980  0.65010  0.31870  1.0000 -0.7906041238
O   O18       1.0  0.67020  0.34990  0.68130  1.0000 -0.7906041238
O   O19       1.0  0.71000  0.19150  0.51330  1.0000 -0.8363811892
O   O20       1.0  0.29000  0.80850  0.48670  1.0000 -0.8363811892
O   O21       1.0  0.74740  0.63360  0.13630  1.0000 -0.8212016147
O   O22       1.0  0.25260  0.36640  0.86370  1.0000 -0.8212016147
O   O23       1.0  0.90530  0.59810  0.31350  1.0000 -0.8994503092
O   O24       1.0  0.09470  0.40190  0.68650  1.0000 -0.8994503092
O   O25       1.0  0.67700  0.57840  0.27130  1.0000 -0.7812207306
O   O26       1.0  0.32300  0.42160  0.72870  1.0000 -0.7744931203
O   O27       1.0  0.99020  0.06550  0.38180  1.0000 -0.7812207306
O   O28       1.0  0.00980  0.93450  0.61820  1.0000 -0.7812207306
O   O29       1.0  0.95300  0.45190  0.13770  1.0000 -0.7812207306
O   O30       1.0  0.04700  0.54810  0.86230  1.0000 -0.7812207306
O   O31       1.0  0.73260  0.44350  0.12900  1.0000 -0.7812207306
O   O32       1.0  0.26740  0.55650  0.87100  1.0000 -0.7812207306
O   O33       1.0  0.17840  0.48780  0.16100  1.0000 -0.7906041238
O   O34       1.0  0.82160  0.51220  0.83900  1.0000 -0.7906041238
O   O35       1.0  0.10800  0.61410  0.33110  1.0000 -0.8669466597
O   O36       1.0  0.89200  0.38590  0.66890  1.0000 -0.8642899614
O   O37       1.0  0.19460  0.47430  0.34930  1.0000 -0.9502317529
O   O38       1.0  0.80540  0.52570  0.65070  1.0000 -0.9502317529
O   O39       1.0  0.75130  0.43210  0.31990  1.0000 -0.9369211417
O   O40       1.0  0.24870  0.56790  0.68010  1.0000 -0.9369211417
O   O41       1.0  0.10860  0.39660  0.49280  1.0000 -0.889470629
O   O42       1.0  0.89140  0.60340  0.50720  1.0000 -0.889470629
O   O43       1.0  0.92100  0.21770  0.33910  1.0000 -0.9604522806
O   O44       1.0  0.07900  0.78230  0.66090  1.0000 -0.9604522806
O   O45       1.0  0.96200  0.41720  0.32100  1.0000 -0.8784271103
O   O46       1.0  0.03800  0.58280  0.67900  1.0000 -0.8784271103
O   O47       1.0  0.16470  0.23580  0.54650  1.0000 -0.7906041238
O   O48       1.0  0.83530  0.76420  0.45350  1.0000 -0.7906041238
O   O49       1.0  0.83430  0.36820  0.46890  1.0000 -0.8994503092
O   O50       1.0  0.16570  0.63180  0.53110  1.0000 -0.8994503092
