# DDEC6 charges by PACMAN v1.1 (https://github.com/mtap-research/PACMAN-charge/)
data_2007[InAg][ths]3[ASR]1
_chemical_formula_sum              "In4 Ag4 H120 C168 N36"
_cell_length_a       16.9219
_cell_length_b       16.9219
_cell_length_c       34.044
_cell_angle_alpha    67.566
_cell_angle_beta     112.434
_cell_angle_gamma    134.058

_symmetry_space_group_name_H-M    "P 1"
_symmetry_Int_Tables_number       1

loop_
  _symmetry_equiv_pos_as_xyz
  'x, y, z'

loop_
  _atom_site_type_symbol
  _atom_site_label
  _atom_site_symmetry_multiplicity
  _atom_site_fract_x
  _atom_site_fract_y
  _atom_site_fract_z
  _atom_site_occupancy
  _atom_site_charge
In  In1       1.0  0.98182  0.10064  0.58783  1.0000 1.0967895792
In  In2       1.0  0.89936  0.01818  0.08783  1.0000 1.0967895792
In  In3       1.0  0.10064  0.98182  0.91217  1.0000 1.0967895792
In  In4       1.0  0.01818  0.89936  0.41217  1.0000 1.0967895792
Ag  Ag1       1.0  0.56163  0.02469  0.76912  1.0000 0.2022126348
Ag  Ag2       1.0  0.97531  0.43837  0.26912  1.0000 0.2022126348
Ag  Ag3       1.0  0.02469  0.56163  0.73088  1.0000 0.2022126348
Ag  Ag4       1.0  0.43837  0.97531  0.23088  1.0000 0.2022126348
H   H1        1.0  0.80180  0.83480  0.63080  1.0000 0.0996301689
H   H2        1.0  0.16520  0.19820  0.13080  1.0000 0.0996301689
H   H3        1.0  0.84330  0.72210  0.69300  1.0000 0.0996301689
H   H4        1.0  0.27790  0.15670  0.19300  1.0000 0.0996301689
H   H5        1.0  0.05060  0.82920  0.70490  1.0000 0.0996301689
H   H6        1.0  0.17080  0.94940  0.20490  1.0000 0.1083423601
H   H7        1.0  0.39210  0.23010  0.63700  1.0000 0.119557015
H   H8        1.0  0.76990  0.60790  0.13700  1.0000 0.119557015
H   H9        1.0  0.40840  0.38520  0.57920  1.0000 0.119557015
H   H10       1.0  0.61480  0.59160  0.07920  1.0000 0.119557015
H   H11       1.0  0.22030  0.33090  0.55240  1.0000 0.1083423601
H   H12       1.0  0.66910  0.77970  0.05240  1.0000 0.1083423601
H   H13       1.0  0.32900  0.14480  0.71910  1.0000 0.1395290021
H   H14       1.0  0.85520  0.67100  0.21910  1.0000 0.1395290021
H   H15       1.0  0.45340  0.11560  0.76560  1.0000 0.0996301689
H   H16       1.0  0.88440  0.54660  0.26560  1.0000 0.0996301689
H   H17       1.0  0.32450  0.87890  0.70740  1.0000 0.0996301689
H   H18       1.0  0.12110  0.67550  0.20740  1.0000 0.0996301689
H   H19       1.0  0.19560  0.89920  0.65970  1.0000 0.119557015
H   H20       1.0  0.10080  0.80440  0.15970  1.0000 0.119557015
H   H21       1.0  0.12270  0.13050  0.05180  1.0000 0.0996301689
H   H22       1.0  0.86950  0.87730  0.55180  1.0000 0.0996301689
H   H23       1.0  0.14550  0.17970  0.97550  1.0000 0.119557015
H   H24       1.0  0.82030  0.85450  0.47550  1.0000 0.119557015
H   H25       1.0  0.96950  0.13070  0.92830  1.0000 0.119557015
H   H26       1.0  0.86930  0.03050  0.42830  1.0000 0.119557015
H   H27       1.0  0.57990  0.95990  0.95380  1.0000 0.119557015
H   H28       1.0  0.04010  0.42010  0.45380  1.0000 0.119557015
H   H29       1.0  0.50760  0.91360  0.01870  1.0000 0.119557015
H   H30       1.0  0.08640  0.49240  0.51870  1.0000 0.119557015
H   H31       1.0  0.65410  0.93630  0.08300  1.0000 0.1083423601
H   H32       1.0  0.06370  0.34590  0.58300  1.0000 0.0996301689
H   H33       1.0  0.79450  0.19030  0.91110  1.0000 0.1395290021
H   H34       1.0  0.80970  0.20550  0.41110  1.0000 0.1395290021
H   H35       1.0  0.71390  0.18530  0.83880  1.0000 0.0926953622
H   H36       1.0  0.81470  0.28610  0.33880  1.0000 0.0926953622
H   H37       1.0  0.62390  0.89330  0.84910  1.0000 0.0996301689
H   H38       1.0  0.10670  0.37610  0.34910  1.0000 0.0996301689
H   H39       1.0  0.70330  0.89090  0.92260  1.0000 0.1395290021
H   H40       1.0  0.10910  0.29670  0.42260  1.0000 0.1395290021
H   H41       1.0  0.72410  0.95010  0.53480  1.0000 0.1083423601
H   H42       1.0  0.04990  0.27590  0.03480  1.0000 0.1083423601
H   H43       1.0  0.55180  0.88180  0.55070  1.0000 0.119557015
H   H44       1.0  0.11820  0.44820  0.05070  1.0000 0.119557015
H   H45       1.0  0.60640  0.95860  0.61450  1.0000 0.119557015
H   H46       1.0  0.04140  0.39360  0.11450  1.0000 0.119557015
H   H47       1.0  0.99230  0.19970  0.72200  1.0000 0.1083423601
H   H48       1.0  0.80030  0.00770  0.22200  1.0000 0.1083423601
H   H49       1.0  0.19070  0.29610  0.72440  1.0000 0.1083423601
H   H50       1.0  0.70390  0.80930  0.22440  1.0000 0.1083423601
H   H51       1.0  0.19350  0.25830  0.66120  1.0000 0.0996301689
H   H52       1.0  0.74170  0.80650  0.16120  1.0000 0.0996301689
H   H53       1.0  0.68040  0.90240  0.69990  1.0000 0.1395290021
H   H54       1.0  0.09760  0.31960  0.19990  1.0000 0.1395290021
H   H55       1.0  0.58780  0.88920  0.74080  1.0000 0.0996301689
H   H56       1.0  0.11080  0.41220  0.24080  1.0000 0.0996301689
H   H57       1.0  0.74480  0.21100  0.70660  1.0000 0.0926953622
H   H58       1.0  0.78900  0.25520  0.20660  1.0000 0.0926953622
H   H59       1.0  0.85590  0.23430  0.66970  1.0000 0.1395290021
H   H60       1.0  0.76570  0.14410  0.16970  1.0000 0.1395290021
H   H61       1.0  0.83480  0.80180  0.86920  1.0000 0.0996301689
H   H62       1.0  0.19820  0.16520  0.36920  1.0000 0.0996301689
H   H63       1.0  0.72210  0.84330  0.80700  1.0000 0.0996301689
H   H64       1.0  0.15670  0.27790  0.30700  1.0000 0.0996301689
H   H65       1.0  0.82920  0.05060  0.79510  1.0000 0.1083423601
H   H66       1.0  0.94940  0.17080  0.29510  1.0000 0.1083423601
H   H67       1.0  0.23010  0.39210  0.86300  1.0000 0.119557015
H   H68       1.0  0.60790  0.76990  0.36300  1.0000 0.119557015
H   H69       1.0  0.38520  0.40840  0.92080  1.0000 0.119557015
H   H70       1.0  0.59160  0.61480  0.42080  1.0000 0.119557015
H   H71       1.0  0.33090  0.22030  0.94760  1.0000 0.1083423601
H   H72       1.0  0.77970  0.66910  0.44760  1.0000 0.1083423601
H   H73       1.0  0.14480  0.32900  0.78090  1.0000 0.1395290021
H   H74       1.0  0.67100  0.85520  0.28090  1.0000 0.1395290021
H   H75       1.0  0.11560  0.45340  0.73440  1.0000 0.0996301689
H   H76       1.0  0.54660  0.88440  0.23440  1.0000 0.0996301689
H   H77       1.0  0.87890  0.32450  0.79260  1.0000 0.0996301689
H   H78       1.0  0.67550  0.12110  0.29260  1.0000 0.0996301689
H   H79       1.0  0.89920  0.19560  0.84030  1.0000 0.119557015
H   H80       1.0  0.80440  0.10080  0.34030  1.0000 0.119557015
H   H81       1.0  0.13050  0.12270  0.44820  1.0000 0.0996301689
H   H82       1.0  0.87730  0.86950  0.94820  1.0000 0.0996301689
H   H83       1.0  0.17970  0.14550  0.52450  1.0000 0.119557015
H   H84       1.0  0.85450  0.82030  0.02450  1.0000 0.119557015
H   H85       1.0  0.13070  0.96950  0.57170  1.0000 0.119557015
H   H86       1.0  0.03050  0.86930  0.07170  1.0000 0.119557015
H   H87       1.0  0.95990  0.57990  0.54620  1.0000 0.119557015
H   H88       1.0  0.42010  0.04010  0.04620  1.0000 0.119557015
H   H89       1.0  0.91360  0.50760  0.48130  1.0000 0.119557015
H   H90       1.0  0.49240  0.08640  0.98130  1.0000 0.119557015
H   H91       1.0  0.93630  0.65410  0.41700  1.0000 0.0996301689
H   H92       1.0  0.34590  0.06370  0.91700  1.0000 0.0996301689
H   H93       1.0  0.19030  0.79450  0.58890  1.0000 0.1395290021
H   H94       1.0  0.20550  0.80970  0.08890  1.0000 0.1395290021
H   H95       1.0  0.18530  0.71390  0.66120  1.0000 0.0926953622
H   H96       1.0  0.28610  0.81470  0.16120  1.0000 0.0926953622
H   H97       1.0  0.89330  0.62390  0.65090  1.0000 0.0996301689
H   H98       1.0  0.37610  0.10670  0.15090  1.0000 0.0996301689
H   H99       1.0  0.89090  0.70330  0.57740  1.0000 0.1395290021
H   H100      1.0  0.29670  0.10910  0.07740  1.0000 0.1395290021
H   H101      1.0  0.95010  0.72410  0.96520  1.0000 0.1083423601
H   H102      1.0  0.27590  0.04990  0.46520  1.0000 0.1083423601
H   H103      1.0  0.88180  0.55180  0.94930  1.0000 0.119557015
H   H104      1.0  0.44820  0.11820  0.44930  1.0000 0.119557015
H   H105      1.0  0.95860  0.60640  0.88550  1.0000 0.119557015
H   H106      1.0  0.39360  0.04140  0.38550  1.0000 0.119557015
H   H107      1.0  0.19970  0.99230  0.77800  1.0000 0.1083423601
H   H108      1.0  0.00770  0.80030  0.27800  1.0000 0.1083423601
H   H109      1.0  0.29610  0.19070  0.77560  1.0000 0.1083423601
H   H110      1.0  0.80930  0.70390  0.27560  1.0000 0.1083423601
H   H111      1.0  0.25830  0.19350  0.83880  1.0000 0.0996301689
H   H112      1.0  0.80650  0.74170  0.33880  1.0000 0.0996301689
H   H113      1.0  0.90240  0.68040  0.80010  1.0000 0.1395290021
H   H114      1.0  0.31960  0.09760  0.30010  1.0000 0.1395290021
H   H115      1.0  0.88920  0.58780  0.75920  1.0000 0.0996301689
H   H116      1.0  0.41220  0.11080  0.25920  1.0000 0.0996301689
H   H117      1.0  0.21100  0.74480  0.79340  1.0000 0.0926953622
H   H118      1.0  0.25520  0.78900  0.29340  1.0000 0.0926953622
H   H119      1.0  0.23430  0.85590  0.83030  1.0000 0.1395290021
H   H120      1.0  0.14410  0.76570  0.33030  1.0000 0.1395290021
C   C1        1.0  0.87430  0.85790  0.64350  1.0000 0.0330449159
C   C2        1.0  0.14210  0.12570  0.14350  1.0000 0.0330449159
C   C3        1.0  0.89620  0.79320  0.67760  1.0000 -0.1783889166
C   C4        1.0  0.20680  0.10380  0.17760  1.0000 -0.1783889166
C   C5        1.0  0.01070  0.85290  0.68470  1.0000 -0.2396328419
C   C6        1.0  0.14710  0.98930  0.18470  1.0000 -0.2396328419
C   C7        1.0  0.05590  0.95550  0.65590  1.0000 0.1335316387
C   C8        1.0  0.04450  0.94410  0.15590  1.0000 0.1335316387
C   C9        1.0  0.16860  0.04420  0.65300  1.0000 -0.052598765
C   C10       1.0  0.95580  0.83140  0.15300  1.0000 -0.052598765
C   C11       1.0  0.21990  0.14950  0.62540  1.0000 0.1464350974
C   C12       1.0  0.85050  0.78010  0.12540  1.0000 0.1464350974
C   C13       1.0  0.33340  0.23220  0.62120  1.0000 -0.2166421858
C   C14       1.0  0.76780  0.66667  0.12120  1.0000 -0.2166421858
C   C15       1.0  0.34170  0.31710  0.58920  1.0000 -0.1631901867
C   C16       1.0  0.68290  0.65830  0.08920  1.0000 -0.1631901867
C   C17       1.0  0.23680  0.28640  0.57420  1.0000 0.0202711451
C   C18       1.0  0.71360  0.76320  0.07420  1.0000 0.0202711451
C   C19       1.0  0.24890  0.02670  0.68340  1.0000 0.119557015
C   C20       1.0  0.97330  0.75110  0.18340  1.0000 0.119557015
C   C21       1.0  0.32640  0.08980  0.71570  1.0000 -0.2032302259
C   C22       1.0  0.91020  0.67360  0.21570  1.0000 -0.2032302259
C   C23       1.0  0.40150  0.07210  0.74340  1.0000 0.0815773413
C   C24       1.0  0.92790  0.59850  0.24340  1.0000 0.0815773413
C   C25       1.0  0.32580  0.93420  0.70940  1.0000 0.0202711451
C   C26       1.0  0.06580  0.67420  0.20940  1.0000 0.0202711451
C   C27       1.0  0.24850  0.94590  0.68090  1.0000 -0.1894283686
C   C28       1.0  0.05410  0.75150  0.18090  1.0000 -0.1894283686
C   C29       1.0  0.06690  0.11970  0.02710  1.0000 0.0330449159
C   C30       1.0  0.88030  0.93310  0.52710  1.0000 0.0330449159
C   C31       1.0  0.08040  0.14760  0.98460  1.0000 -0.1328719936
C   C32       1.0  0.85240  0.91960  0.48460  1.0000 -0.1328719936
C   C33       1.0  0.98430  0.12050  0.95890  1.0000 -0.2166421858
C   C34       1.0  0.87950  0.01570  0.45890  1.0000 -0.2166421858
C   C35       1.0  0.90740  0.07340  0.98580  1.0000 0.1395290021
C   C36       1.0  0.92660  0.09260  0.48580  1.0000 0.1395290021
C   C37       1.0  0.80030  0.03730  0.97287  1.0000 -0.052598765
C   C38       1.0  0.96270  0.19970  0.47287  1.0000 -0.052598765
C   C39       1.0  0.72580  0.99740  0.99740  1.0000 0.1335316387
C   C40       1.0  0.00260  0.27420  0.49740  1.0000 0.1335316387
C   C41       1.0  0.61820  0.96380  0.98280  1.0000 -0.2166421858
C   C42       1.0  0.03620  0.38180  0.48280  1.0000 -0.2166421858
C   C43       1.0  0.57730  0.93690  0.01860  1.0000 -0.1731850325
C   C44       1.0  0.06310  0.42270  0.51860  1.0000 -0.1731850325
C   C45       1.0  0.66100  0.95180  0.05410  1.0000 0.0406449747
C   C46       1.0  0.04820  0.33900  0.55410  1.0000 0.0406449747
C   C47       1.0  0.75420  0.04000  0.92470  1.0000 0.119557015
C   C48       1.0  0.96000  0.24580  0.42470  1.0000 0.119557015
C   C49       1.0  0.75840  0.12740  0.89930  1.0000 -0.1783889166
C   C50       1.0  0.87260  0.24160  0.39930  1.0000 -0.1783889166
C   C51       1.0  0.70960  0.12360  0.85620  1.0000 0.0330449159
C   C52       1.0  0.87640  0.29040  0.35620  1.0000 0.0330449159
C   C53       1.0  0.65710  0.95330  0.86210  1.0000 0.0718394772
C   C54       1.0  0.04670  0.34290  0.36210  1.0000 0.0718394772
C   C55       1.0  0.70480  0.95140  0.90600  1.0000 -0.1894283686
C   C56       1.0  0.04860  0.29520  0.40600  1.0000 -0.1894283686
C   C57       1.0  0.72080  0.96300  0.55870  1.0000 0.0202711451
C   C58       1.0  0.03700  0.27920  0.05870  1.0000 0.0202711451
C   C59       1.0  0.62490  0.92670  0.56690  1.0000 -0.1731850325
C   C60       1.0  0.07330  0.37510  0.06690  1.0000 -0.1731850325
C   C61       1.0  0.65430  0.96710  0.60220  1.0000 -0.2166421858
C   C62       1.0  0.03290  0.34570  0.10220  1.0000 -0.2099741344
C   C63       1.0  0.76970  0.02390  0.61710  1.0000 0.1395290021
C   C64       1.0  0.97610  0.23030  0.11710  1.0000 0.1395290021
C   C65       1.0  0.83580  0.07940  0.65250  1.0000 -0.0331853542
C   C66       1.0  0.92060  0.16420  0.15250  1.0000 -0.0331853542
C   C67       1.0  0.95250  0.14530  0.66580  1.0000 0.1395290021
C   C68       1.0  0.85470  0.04750  0.16580  1.0000 0.1395290021
C   C69       1.0  0.01910  0.19990  0.70200  1.0000 -0.2284474975
C   C70       1.0  0.80010  0.98090  0.20200  1.0000 -0.2284474975
C   C71       1.0  0.12820  0.25320  0.70350  1.0000 -0.1631901867
C   C72       1.0  0.74680  0.87180  0.20350  1.0000 -0.1631901867
C   C73       1.0  0.12820  0.23120  0.66820  1.0000 0.0330449159
C   C74       1.0  0.76880  0.87180  0.16820  1.0000 0.0330449159
C   C75       1.0  0.77560  0.06880  0.67960  1.0000 0.119557015
C   C76       1.0  0.93120  0.22440  0.17960  1.0000 0.119557015
C   C77       1.0  0.69700  0.96780  0.70130  1.0000 -0.1894283686
C   C78       1.0  0.03220  0.30300  0.20130  1.0000 -0.1894283686
C   C79       1.0  0.64120  0.96020  0.72550  1.0000 0.0606637925
C   C80       1.0  0.03980  0.35880  0.22550  1.0000 0.0606637925
C   C81       1.0  0.73410  0.14810  0.70640  1.0000 0.0606637925
C   C82       1.0  0.85190  0.26590  0.20640  1.0000 0.0606637925
C   C83       1.0  0.79840  0.16200  0.68290  1.0000 -0.2032302259
C   C84       1.0  0.83800  0.20160  0.18290  1.0000 -0.2099741344
C   C85       1.0  0.85790  0.87430  0.85650  1.0000 0.0330449159
C   C86       1.0  0.12570  0.14210  0.35650  1.0000 0.0330449159
C   C87       1.0  0.79320  0.89620  0.82240  1.0000 -0.1783889166
C   C88       1.0  0.10380  0.20680  0.32240  1.0000 -0.1783889166
C   C89       1.0  0.85290  0.01070  0.81530  1.0000 -0.2396328419
C   C90       1.0  0.98930  0.14710  0.31530  1.0000 -0.2396328419
C   C91       1.0  0.95550  0.05590  0.84410  1.0000 0.1335316387
C   C92       1.0  0.94410  0.04450  0.34410  1.0000 0.1335316387
C   C93       1.0  0.04420  0.16860  0.84700  1.0000 -0.0552815354
C   C94       1.0  0.83140  0.95580  0.34700  1.0000 -0.052598765
C   C95       1.0  0.14950  0.21990  0.87460  1.0000 0.1464350974
C   C96       1.0  0.78010  0.85050  0.37460  1.0000 0.1395290021
C   C97       1.0  0.23220  0.33340  0.87880  1.0000 -0.2166421858
C   C98       1.0  0.66667  0.76780  0.37880  1.0000 -0.2166421858
C   C99       1.0  0.31710  0.34170  0.91080  1.0000 -0.1631901867
C   C100      1.0  0.65830  0.68290  0.41080  1.0000 -0.1631901867
C   C101      1.0  0.28640  0.23680  0.92580  1.0000 0.0202711451
C   C102      1.0  0.76320  0.71360  0.42580  1.0000 0.0202711451
C   C103      1.0  0.02670  0.24890  0.81660  1.0000 0.119557015
C   C104      1.0  0.75110  0.97330  0.31660  1.0000 0.119557015
C   C105      1.0  0.08980  0.32640  0.78430  1.0000 -0.2032302259
C   C106      1.0  0.67360  0.91020  0.28430  1.0000 -0.2032302259
C   C107      1.0  0.07210  0.40150  0.75660  1.0000 0.0815773413
C   C108      1.0  0.59850  0.92790  0.25660  1.0000 0.0815773413
C   C109      1.0  0.93420  0.32580  0.79060  1.0000 0.0202711451
C   C110      1.0  0.67420  0.06580  0.29060  1.0000 0.0202711451
C   C111      1.0  0.94590  0.24850  0.81910  1.0000 -0.1894283686
C   C112      1.0  0.75150  0.05410  0.31910  1.0000 -0.1894283686
C   C113      1.0  0.11970  0.06690  0.47290  1.0000 0.0330449159
C   C114      1.0  0.93310  0.88030  0.97290  1.0000 0.0330449159
C   C115      1.0  0.14760  0.08040  0.51540  1.0000 -0.1328719936
C   C116      1.0  0.91960  0.85240  0.01540  1.0000 -0.1328719936
C   C117      1.0  0.12050  0.98430  0.54110  1.0000 -0.2166421858
C   C118      1.0  0.01570  0.87950  0.04110  1.0000 -0.2166421858
C   C119      1.0  0.07340  0.90740  0.51420  1.0000 0.1395290021
C   C120      1.0  0.09260  0.92660  0.01420  1.0000 0.1395290021
C   C121      1.0  0.03730  0.80030  0.52713  1.0000 -0.052598765
C   C122      1.0  0.19970  0.96270  0.02713  1.0000 -0.052598765
C   C123      1.0  0.99740  0.72580  0.50260  1.0000 0.1335316387
C   C124      1.0  0.27420  0.00260  0.00260  1.0000 0.1335316387
C   C125      1.0  0.96380  0.61820  0.51720  1.0000 -0.2166421858
C   C126      1.0  0.38180  0.03620  0.01720  1.0000 -0.2166421858
C   C127      1.0  0.93690  0.57730  0.48140  1.0000 -0.1731850325
C   C128      1.0  0.42270  0.06310  0.98140  1.0000 -0.1731850325
C   C129      1.0  0.95180  0.66100  0.44590  1.0000 0.0406449747
C   C130      1.0  0.33900  0.04820  0.94590  1.0000 0.0406449747
C   C131      1.0  0.04000  0.75420  0.57530  1.0000 0.119557015
C   C132      1.0  0.24580  0.96000  0.07530  1.0000 0.119557015
C   C133      1.0  0.12740  0.75840  0.60070  1.0000 -0.1783889166
C   C134      1.0  0.24160  0.87260  0.10070  1.0000 -0.1783889166
C   C135      1.0  0.12360  0.70960  0.64380  1.0000 0.0330449159
C   C136      1.0  0.29040  0.87640  0.14380  1.0000 0.0330449159
C   C137      1.0  0.95330  0.65710  0.63790  1.0000 0.0718394772
C   C138      1.0  0.34290  0.04670  0.13790  1.0000 0.0718394772
C   C139      1.0  0.95140  0.70480  0.59400  1.0000 -0.1894283686
C   C140      1.0  0.29520  0.04860  0.09400  1.0000 -0.1894283686
C   C141      1.0  0.96300  0.72080  0.94130  1.0000 0.0202711451
C   C142      1.0  0.27920  0.03700  0.44130  1.0000 0.0202711451
C   C143      1.0  0.92670  0.62490  0.93310  1.0000 -0.1731850325
C   C144      1.0  0.37510  0.07330  0.43310  1.0000 -0.1731850325
C   C145      1.0  0.96710  0.65430  0.89780  1.0000 -0.2099741344
C   C146      1.0  0.34570  0.03290  0.39780  1.0000 -0.2099741344
C   C147      1.0  0.02390  0.76970  0.88290  1.0000 0.1395290021
C   C148      1.0  0.23030  0.97610  0.38290  1.0000 0.1395290021
C   C149      1.0  0.07940  0.83580  0.84750  1.0000 -0.0331853542
C   C150      1.0  0.16420  0.92060  0.34750  1.0000 -0.0331853542
C   C151      1.0  0.14530  0.95250  0.83420  1.0000 0.1395290021
C   C152      1.0  0.04750  0.85470  0.33420  1.0000 0.1395290021
C   C153      1.0  0.19990  0.01910  0.79800  1.0000 -0.2284474975
C   C154      1.0  0.98090  0.80010  0.29800  1.0000 -0.2284474975
C   C155      1.0  0.25320  0.12820  0.79650  1.0000 -0.1631901867
C   C156      1.0  0.87180  0.74680  0.29650  1.0000 -0.1631901867
C   C157      1.0  0.23120  0.12820  0.83180  1.0000 0.0330449159
C   C158      1.0  0.87180  0.76880  0.33180  1.0000 0.0330449159
C   C159      1.0  0.06880  0.77560  0.82040  1.0000 0.119557015
C   C160      1.0  0.22440  0.93120  0.32040  1.0000 0.119557015
C   C161      1.0  0.96780  0.69700  0.79870  1.0000 -0.1894283686
C   C162      1.0  0.30300  0.03220  0.29870  1.0000 -0.1894283686
C   C163      1.0  0.96020  0.64120  0.77450  1.0000 0.0606637925
C   C164      1.0  0.35880  0.03980  0.27450  1.0000 0.0606637925
C   C165      1.0  0.14810  0.73410  0.79360  1.0000 0.0606637925
C   C166      1.0  0.26590  0.85190  0.29360  1.0000 0.0606637925
C   C167      1.0  0.16200  0.79840  0.81710  1.0000 -0.2032302259
C   C168      1.0  0.20160  0.83800  0.31710  1.0000 -0.2099741344
N   N1        1.0  0.96860  0.95620  0.63121  1.0000 -0.3535273864
N   N2        1.0  0.04380  0.03140  0.13121  1.0000 -0.3535273864
N   N3        1.0  0.16052  0.18248  0.59548  1.0000 -0.3677897795
N   N4        1.0  0.81752  0.83948  0.09548  1.0000 -0.3677897795
N   N5        1.0  0.40320  0.99940  0.74012  1.0000 -0.2032302259
N   N6        1.0  0.00060  0.59680  0.24012  1.0000 -0.2032302259
N   N7        1.0  0.96410  0.07550  0.02852  1.0000 -0.3677897795
N   N8        1.0  0.92450  0.03590  0.52852  1.0000 -0.3677897795
N   N9        1.0  0.75130  0.99010  0.04297  1.0000 -0.361381262
N   N10       1.0  0.00990  0.24870  0.54297  1.0000 -0.361381262
N   N11       1.0  0.65640  0.03600  0.83800  1.0000 -0.2032302259
N   N12       1.0  0.96400  0.34360  0.33800  1.0000 -0.2032302259
N   N13       1.0  0.80900  0.01940  0.58947  1.0000 -0.361381262
N   N14       1.0  0.98060  0.19100  0.08947  1.0000 -0.361381262
N   N15       1.0  0.02490  0.16710  0.64491  1.0000 -0.361381262
N   N16       1.0  0.83290  0.97510  0.14491  1.0000 -0.361381262
N   N17       1.0  0.66000  0.04900  0.72800  1.0000 -0.2032302259
N   N18       1.0  0.95100  0.34000  0.22800  1.0000 -0.2032302259
N   N19       1.0  0.95620  0.96860  0.86879  1.0000 -0.3535273864
N   N20       1.0  0.03140  0.04380  0.36879  1.0000 -0.3535273864
N   N21       1.0  0.18248  0.16052  0.90452  1.0000 -0.3677897795
N   N22       1.0  0.83948  0.81752  0.40452  1.0000 -0.3677897795
N   N23       1.0  0.99940  0.40320  0.75988  1.0000 -0.2032302259
N   N24       1.0  0.59680  0.00060  0.25988  1.0000 -0.2032302259
N   N25       1.0  0.07550  0.96410  0.47148  1.0000 -0.3677897795
N   N26       1.0  0.03590  0.92450  0.97148  1.0000 -0.3677897795
N   N27       1.0  0.99010  0.75130  0.45703  1.0000 -0.361381262
N   N28       1.0  0.24870  0.00990  0.95703  1.0000 -0.361381262
N   N29       1.0  0.03600  0.65640  0.66200  1.0000 -0.2032302259
N   N30       1.0  0.34360  0.96400  0.16200  1.0000 -0.2099741344
N   N31       1.0  0.01940  0.80900  0.91053  1.0000 -0.361381262
N   N32       1.0  0.19100  0.98060  0.41053  1.0000 -0.361381262
N   N33       1.0  0.16710  0.02490  0.85509  1.0000 -0.361381262
N   N34       1.0  0.97510  0.83290  0.35509  1.0000 -0.361381262
N   N35       1.0  0.04900  0.66000  0.77200  1.0000 -0.2032302259
N   N36       1.0  0.34000  0.95100  0.27200  1.0000 -0.2032302259
