# DDEC6 charges by PACMAN v1.1 (https://github.com/mtap-research/PACMAN-charge/)
data_2007[Cu][tbo]3[ASR]2
_chemical_formula_sum              "Cu12 H96 C216 N56 O48"
_cell_length_a       37.4717
_cell_length_b       37.4717
_cell_length_c       37.4717
_cell_angle_alpha    60
_cell_angle_beta     60
_cell_angle_gamma    60

_symmetry_space_group_name_H-M    "P 1"
_symmetry_Int_Tables_number       1

loop_
  _symmetry_equiv_pos_as_xyz
  'x, y, z'

loop_
  _atom_site_type_symbol
  _atom_site_label
  _atom_site_symmetry_multiplicity
  _atom_site_fract_x
  _atom_site_fract_y
  _atom_site_fract_z
  _atom_site_occupancy
  _atom_site_charge
Cu  Cu1       1.0  0.50000  0.96450  0.03550  1.0000 0.8202338485
Cu  Cu2       1.0  0.03550  0.50000  0.96450  1.0000 0.8202338485
Cu  Cu3       1.0  0.96450  0.03550  0.50000  1.0000 0.8202338485
Cu  Cu4       1.0  0.50000  0.03550  0.50000  1.0000 0.8202338485
Cu  Cu5       1.0  0.96450  0.50000  0.03550  1.0000 0.8202338485
Cu  Cu6       1.0  0.50000  0.96450  0.50000  1.0000 0.8202338485
Cu  Cu7       1.0  0.96450  0.50000  0.50000  1.0000 0.8202338485
Cu  Cu8       1.0  0.50000  0.03550  0.96450  1.0000 0.8202338485
Cu  Cu9       1.0  0.03550  0.50000  0.50000  1.0000 0.8202338485
Cu  Cu10      1.0  0.03550  0.96450  0.50000  1.0000 0.8202338485
Cu  Cu11      1.0  0.50000  0.50000  0.96450  1.0000 0.8202338485
Cu  Cu12      1.0  0.50000  0.50000  0.03550  1.0000 0.8202338485
H   H1        1.0  0.63670  0.89070  0.99510  1.0000 0.1328122758
H   H2        1.0  0.99510  0.63670  0.89070  1.0000 0.1328122758
H   H3        1.0  0.89070  0.99510  0.63670  1.0000 0.1328122758
H   H4        1.0  0.36330  0.10930  0.52250  1.0000 0.1328122758
H   H5        1.0  0.00490  0.52250  0.10930  1.0000 0.1328122758
H   H6        1.0  0.52250  0.00490  0.36330  1.0000 0.1328122758
H   H7        1.0  0.00490  0.36330  0.52250  1.0000 0.1328122758
H   H8        1.0  0.52250  0.10930  0.00490  1.0000 0.1328122758
H   H9        1.0  0.10930  0.52250  0.36330  1.0000 0.1328122758
H   H10       1.0  0.10930  0.00490  0.52250  1.0000 0.1328122758
H   H11       1.0  0.36330  0.52250  0.00490  1.0000 0.1328122758
H   H12       1.0  0.52250  0.36330  0.10930  1.0000 0.1328122758
H   H13       1.0  0.89070  0.63670  0.47750  1.0000 0.1328122758
H   H14       1.0  0.99510  0.47750  0.63670  1.0000 0.1328122758
H   H15       1.0  0.47750  0.99510  0.89070  1.0000 0.1328122758
H   H16       1.0  0.47750  0.89070  0.63670  1.0000 0.1328122758
H   H17       1.0  0.63670  0.99510  0.47750  1.0000 0.1328122758
H   H18       1.0  0.89070  0.47750  0.99510  1.0000 0.1328122758
H   H19       1.0  0.63670  0.47750  0.89070  1.0000 0.1328122758
H   H20       1.0  0.47750  0.63670  0.99510  1.0000 0.1328122758
H   H21       1.0  0.99510  0.89070  0.47750  1.0000 0.1328122758
H   H22       1.0  0.10930  0.36330  0.00490  1.0000 0.1328122758
H   H23       1.0  0.36330  0.00490  0.10930  1.0000 0.1328122758
H   H24       1.0  0.00490  0.10930  0.36330  1.0000 0.1328122758
H   H25       1.0  0.36330  0.10930  0.00490  1.0000 0.1328122758
H   H26       1.0  0.00490  0.36330  0.10930  1.0000 0.1328122758
H   H27       1.0  0.10930  0.00490  0.36330  1.0000 0.1328122758
H   H28       1.0  0.63670  0.89070  0.47750  1.0000 0.1328122758
H   H29       1.0  0.99510  0.47750  0.89070  1.0000 0.1328122758
H   H30       1.0  0.47750  0.99510  0.63670  1.0000 0.1328122758
H   H31       1.0  0.99510  0.63670  0.47750  1.0000 0.1328122758
H   H32       1.0  0.47750  0.89070  0.99510  1.0000 0.1328122758
H   H33       1.0  0.89070  0.47750  0.63670  1.0000 0.1328122758
H   H34       1.0  0.89070  0.99510  0.47750  1.0000 0.1328122758
H   H35       1.0  0.63670  0.47750  0.99510  1.0000 0.1328122758
H   H36       1.0  0.47750  0.63670  0.89070  1.0000 0.1328122758
H   H37       1.0  0.10930  0.36330  0.52250  1.0000 0.1328122758
H   H38       1.0  0.00490  0.52250  0.36330  1.0000 0.1328122758
H   H39       1.0  0.52250  0.00490  0.10930  1.0000 0.1328122758
H   H40       1.0  0.52250  0.10930  0.36330  1.0000 0.1328122758
H   H41       1.0  0.36330  0.00490  0.52250  1.0000 0.1328122758
H   H42       1.0  0.10930  0.52250  0.00490  1.0000 0.1328122758
H   H43       1.0  0.36330  0.52250  0.10930  1.0000 0.1328122758
H   H44       1.0  0.52250  0.36330  0.00490  1.0000 0.1328122758
H   H45       1.0  0.00490  0.10930  0.52250  1.0000 0.1328122758
H   H46       1.0  0.89070  0.63670  0.99510  1.0000 0.1328122758
H   H47       1.0  0.63670  0.99510  0.89070  1.0000 0.1328122758
H   H48       1.0  0.99510  0.89070  0.63670  1.0000 0.1328122758
H   H49       1.0  0.70930  0.85550  0.96290  1.0000 0.118310146
H   H50       1.0  0.96290  0.70930  0.85550  1.0000 0.118310146
H   H51       1.0  0.85550  0.96290  0.70930  1.0000 0.118310146
H   H52       1.0  0.29070  0.14450  0.52770  1.0000 0.118310146
H   H53       1.0  0.03710  0.52770  0.14450  1.0000 0.118310146
H   H54       1.0  0.52770  0.03710  0.29070  1.0000 0.118310146
H   H55       1.0  0.03710  0.29070  0.52770  1.0000 0.118310146
H   H56       1.0  0.52770  0.14450  0.03710  1.0000 0.118310146
H   H57       1.0  0.14450  0.52770  0.29070  1.0000 0.118310146
H   H58       1.0  0.14450  0.03710  0.52770  1.0000 0.118310146
H   H59       1.0  0.29070  0.52770  0.03710  1.0000 0.118310146
H   H60       1.0  0.52770  0.29070  0.14450  1.0000 0.118310146
H   H61       1.0  0.85550  0.70930  0.47230  1.0000 0.118310146
H   H62       1.0  0.96290  0.47230  0.70930  1.0000 0.118310146
H   H63       1.0  0.47230  0.96290  0.85550  1.0000 0.118310146
H   H64       1.0  0.47230  0.85550  0.70930  1.0000 0.118310146
H   H65       1.0  0.70930  0.96290  0.47230  1.0000 0.118310146
H   H66       1.0  0.85550  0.47230  0.96290  1.0000 0.118310146
H   H67       1.0  0.70930  0.47230  0.85550  1.0000 0.118310146
H   H68       1.0  0.47230  0.70930  0.96290  1.0000 0.118310146
H   H69       1.0  0.96290  0.85550  0.47230  1.0000 0.118310146
H   H70       1.0  0.14450  0.29070  0.03710  1.0000 0.118310146
H   H71       1.0  0.29070  0.03710  0.14450  1.0000 0.118310146
H   H72       1.0  0.03710  0.14450  0.29070  1.0000 0.118310146
H   H73       1.0  0.29070  0.14450  0.03710  1.0000 0.118310146
H   H74       1.0  0.03710  0.29070  0.14450  1.0000 0.118310146
H   H75       1.0  0.14450  0.03710  0.29070  1.0000 0.118310146
H   H76       1.0  0.70930  0.85550  0.47230  1.0000 0.118310146
H   H77       1.0  0.96290  0.47230  0.85550  1.0000 0.118310146
H   H78       1.0  0.47230  0.96290  0.70930  1.0000 0.118310146
H   H79       1.0  0.96290  0.70930  0.47230  1.0000 0.118310146
H   H80       1.0  0.47230  0.85550  0.96290  1.0000 0.118310146
H   H81       1.0  0.85550  0.47230  0.70930  1.0000 0.118310146
H   H82       1.0  0.85550  0.96290  0.47230  1.0000 0.118310146
H   H83       1.0  0.70930  0.47230  0.96290  1.0000 0.118310146
H   H84       1.0  0.47230  0.70930  0.85550  1.0000 0.118310146
H   H85       1.0  0.14450  0.29070  0.52770  1.0000 0.118310146
H   H86       1.0  0.03710  0.52770  0.29070  1.0000 0.118310146
H   H87       1.0  0.52770  0.03710  0.14450  1.0000 0.118310146
H   H88       1.0  0.52770  0.14450  0.29070  1.0000 0.118310146
H   H89       1.0  0.29070  0.03710  0.52770  1.0000 0.118310146
H   H90       1.0  0.14450  0.52770  0.03710  1.0000 0.118310146
H   H91       1.0  0.29070  0.52770  0.14450  1.0000 0.118310146
H   H92       1.0  0.52770  0.29070  0.03710  1.0000 0.118310146
H   H93       1.0  0.03710  0.14450  0.52770  1.0000 0.118310146
H   H94       1.0  0.85550  0.70930  0.96290  1.0000 0.118310146
H   H95       1.0  0.70930  0.96290  0.85550  1.0000 0.118310146
H   H96       1.0  0.96290  0.85550  0.70930  1.0000 0.118310146
C   C1        1.0  0.57964  0.96664  0.96664  1.0000 0.5628207841
C   C2        1.0  0.96664  0.57964  0.96664  1.0000 0.5628207841
C   C3        1.0  0.96664  0.96664  0.57964  1.0000 0.5628207841
C   C4        1.0  0.42036  0.03336  0.51292  1.0000 0.5628207841
C   C5        1.0  0.03336  0.51292  0.03336  1.0000 0.5628207841
C   C6        1.0  0.51292  0.03336  0.42036  1.0000 0.5628207841
C   C7        1.0  0.03336  0.42036  0.51292  1.0000 0.5628207841
C   C8        1.0  0.51292  0.03336  0.03336  1.0000 0.5628207841
C   C9        1.0  0.03336  0.51292  0.42036  1.0000 0.5628207841
C   C10       1.0  0.03336  0.03336  0.51292  1.0000 0.5628207841
C   C11       1.0  0.42036  0.51292  0.03336  1.0000 0.5628207841
C   C12       1.0  0.51292  0.42036  0.03336  1.0000 0.5628207841
C   C13       1.0  0.96664  0.57964  0.48708  1.0000 0.5628207841
C   C14       1.0  0.96664  0.48708  0.57964  1.0000 0.5628207841
C   C15       1.0  0.48708  0.96664  0.96664  1.0000 0.5628207841
C   C16       1.0  0.48708  0.96664  0.57964  1.0000 0.5628207841
C   C17       1.0  0.57964  0.96664  0.48708  1.0000 0.5628207841
C   C18       1.0  0.96664  0.48708  0.96664  1.0000 0.5628207841
C   C19       1.0  0.57964  0.48708  0.96664  1.0000 0.5628207841
C   C20       1.0  0.48708  0.57964  0.96664  1.0000 0.5628207841
C   C21       1.0  0.96664  0.96664  0.48708  1.0000 0.5628207841
C   C22       1.0  0.03336  0.42036  0.03336  1.0000 0.5628207841
C   C23       1.0  0.42036  0.03336  0.03336  1.0000 0.5628207841
C   C24       1.0  0.03336  0.03336  0.42036  1.0000 0.5628207841
C   C25       1.0  0.62951  0.94549  0.94549  1.0000 -0.0139453297
C   C26       1.0  0.94549  0.62951  0.94549  1.0000 -0.0139453297
C   C27       1.0  0.94549  0.94549  0.62951  1.0000 -0.0139453297
C   C28       1.0  0.37049  0.05451  0.52049  1.0000 -0.0160894431
C   C29       1.0  0.05451  0.52049  0.05451  1.0000 -0.0139453297
C   C30       1.0  0.52049  0.05451  0.37049  1.0000 -0.0139453297
C   C31       1.0  0.05451  0.37049  0.52049  1.0000 -0.0160894431
C   C32       1.0  0.52049  0.05451  0.05451  1.0000 -0.0139453297
C   C33       1.0  0.05451  0.52049  0.37049  1.0000 -0.0139453297
C   C34       1.0  0.05451  0.05451  0.52049  1.0000 -0.0160894431
C   C35       1.0  0.37049  0.52049  0.05451  1.0000 -0.0139453297
C   C36       1.0  0.52049  0.37049  0.05451  1.0000 -0.0139453297
C   C37       1.0  0.94549  0.62951  0.47951  1.0000 -0.0139453297
C   C38       1.0  0.94549  0.47951  0.62951  1.0000 -0.0139453297
C   C39       1.0  0.47951  0.94549  0.94549  1.0000 -0.0139453297
C   C40       1.0  0.47951  0.94549  0.62951  1.0000 -0.0139453297
C   C41       1.0  0.62951  0.94549  0.47951  1.0000 -0.0139453297
C   C42       1.0  0.94549  0.47951  0.94549  1.0000 -0.0139453297
C   C43       1.0  0.62951  0.47951  0.94549  1.0000 -0.0160894431
C   C44       1.0  0.47951  0.62951  0.94549  1.0000 -0.0139453297
C   C45       1.0  0.94549  0.94549  0.47951  1.0000 -0.0139453297
C   C46       1.0  0.05451  0.37049  0.05451  1.0000 -0.0139453297
C   C47       1.0  0.37049  0.05451  0.05451  1.0000 -0.0160894431
C   C48       1.0  0.05451  0.05451  0.37049  1.0000 -0.0139453297
C   C49       1.0  0.65140  0.90500  0.96670  1.0000 -0.0891891255
C   C50       1.0  0.96670  0.65140  0.90500  1.0000 -0.0891891255
C   C51       1.0  0.90500  0.96670  0.65140  1.0000 -0.0891891255
C   C52       1.0  0.34860  0.09500  0.52310  1.0000 -0.0891891255
C   C53       1.0  0.03330  0.52310  0.09500  1.0000 -0.0891891255
C   C54       1.0  0.52310  0.03330  0.34860  1.0000 -0.0891891255
C   C55       1.0  0.03330  0.34860  0.52310  1.0000 -0.0891891255
C   C56       1.0  0.52310  0.09500  0.03330  1.0000 -0.0891891255
C   C57       1.0  0.09500  0.52310  0.34860  1.0000 -0.0891891255
C   C58       1.0  0.09500  0.03330  0.52310  1.0000 -0.0891891255
C   C59       1.0  0.34860  0.52310  0.03330  1.0000 -0.0891891255
C   C60       1.0  0.52310  0.34860  0.09500  1.0000 -0.0891891255
C   C61       1.0  0.90500  0.65140  0.47690  1.0000 -0.0891891255
C   C62       1.0  0.96670  0.47690  0.65140  1.0000 -0.0891891255
C   C63       1.0  0.47690  0.96670  0.90500  1.0000 -0.0891891255
C   C64       1.0  0.47690  0.90500  0.65140  1.0000 -0.0891891255
C   C65       1.0  0.65140  0.96670  0.47690  1.0000 -0.0891891255
C   C66       1.0  0.90500  0.47690  0.96670  1.0000 -0.0891891255
C   C67       1.0  0.65140  0.47690  0.90500  1.0000 -0.0891891255
C   C68       1.0  0.47690  0.65140  0.96670  1.0000 -0.0891891255
C   C69       1.0  0.96670  0.90500  0.47690  1.0000 -0.0891891255
C   C70       1.0  0.09500  0.34860  0.03330  1.0000 -0.0891891255
C   C71       1.0  0.34860  0.03330  0.09500  1.0000 -0.0891891255
C   C72       1.0  0.03330  0.09500  0.34860  1.0000 -0.0891891255
C   C73       1.0  0.34860  0.09500  0.03330  1.0000 -0.0891891255
C   C74       1.0  0.03330  0.34860  0.09500  1.0000 -0.0891891255
C   C75       1.0  0.09500  0.03330  0.34860  1.0000 -0.0891891255
C   C76       1.0  0.65140  0.90500  0.47690  1.0000 -0.0891891255
C   C77       1.0  0.96670  0.47690  0.90500  1.0000 -0.0891891255
C   C78       1.0  0.47690  0.96670  0.65140  1.0000 -0.0891891255
C   C79       1.0  0.96670  0.65140  0.47690  1.0000 -0.0891891255
C   C80       1.0  0.47690  0.90500  0.96670  1.0000 -0.0891891255
C   C81       1.0  0.90500  0.47690  0.65140  1.0000 -0.0891891255
C   C82       1.0  0.90500  0.96670  0.47690  1.0000 -0.0891891255
C   C83       1.0  0.65140  0.47690  0.96670  1.0000 -0.0891891255
C   C84       1.0  0.47690  0.65140  0.90500  1.0000 -0.0891891255
C   C85       1.0  0.09500  0.34860  0.52310  1.0000 -0.0891891255
C   C86       1.0  0.03330  0.52310  0.34860  1.0000 -0.0891891255
C   C87       1.0  0.52310  0.03330  0.09500  1.0000 -0.0891891255
C   C88       1.0  0.52310  0.09500  0.34860  1.0000 -0.0891891255
C   C89       1.0  0.34860  0.03330  0.52310  1.0000 -0.0891891255
C   C90       1.0  0.09500  0.52310  0.03330  1.0000 -0.0891891255
C   C91       1.0  0.34860  0.52310  0.09500  1.0000 -0.0891891255
C   C92       1.0  0.52310  0.34860  0.03330  1.0000 -0.0891891255
C   C93       1.0  0.03330  0.09500  0.52310  1.0000 -0.0891891255
C   C94       1.0  0.90500  0.65140  0.96670  1.0000 -0.0891891255
C   C95       1.0  0.65140  0.96670  0.90500  1.0000 -0.0891891255
C   C96       1.0  0.96670  0.90500  0.65140  1.0000 -0.0891891255
C   C97       1.0  0.69515  0.88379  0.94779  1.0000 -0.0891891255
C   C98       1.0  0.94779  0.69515  0.88379  1.0000 -0.0891891255
C   C99       1.0  0.88379  0.94779  0.69515  1.0000 -0.0842406087
C   C100      1.0  0.30485  0.11621  0.52673  1.0000 -0.0842406087
C   C101      1.0  0.05221  0.52673  0.11621  1.0000 -0.0891891255
C   C102      1.0  0.52673  0.05221  0.30485  1.0000 -0.0842406087
C   C103      1.0  0.05221  0.30485  0.52673  1.0000 -0.0842406087
C   C104      1.0  0.52673  0.11621  0.05221  1.0000 -0.0891891255
C   C105      1.0  0.11621  0.52673  0.30485  1.0000 -0.0891891255
C   C106      1.0  0.11621  0.05221  0.52673  1.0000 -0.0891891255
C   C107      1.0  0.30485  0.52673  0.05221  1.0000 -0.0891891255
C   C108      1.0  0.52673  0.30485  0.11621  1.0000 -0.0891891255
C   C109      1.0  0.88379  0.69515  0.47327  1.0000 -0.0891891255
C   C110      1.0  0.94779  0.47327  0.69515  1.0000 -0.0891891255
C   C111      1.0  0.47327  0.94779  0.88379  1.0000 -0.0891891255
C   C112      1.0  0.47327  0.88379  0.69515  1.0000 -0.0891891255
C   C113      1.0  0.69515  0.94779  0.47327  1.0000 -0.0891891255
C   C114      1.0  0.88379  0.47327  0.94779  1.0000 -0.0842406087
C   C115      1.0  0.69515  0.47327  0.88379  1.0000 -0.0891891255
C   C116      1.0  0.47327  0.69515  0.94779  1.0000 -0.0842406087
C   C117      1.0  0.94779  0.88379  0.47327  1.0000 -0.0842406087
C   C118      1.0  0.11621  0.30485  0.05221  1.0000 -0.0891891255
C   C119      1.0  0.30485  0.05221  0.11621  1.0000 -0.0842406087
C   C120      1.0  0.05221  0.11621  0.30485  1.0000 -0.0891891255
C   C121      1.0  0.30485  0.11621  0.05221  1.0000 -0.0891891255
C   C122      1.0  0.05221  0.30485  0.11621  1.0000 -0.0891891255
C   C123      1.0  0.11621  0.05221  0.30485  1.0000 -0.0891891255
C   C124      1.0  0.69515  0.88379  0.47327  1.0000 -0.0842406087
C   C125      1.0  0.94779  0.47327  0.88379  1.0000 -0.0891891255
C   C126      1.0  0.47327  0.94779  0.69515  1.0000 -0.0842406087
C   C127      1.0  0.94779  0.69515  0.47327  1.0000 -0.0891891255
C   C128      1.0  0.47327  0.88379  0.94779  1.0000 -0.0842406087
C   C129      1.0  0.88379  0.47327  0.69515  1.0000 -0.0891891255
C   C130      1.0  0.88379  0.94779  0.47327  1.0000 -0.0891891255
C   C131      1.0  0.69515  0.47327  0.94779  1.0000 -0.0842406087
C   C132      1.0  0.47327  0.69515  0.88379  1.0000 -0.0891891255
C   C133      1.0  0.11621  0.30485  0.52673  1.0000 -0.0891891255
C   C134      1.0  0.05221  0.52673  0.30485  1.0000 -0.0842406087
C   C135      1.0  0.52673  0.05221  0.11621  1.0000 -0.0891891255
C   C136      1.0  0.52673  0.11621  0.30485  1.0000 -0.0891891255
C   C137      1.0  0.30485  0.05221  0.52673  1.0000 -0.0891891255
C   C138      1.0  0.11621  0.52673  0.05221  1.0000 -0.0842406087
C   C139      1.0  0.30485  0.52673  0.11621  1.0000 -0.0891891255
C   C140      1.0  0.52673  0.30485  0.05221  1.0000 -0.0842406087
C   C141      1.0  0.05221  0.11621  0.52673  1.0000 -0.0891891255
C   C142      1.0  0.88379  0.69515  0.94779  1.0000 -0.0842406087
C   C143      1.0  0.69515  0.94779  0.88379  1.0000 -0.0891891255
C   C144      1.0  0.94779  0.88379  0.69515  1.0000 -0.0891891255
C   C145      1.0  0.71752  0.90574  0.90574  1.0000 -0.0015990314
C   C146      1.0  0.90574  0.71752  0.90574  1.0000 -0.0015990314
C   C147      1.0  0.90574  0.90574  0.71752  1.0000 -0.0015990314
C   C148      1.0  0.28248  0.09426  0.52900  1.0000 -0.0015990314
C   C149      1.0  0.09426  0.52900  0.09426  1.0000 -0.0015990314
C   C150      1.0  0.52900  0.09426  0.28248  1.0000 -0.0015990314
C   C151      1.0  0.09426  0.28248  0.52900  1.0000 -0.0015990314
C   C152      1.0  0.52900  0.09426  0.09426  1.0000 -0.0015990314
C   C153      1.0  0.09426  0.52900  0.28248  1.0000 -0.0015990314
C   C154      1.0  0.09426  0.09426  0.52900  1.0000 -0.0015990314
C   C155      1.0  0.28248  0.52900  0.09426  1.0000 -0.0015990314
C   C156      1.0  0.52900  0.28248  0.09426  1.0000 -0.0015990314
C   C157      1.0  0.90574  0.71752  0.47100  1.0000 0.0013029517
C   C158      1.0  0.90574  0.47100  0.71752  1.0000 -0.0015990314
C   C159      1.0  0.47100  0.90574  0.90574  1.0000 -0.0015990314
C   C160      1.0  0.47100  0.90574  0.71752  1.0000 -0.0015990314
C   C161      1.0  0.71752  0.90574  0.47100  1.0000 -0.0015990314
C   C162      1.0  0.90574  0.47100  0.90574  1.0000 -0.0015990314
C   C163      1.0  0.71752  0.47100  0.90574  1.0000 -0.0015990314
C   C164      1.0  0.47100  0.71752  0.90574  1.0000 -0.0015990314
C   C165      1.0  0.90574  0.90574  0.47100  1.0000 -0.0015990314
C   C166      1.0  0.09426  0.28248  0.09426  1.0000 -0.0015990314
C   C167      1.0  0.28248  0.09426  0.09426  1.0000 -0.0015990314
C   C168      1.0  0.09426  0.09426  0.28248  1.0000 -0.0015990314
C   C169      1.0  0.76296  0.88498  0.88498  1.0000 0.3806875614
C   C170      1.0  0.88498  0.76296  0.88498  1.0000 0.3806875614
C   C171      1.0  0.88498  0.88498  0.76296  1.0000 0.3806875614
C   C172      1.0  0.23704  0.11502  0.53292  1.0000 0.3806875614
C   C173      1.0  0.11502  0.53292  0.11502  1.0000 0.3806875614
C   C174      1.0  0.53292  0.11502  0.23704  1.0000 0.3806875614
C   C175      1.0  0.11502  0.23704  0.53292  1.0000 0.3806875614
C   C176      1.0  0.53292  0.11502  0.11502  1.0000 0.3806875614
C   C177      1.0  0.11502  0.53292  0.23704  1.0000 0.3806875614
C   C178      1.0  0.11502  0.11502  0.53292  1.0000 0.3806875614
C   C179      1.0  0.23704  0.53292  0.11502  1.0000 0.3806875614
C   C180      1.0  0.53292  0.23704  0.11502  1.0000 0.3806875614
C   C181      1.0  0.88498  0.76296  0.46708  1.0000 0.3806875614
C   C182      1.0  0.88498  0.46708  0.76296  1.0000 0.3806875614
C   C183      1.0  0.46708  0.88498  0.88498  1.0000 0.3806875614
C   C184      1.0  0.46708  0.88498  0.76296  1.0000 0.3806875614
C   C185      1.0  0.76296  0.88498  0.46708  1.0000 0.3806875614
C   C186      1.0  0.88498  0.46708  0.88498  1.0000 0.3806875614
C   C187      1.0  0.76296  0.46708  0.88498  1.0000 0.3806875614
C   C188      1.0  0.46708  0.76296  0.88498  1.0000 0.3806875614
C   C189      1.0  0.88498  0.88498  0.46708  1.0000 0.3806875614
C   C190      1.0  0.11502  0.23704  0.11502  1.0000 0.3806875614
C   C191      1.0  0.23704  0.11502  0.11502  1.0000 0.3806875614
C   C192      1.0  0.11502  0.11502  0.23704  1.0000 0.3806875614
C   C193      1.0  0.82307  0.88755  0.82307  1.0000 0.5169569089
C   C194      1.0  0.82307  0.82307  0.88755  1.0000 0.5169569089
C   C195      1.0  0.88755  0.82307  0.82307  1.0000 0.5169569089
C   C196      1.0  0.17693  0.11245  0.53369  1.0000 0.5139420398
C   C197      1.0  0.17693  0.53369  0.11245  1.0000 0.5169569089
C   C198      1.0  0.53369  0.17693  0.17693  1.0000 0.5139420398
C   C199      1.0  0.17693  0.17693  0.53369  1.0000 0.5169569089
C   C200      1.0  0.53369  0.11245  0.17693  1.0000 0.5169569089
C   C201      1.0  0.11245  0.53369  0.17693  1.0000 0.5169569089
C   C202      1.0  0.11245  0.17693  0.53369  1.0000 0.5139420398
C   C203      1.0  0.17693  0.53369  0.17693  1.0000 0.5139420398
C   C204      1.0  0.53369  0.17693  0.11245  1.0000 0.5139420398
C   C205      1.0  0.88755  0.82307  0.46631  1.0000 0.5169569089
C   C206      1.0  0.82307  0.46631  0.82307  1.0000 0.5169569089
C   C207      1.0  0.46631  0.82307  0.88755  1.0000 0.5169569089
C   C208      1.0  0.46631  0.88755  0.82307  1.0000 0.5169569089
C   C209      1.0  0.82307  0.82307  0.46631  1.0000 0.5169569089
C   C210      1.0  0.88755  0.46631  0.82307  1.0000 0.5169569089
C   C211      1.0  0.82307  0.46631  0.88755  1.0000 0.5169569089
C   C212      1.0  0.46631  0.82307  0.82307  1.0000 0.5169569089
C   C213      1.0  0.82307  0.88755  0.46631  1.0000 0.5169569089
C   C214      1.0  0.11245  0.17693  0.17693  1.0000 0.5139420398
C   C215      1.0  0.17693  0.17693  0.11245  1.0000 0.5169569089
C   C216      1.0  0.17693  0.11245  0.17693  1.0000 0.5169569089
N   N1        1.0  0.78179  0.90743  0.84337  1.0000 -0.4529928102
N   N2        1.0  0.84337  0.78179  0.90743  1.0000 -0.4555542998
N   N3        1.0  0.90743  0.84337  0.78179  1.0000 -0.4529928102
N   N4        1.0  0.21821  0.09257  0.53259  1.0000 -0.4529928102
N   N5        1.0  0.15663  0.53259  0.09257  1.0000 -0.4529928102
N   N6        1.0  0.53259  0.15663  0.21821  1.0000 -0.4529928102
N   N7        1.0  0.15663  0.21821  0.53259  1.0000 -0.4529928102
N   N8        1.0  0.53259  0.09257  0.15663  1.0000 -0.4529928102
N   N9        1.0  0.09257  0.53259  0.21821  1.0000 -0.4529928102
N   N10       1.0  0.09257  0.15663  0.53259  1.0000 -0.4529928102
N   N11       1.0  0.21821  0.53259  0.15663  1.0000 -0.4529928102
N   N12       1.0  0.53259  0.21821  0.09257  1.0000 -0.4529928102
N   N13       1.0  0.90743  0.78179  0.46741  1.0000 -0.4529928102
N   N14       1.0  0.84337  0.46741  0.78179  1.0000 -0.4529928102
N   N15       1.0  0.46741  0.84337  0.90743  1.0000 -0.4529928102
N   N16       1.0  0.46741  0.90743  0.78179  1.0000 -0.4529928102
N   N17       1.0  0.78179  0.84337  0.46741  1.0000 -0.4529928102
N   N18       1.0  0.90743  0.46741  0.84337  1.0000 -0.4529928102
N   N19       1.0  0.78179  0.46741  0.90743  1.0000 -0.4529928102
N   N20       1.0  0.46741  0.78179  0.84337  1.0000 -0.4529928102
N   N21       1.0  0.84337  0.90743  0.46741  1.0000 -0.4529928102
N   N22       1.0  0.09257  0.21821  0.15663  1.0000 -0.4529928102
N   N23       1.0  0.21821  0.15663  0.09257  1.0000 -0.4529928102
N   N24       1.0  0.15663  0.09257  0.21821  1.0000 -0.4529928102
N   N25       1.0  0.21821  0.09257  0.15663  1.0000 -0.4529928102
N   N26       1.0  0.15663  0.21821  0.09257  1.0000 -0.4529928102
N   N27       1.0  0.09257  0.15663  0.21821  1.0000 -0.4529928102
N   N28       1.0  0.78179  0.90743  0.46741  1.0000 -0.4529928102
N   N29       1.0  0.84337  0.46741  0.90743  1.0000 -0.4529928102
N   N30       1.0  0.46741  0.84337  0.78179  1.0000 -0.4529928102
N   N31       1.0  0.84337  0.78179  0.46741  1.0000 -0.4529928102
N   N32       1.0  0.46741  0.90743  0.84337  1.0000 -0.4529928102
N   N33       1.0  0.90743  0.46741  0.78179  1.0000 -0.4529928102
N   N34       1.0  0.90743  0.84337  0.46741  1.0000 -0.4529928102
N   N35       1.0  0.78179  0.46741  0.84337  1.0000 -0.4529928102
N   N36       1.0  0.46741  0.78179  0.90743  1.0000 -0.4529928102
N   N37       1.0  0.09257  0.21821  0.53259  1.0000 -0.4529928102
N   N38       1.0  0.15663  0.53259  0.21821  1.0000 -0.4529928102
N   N39       1.0  0.53259  0.15663  0.09257  1.0000 -0.4529928102
N   N40       1.0  0.53259  0.09257  0.21821  1.0000 -0.4529928102
N   N41       1.0  0.21821  0.15663  0.53259  1.0000 -0.4529928102
N   N42       1.0  0.09257  0.53259  0.15663  1.0000 -0.4555542998
N   N43       1.0  0.21821  0.53259  0.09257  1.0000 -0.4529928102
N   N44       1.0  0.53259  0.21821  0.15663  1.0000 -0.4529928102
N   N45       1.0  0.15663  0.09257  0.53259  1.0000 -0.4529928102
N   N46       1.0  0.90743  0.78179  0.84337  1.0000 -0.4529928102
N   N47       1.0  0.78179  0.84337  0.90743  1.0000 -0.4529928102
N   N48       1.0  0.84337  0.90743  0.78179  1.0000 -0.4529928102
N   N49       1.0  0.84478  0.84478  0.84478  1.0000 -0.3030234409
N   N50       1.0  0.15522  0.15522  0.53434  1.0000 -0.3075843565
N   N51       1.0  0.15522  0.53434  0.15522  1.0000 -0.3075843565
N   N52       1.0  0.53434  0.15522  0.15522  1.0000 -0.3075843565
N   N53       1.0  0.84478  0.84478  0.46566  1.0000 -0.3030234409
N   N54       1.0  0.84478  0.46566  0.84478  1.0000 -0.3075843565
N   N55       1.0  0.46566  0.84478  0.84478  1.0000 -0.3030234409
N   N56       1.0  0.15522  0.15522  0.15522  1.0000 -0.3075843565
O   O1        1.0  0.56320  0.94438  0.00358  1.0000 -0.4972942982
O   O2        1.0  0.00358  0.56320  0.94438  1.0000 -0.4972942982
O   O3        1.0  0.94438  0.00358  0.56320  1.0000 -0.4972942982
O   O4        1.0  0.43680  0.05562  0.51116  1.0000 -0.4972942982
O   O5        1.0  0.99642  0.51116  0.05562  1.0000 -0.4972942982
O   O6        1.0  0.51116  0.99642  0.43680  1.0000 -0.4972942982
O   O7        1.0  0.99642  0.43680  0.51116  1.0000 -0.4972942982
O   O8        1.0  0.51116  0.05562  0.99642  1.0000 -0.4972942982
O   O9        1.0  0.05562  0.51116  0.43680  1.0000 -0.4972942982
O   O10       1.0  0.05562  0.99642  0.51116  1.0000 -0.4972942982
O   O11       1.0  0.43680  0.51116  0.99642  1.0000 -0.4972942982
O   O12       1.0  0.51116  0.43680  0.05562  1.0000 -0.4972942982
O   O13       1.0  0.94438  0.56320  0.48884  1.0000 -0.4972942982
O   O14       1.0  0.00358  0.48884  0.56320  1.0000 -0.4972942982
O   O15       1.0  0.48884  0.00358  0.94438  1.0000 -0.4972942982
O   O16       1.0  0.48884  0.94438  0.56320  1.0000 -0.4972942982
O   O17       1.0  0.56320  0.00358  0.48884  1.0000 -0.4972942982
O   O18       1.0  0.94438  0.48884  0.00358  1.0000 -0.4972942982
O   O19       1.0  0.56320  0.48884  0.94438  1.0000 -0.4972942982
O   O20       1.0  0.48884  0.56320  0.00358  1.0000 -0.4972942982
O   O21       1.0  0.00358  0.94438  0.48884  1.0000 -0.4972942982
O   O22       1.0  0.05562  0.43680  0.99642  1.0000 -0.4972942982
O   O23       1.0  0.43680  0.99642  0.05562  1.0000 -0.4972942982
O   O24       1.0  0.99642  0.05562  0.43680  1.0000 -0.4972942982
O   O25       1.0  0.43680  0.05562  0.99642  1.0000 -0.4972942982
O   O26       1.0  0.99642  0.43680  0.05562  1.0000 -0.4972942982
O   O27       1.0  0.05562  0.99642  0.43680  1.0000 -0.4972942982
O   O28       1.0  0.56320  0.94438  0.48884  1.0000 -0.4972942982
O   O29       1.0  0.00358  0.48884  0.94438  1.0000 -0.4972942982
O   O30       1.0  0.48884  0.00358  0.56320  1.0000 -0.4972942982
O   O31       1.0  0.00358  0.56320  0.48884  1.0000 -0.4972942982
O   O32       1.0  0.48884  0.94438  0.00358  1.0000 -0.4972942982
O   O33       1.0  0.94438  0.48884  0.56320  1.0000 -0.4972942982
O   O34       1.0  0.94438  0.00358  0.48884  1.0000 -0.4972942982
O   O35       1.0  0.56320  0.48884  0.00358  1.0000 -0.4972942982
O   O36       1.0  0.48884  0.56320  0.94438  1.0000 -0.4972942982
O   O37       1.0  0.05562  0.43680  0.51116  1.0000 -0.4972942982
O   O38       1.0  0.99642  0.51116  0.43680  1.0000 -0.4972942982
O   O39       1.0  0.51116  0.99642  0.05562  1.0000 -0.4972942982
O   O40       1.0  0.51116  0.05562  0.43680  1.0000 -0.4972942982
O   O41       1.0  0.43680  0.99642  0.51116  1.0000 -0.4972942982
O   O42       1.0  0.05562  0.51116  0.99642  1.0000 -0.4972942982
O   O43       1.0  0.43680  0.51116  0.05562  1.0000 -0.4972942982
O   O44       1.0  0.51116  0.43680  0.99642  1.0000 -0.4972942982
O   O45       1.0  0.99642  0.05562  0.51116  1.0000 -0.4972942982
O   O46       1.0  0.94438  0.56320  0.00358  1.0000 -0.4972942982
O   O47       1.0  0.56320  0.00358  0.94438  1.0000 -0.4972942982
O   O48       1.0  0.00358  0.94438  0.56320  1.0000 -0.4972942982
