# DDEC6 charges by PACMAN v1.1 (https://github.com/mtap-research/PACMAN-charge/)
data_2007[Cu][tbo]3[ASR]1
_chemical_formula_sum              "Cu12 H96 C192 N24 O48"
_cell_length_a       32.9766
_cell_length_b       32.9766
_cell_length_c       32.9766
_cell_angle_alpha    60
_cell_angle_beta     60
_cell_angle_gamma    60

_symmetry_space_group_name_H-M    "P 1"
_symmetry_Int_Tables_number       1

loop_
  _symmetry_equiv_pos_as_xyz
  'x, y, z'

loop_
  _atom_site_type_symbol
  _atom_site_label
  _atom_site_symmetry_multiplicity
  _atom_site_fract_x
  _atom_site_fract_y
  _atom_site_fract_z
  _atom_site_occupancy
  _atom_site_charge
Cu  Cu1       1.0  0.50000  0.04028  0.50000  1.0000 0.8166119416
Cu  Cu2       1.0  0.50000  0.50000  0.04028  1.0000 0.8166119416
Cu  Cu3       1.0  0.04028  0.50000  0.50000  1.0000 0.8166119416
Cu  Cu4       1.0  0.50000  0.95972  0.04028  1.0000 0.8166119416
Cu  Cu5       1.0  0.50000  0.04028  0.95972  1.0000 0.8166119416
Cu  Cu6       1.0  0.04028  0.95972  0.50000  1.0000 0.8166119416
Cu  Cu7       1.0  0.95972  0.04028  0.50000  1.0000 0.8166119416
Cu  Cu8       1.0  0.95972  0.50000  0.04028  1.0000 0.8166119416
Cu  Cu9       1.0  0.04028  0.50000  0.95972  1.0000 0.8166119416
Cu  Cu10      1.0  0.50000  0.95972  0.50000  1.0000 0.8166119416
Cu  Cu11      1.0  0.50000  0.50000  0.95972  1.0000 0.8166119416
Cu  Cu12      1.0  0.95972  0.50000  0.50000  1.0000 0.8166119416
H   H1        1.0  0.34550  0.00390  0.52390  1.0000 0.1291259815
H   H2        1.0  0.52390  0.34550  0.00390  1.0000 0.1291259815
H   H3        1.0  0.00390  0.52390  0.34550  1.0000 0.1291259815
H   H4        1.0  0.65450  0.99610  0.87330  1.0000 0.1291259815
H   H5        1.0  0.47610  0.87330  0.99610  1.0000 0.1291259815
H   H6        1.0  0.87330  0.47610  0.65450  1.0000 0.1291259815
H   H7        1.0  0.47610  0.65450  0.87330  1.0000 0.1291259815
H   H8        1.0  0.87330  0.99610  0.47610  1.0000 0.1291259815
H   H9        1.0  0.99610  0.87330  0.65450  1.0000 0.1291259815
H   H10       1.0  0.99610  0.47610  0.87330  1.0000 0.1291259815
H   H11       1.0  0.65450  0.87330  0.47610  1.0000 0.1291259815
H   H12       1.0  0.87330  0.65450  0.99610  1.0000 0.1291259815
H   H13       1.0  0.00390  0.34550  0.12670  1.0000 0.1291259815
H   H14       1.0  0.52390  0.12670  0.34550  1.0000 0.1291259815
H   H15       1.0  0.12670  0.52390  0.00390  1.0000 0.1291259815
H   H16       1.0  0.12670  0.00390  0.34550  1.0000 0.1291259815
H   H17       1.0  0.34550  0.52390  0.12670  1.0000 0.1291259815
H   H18       1.0  0.00390  0.12670  0.52390  1.0000 0.1291259815
H   H19       1.0  0.34550  0.12670  0.00390  1.0000 0.1291259815
H   H20       1.0  0.12670  0.34550  0.52390  1.0000 0.1291259815
H   H21       1.0  0.52390  0.00390  0.12670  1.0000 0.1291259815
H   H22       1.0  0.99610  0.65450  0.47610  1.0000 0.1291259815
H   H23       1.0  0.65450  0.47610  0.99610  1.0000 0.1291259815
H   H24       1.0  0.47610  0.99610  0.65450  1.0000 0.1291259815
H   H25       1.0  0.65450  0.99610  0.47610  1.0000 0.1291259815
H   H26       1.0  0.47610  0.65450  0.99610  1.0000 0.1291259815
H   H27       1.0  0.99610  0.47610  0.65450  1.0000 0.1291259815
H   H28       1.0  0.34550  0.00390  0.12670  1.0000 0.1291259815
H   H29       1.0  0.52390  0.12670  0.00390  1.0000 0.1291259815
H   H30       1.0  0.12670  0.52390  0.34550  1.0000 0.1291259815
H   H31       1.0  0.52390  0.34550  0.12670  1.0000 0.1291259815
H   H32       1.0  0.12670  0.00390  0.52390  1.0000 0.1291259815
H   H33       1.0  0.00390  0.12670  0.34550  1.0000 0.1291259815
H   H34       1.0  0.00390  0.52390  0.12670  1.0000 0.1291259815
H   H35       1.0  0.34550  0.12670  0.52390  1.0000 0.1291259815
H   H36       1.0  0.12670  0.34550  0.00390  1.0000 0.1291259815
H   H37       1.0  0.99610  0.65450  0.87330  1.0000 0.1291259815
H   H38       1.0  0.47610  0.87330  0.65450  1.0000 0.1291259815
H   H39       1.0  0.87330  0.47610  0.99610  1.0000 0.1291259815
H   H40       1.0  0.87330  0.99610  0.65450  1.0000 0.1291259815
H   H41       1.0  0.65450  0.47610  0.87330  1.0000 0.1291259815
H   H42       1.0  0.99610  0.87330  0.47610  1.0000 0.1291259815
H   H43       1.0  0.65450  0.87330  0.99610  1.0000 0.1291259815
H   H44       1.0  0.87330  0.65450  0.47610  1.0000 0.1291259815
H   H45       1.0  0.47610  0.99610  0.87330  1.0000 0.1291259815
H   H46       1.0  0.00390  0.34550  0.52390  1.0000 0.1291259815
H   H47       1.0  0.34550  0.52390  0.00390  1.0000 0.1291259815
H   H48       1.0  0.52390  0.00390  0.34550  1.0000 0.1291259815
H   H49       1.0  0.26270  0.04390  0.52770  1.0000 0.1184555973
H   H50       1.0  0.52770  0.26270  0.04390  1.0000 0.1184555973
H   H51       1.0  0.04390  0.52770  0.26270  1.0000 0.1184555973
H   H52       1.0  0.73730  0.95610  0.83430  1.0000 0.1184555973
H   H53       1.0  0.47230  0.83430  0.95610  1.0000 0.1184555973
H   H54       1.0  0.83430  0.47230  0.73730  1.0000 0.1184555973
H   H55       1.0  0.47230  0.73730  0.83430  1.0000 0.1184555973
H   H56       1.0  0.83430  0.95610  0.47230  1.0000 0.1184555973
H   H57       1.0  0.95610  0.83430  0.73730  1.0000 0.1184555973
H   H58       1.0  0.95610  0.47230  0.83430  1.0000 0.1184555973
H   H59       1.0  0.73730  0.83430  0.47230  1.0000 0.1184555973
H   H60       1.0  0.83430  0.73730  0.95610  1.0000 0.1184555973
H   H61       1.0  0.04390  0.26270  0.16570  1.0000 0.1184555973
H   H62       1.0  0.52770  0.16570  0.26270  1.0000 0.1184555973
H   H63       1.0  0.16570  0.52770  0.04390  1.0000 0.1184555973
H   H64       1.0  0.16570  0.04390  0.26270  1.0000 0.1184555973
H   H65       1.0  0.26270  0.52770  0.16570  1.0000 0.1184555973
H   H66       1.0  0.04390  0.16570  0.52770  1.0000 0.1184555973
H   H67       1.0  0.26270  0.16570  0.04390  1.0000 0.1184555973
H   H68       1.0  0.16570  0.26270  0.52770  1.0000 0.1184555973
H   H69       1.0  0.52770  0.04390  0.16570  1.0000 0.1184555973
H   H70       1.0  0.95610  0.73730  0.47230  1.0000 0.1184555973
H   H71       1.0  0.73730  0.47230  0.95610  1.0000 0.1184555973
H   H72       1.0  0.47230  0.95610  0.73730  1.0000 0.1184555973
H   H73       1.0  0.73730  0.95610  0.47230  1.0000 0.1184555973
H   H74       1.0  0.47230  0.73730  0.95610  1.0000 0.1184555973
H   H75       1.0  0.95610  0.47230  0.73730  1.0000 0.1184555973
H   H76       1.0  0.26270  0.04390  0.16570  1.0000 0.1184555973
H   H77       1.0  0.52770  0.16570  0.04390  1.0000 0.1184555973
H   H78       1.0  0.16570  0.52770  0.26270  1.0000 0.1184555973
H   H79       1.0  0.52770  0.26270  0.16570  1.0000 0.1184555973
H   H80       1.0  0.16570  0.04390  0.52770  1.0000 0.1184555973
H   H81       1.0  0.04390  0.16570  0.26270  1.0000 0.1184555973
H   H82       1.0  0.04390  0.52770  0.16570  1.0000 0.1184555973
H   H83       1.0  0.26270  0.16570  0.52770  1.0000 0.1184555973
H   H84       1.0  0.16570  0.26270  0.04390  1.0000 0.1184555973
H   H85       1.0  0.95610  0.73730  0.83430  1.0000 0.1184555973
H   H86       1.0  0.47230  0.83430  0.73730  1.0000 0.1184555973
H   H87       1.0  0.83430  0.47230  0.95610  1.0000 0.1184555973
H   H88       1.0  0.83430  0.95610  0.73730  1.0000 0.1184555973
H   H89       1.0  0.73730  0.47230  0.83430  1.0000 0.1184555973
H   H90       1.0  0.95610  0.83430  0.47230  1.0000 0.1184555973
H   H91       1.0  0.73730  0.83430  0.95610  1.0000 0.1184555973
H   H92       1.0  0.83430  0.73730  0.47230  1.0000 0.1184555973
H   H93       1.0  0.47230  0.95610  0.83430  1.0000 0.1184555973
H   H94       1.0  0.04390  0.26270  0.52770  1.0000 0.1184555973
H   H95       1.0  0.26270  0.52770  0.04390  1.0000 0.1184555973
H   H96       1.0  0.52770  0.04390  0.26270  1.0000 0.1184555973
C   C1        1.0  0.41046  0.03820  0.51314  1.0000 0.5559173551
C   C2        1.0  0.51314  0.41046  0.03820  1.0000 0.5559173551
C   C3        1.0  0.03820  0.51314  0.41046  1.0000 0.5559173551
C   C4        1.0  0.58954  0.96180  0.96180  1.0000 0.5559173551
C   C5        1.0  0.48686  0.96180  0.96180  1.0000 0.5559173551
C   C6        1.0  0.96180  0.48686  0.58954  1.0000 0.5559173551
C   C7        1.0  0.48686  0.58954  0.96180  1.0000 0.5559173551
C   C8        1.0  0.96180  0.96180  0.48686  1.0000 0.5559173551
C   C9        1.0  0.96180  0.96180  0.58954  1.0000 0.5559173551
C   C10       1.0  0.96180  0.48686  0.96180  1.0000 0.5559173551
C   C11       1.0  0.58954  0.96180  0.48686  1.0000 0.5559173551
C   C12       1.0  0.96180  0.58954  0.96180  1.0000 0.5559173551
C   C13       1.0  0.03820  0.41046  0.03820  1.0000 0.5559173551
C   C14       1.0  0.51314  0.03820  0.41046  1.0000 0.5534861792
C   C15       1.0  0.03820  0.51314  0.03820  1.0000 0.5559173551
C   C16       1.0  0.03820  0.03820  0.41046  1.0000 0.5559173551
C   C17       1.0  0.41046  0.51314  0.03820  1.0000 0.5559173551
C   C18       1.0  0.03820  0.03820  0.51314  1.0000 0.5559173551
C   C19       1.0  0.41046  0.03820  0.03820  1.0000 0.5559173551
C   C20       1.0  0.03820  0.41046  0.51314  1.0000 0.5534861792
C   C21       1.0  0.51314  0.03820  0.03820  1.0000 0.5559173551
C   C22       1.0  0.96180  0.58954  0.48686  1.0000 0.5559173551
C   C23       1.0  0.58954  0.48686  0.96180  1.0000 0.5559173551
C   C24       1.0  0.48686  0.96180  0.58954  1.0000 0.5559173551
C   C25       1.0  0.35493  0.06255  0.51997  1.0000 -0.0182980969
C   C26       1.0  0.51997  0.35493  0.06255  1.0000 -0.0182980969
C   C27       1.0  0.06255  0.51997  0.35493  1.0000 -0.0182980969
C   C28       1.0  0.64507  0.93745  0.93745  1.0000 -0.0182980969
C   C29       1.0  0.48003  0.93745  0.93745  1.0000 -0.0182980969
C   C30       1.0  0.93745  0.48003  0.64507  1.0000 -0.0182980969
C   C31       1.0  0.48003  0.64507  0.93745  1.0000 -0.0182980969
C   C32       1.0  0.93745  0.93745  0.48003  1.0000 -0.0182980969
C   C33       1.0  0.93745  0.93745  0.64507  1.0000 -0.0182980969
C   C34       1.0  0.93745  0.48003  0.93745  1.0000 -0.0182980969
C   C35       1.0  0.64507  0.93745  0.48003  1.0000 -0.0182980969
C   C36       1.0  0.93745  0.64507  0.93745  1.0000 -0.0182980969
C   C37       1.0  0.06255  0.35493  0.06255  1.0000 -0.0182980969
C   C38       1.0  0.51997  0.06255  0.35493  1.0000 -0.0182980969
C   C39       1.0  0.06255  0.51997  0.06255  1.0000 -0.0182980969
C   C40       1.0  0.06255  0.06255  0.35493  1.0000 -0.0182980969
C   C41       1.0  0.35493  0.51997  0.06255  1.0000 -0.0182980969
C   C42       1.0  0.06255  0.06255  0.51997  1.0000 -0.0182980969
C   C43       1.0  0.35493  0.06255  0.06255  1.0000 -0.0182980969
C   C44       1.0  0.06255  0.35493  0.51997  1.0000 -0.0182980969
C   C45       1.0  0.51997  0.06255  0.06255  1.0000 -0.0182980969
C   C46       1.0  0.93745  0.64507  0.48003  1.0000 -0.0182980969
C   C47       1.0  0.64507  0.48003  0.93745  1.0000 -0.0182980969
C   C48       1.0  0.48003  0.93745  0.64507  1.0000 -0.0182980969
C   C49       1.0  0.32923  0.03693  0.52363  1.0000 -0.0846057757
C   C50       1.0  0.52363  0.32923  0.03693  1.0000 -0.0846057757
C   C51       1.0  0.03693  0.52363  0.32923  1.0000 -0.0846057757
C   C52       1.0  0.67077  0.96307  0.88979  1.0000 -0.0846057757
C   C53       1.0  0.47637  0.88979  0.96307  1.0000 -0.0858898481
C   C54       1.0  0.88979  0.47637  0.67077  1.0000 -0.0846057757
C   C55       1.0  0.47637  0.67077  0.88979  1.0000 -0.0846057757
C   C56       1.0  0.88979  0.96307  0.47637  1.0000 -0.0846057757
C   C57       1.0  0.96307  0.88979  0.67077  1.0000 -0.0846057757
C   C58       1.0  0.96307  0.47637  0.88979  1.0000 -0.0846057757
C   C59       1.0  0.67077  0.88979  0.47637  1.0000 -0.0846057757
C   C60       1.0  0.88979  0.67077  0.96307  1.0000 -0.0846057757
C   C61       1.0  0.03693  0.32923  0.11021  1.0000 -0.0858898481
C   C62       1.0  0.52363  0.11021  0.32923  1.0000 -0.0858898481
C   C63       1.0  0.11021  0.52363  0.03693  1.0000 -0.0858898481
C   C64       1.0  0.11021  0.03693  0.32923  1.0000 -0.0858898481
C   C65       1.0  0.32923  0.52363  0.11021  1.0000 -0.0846057757
C   C66       1.0  0.03693  0.11021  0.52363  1.0000 -0.0858898481
C   C67       1.0  0.32923  0.11021  0.03693  1.0000 -0.0858898481
C   C68       1.0  0.11021  0.32923  0.52363  1.0000 -0.0858898481
C   C69       1.0  0.52363  0.03693  0.11021  1.0000 -0.0858898481
C   C70       1.0  0.96307  0.67077  0.47637  1.0000 -0.0846057757
C   C71       1.0  0.67077  0.47637  0.96307  1.0000 -0.0846057757
C   C72       1.0  0.47637  0.96307  0.67077  1.0000 -0.0846057757
C   C73       1.0  0.67077  0.96307  0.47637  1.0000 -0.0846057757
C   C74       1.0  0.47637  0.67077  0.96307  1.0000 -0.0858898481
C   C75       1.0  0.96307  0.47637  0.67077  1.0000 -0.0846057757
C   C76       1.0  0.32923  0.03693  0.11021  1.0000 -0.0858898481
C   C77       1.0  0.52363  0.11021  0.03693  1.0000 -0.0846057757
C   C78       1.0  0.11021  0.52363  0.32923  1.0000 -0.0858898481
C   C79       1.0  0.52363  0.32923  0.11021  1.0000 -0.0858898481
C   C80       1.0  0.11021  0.03693  0.52363  1.0000 -0.0858898481
C   C81       1.0  0.03693  0.11021  0.32923  1.0000 -0.0858898481
C   C82       1.0  0.03693  0.52363  0.11021  1.0000 -0.0858898481
C   C83       1.0  0.32923  0.11021  0.52363  1.0000 -0.0846057757
C   C84       1.0  0.11021  0.32923  0.03693  1.0000 -0.0858898481
C   C85       1.0  0.96307  0.67077  0.88979  1.0000 -0.0846057757
C   C86       1.0  0.47637  0.88979  0.67077  1.0000 -0.0846057757
C   C87       1.0  0.88979  0.47637  0.96307  1.0000 -0.0846057757
C   C88       1.0  0.88979  0.96307  0.67077  1.0000 -0.0846057757
C   C89       1.0  0.67077  0.47637  0.88979  1.0000 -0.0846057757
C   C90       1.0  0.96307  0.88979  0.47637  1.0000 -0.0846057757
C   C91       1.0  0.67077  0.88979  0.96307  1.0000 -0.0846057757
C   C92       1.0  0.88979  0.67077  0.47637  1.0000 -0.0846057757
C   C93       1.0  0.47637  0.96307  0.88979  1.0000 -0.0858898481
C   C94       1.0  0.03693  0.32923  0.52363  1.0000 -0.0858898481
C   C95       1.0  0.32923  0.52363  0.03693  1.0000 -0.0858898481
C   C96       1.0  0.52363  0.03693  0.32923  1.0000 -0.0858898481
C   C97       1.0  0.27957  0.06057  0.52671  1.0000 -0.1175627445
C   C98       1.0  0.52671  0.27957  0.06057  1.0000 -0.1175627445
C   C99       1.0  0.06057  0.52671  0.27957  1.0000 -0.1175627445
C   C100      1.0  0.72043  0.93943  0.86685  1.0000 -0.1175627445
C   C101      1.0  0.47329  0.86685  0.93943  1.0000 -0.1175627445
C   C102      1.0  0.86685  0.47329  0.72043  1.0000 -0.1175627445
C   C103      1.0  0.47329  0.72043  0.86685  1.0000 -0.1175627445
C   C104      1.0  0.86685  0.93943  0.47329  1.0000 -0.1175627445
C   C105      1.0  0.93943  0.86685  0.72043  1.0000 -0.1175627445
C   C106      1.0  0.93943  0.47329  0.86685  1.0000 -0.1175627445
C   C107      1.0  0.72043  0.86685  0.47329  1.0000 -0.1175627445
C   C108      1.0  0.86685  0.72043  0.93943  1.0000 -0.1175627445
C   C109      1.0  0.06057  0.27957  0.13315  1.0000 -0.1175627445
C   C110      1.0  0.52671  0.13315  0.27957  1.0000 -0.1175627445
C   C111      1.0  0.13315  0.52671  0.06057  1.0000 -0.1175627445
C   C112      1.0  0.13315  0.06057  0.27957  1.0000 -0.1175627445
C   C113      1.0  0.27957  0.52671  0.13315  1.0000 -0.1175627445
C   C114      1.0  0.06057  0.13315  0.52671  1.0000 -0.1175627445
C   C115      1.0  0.27957  0.13315  0.06057  1.0000 -0.1175627445
C   C116      1.0  0.13315  0.27957  0.52671  1.0000 -0.1175627445
C   C117      1.0  0.52671  0.06057  0.13315  1.0000 -0.1175627445
C   C118      1.0  0.93943  0.72043  0.47329  1.0000 -0.1175627445
C   C119      1.0  0.72043  0.47329  0.93943  1.0000 -0.1175627445
C   C120      1.0  0.47329  0.93943  0.72043  1.0000 -0.1175627445
C   C121      1.0  0.72043  0.93943  0.47329  1.0000 -0.1175627445
C   C122      1.0  0.47329  0.72043  0.93943  1.0000 -0.1175627445
C   C123      1.0  0.93943  0.47329  0.72043  1.0000 -0.1175627445
C   C124      1.0  0.27957  0.06057  0.13315  1.0000 -0.1175627445
C   C125      1.0  0.52671  0.13315  0.06057  1.0000 -0.1175627445
C   C126      1.0  0.13315  0.52671  0.27957  1.0000 -0.1175627445
C   C127      1.0  0.52671  0.27957  0.13315  1.0000 -0.1175627445
C   C128      1.0  0.13315  0.06057  0.52671  1.0000 -0.1175627445
C   C129      1.0  0.06057  0.13315  0.27957  1.0000 -0.1175627445
C   C130      1.0  0.06057  0.52671  0.13315  1.0000 -0.1175627445
C   C131      1.0  0.27957  0.13315  0.52671  1.0000 -0.1175627445
C   C132      1.0  0.13315  0.27957  0.06057  1.0000 -0.1175627445
C   C133      1.0  0.93943  0.72043  0.86685  1.0000 -0.1175627445
C   C134      1.0  0.47329  0.86685  0.72043  1.0000 -0.1175627445
C   C135      1.0  0.86685  0.47329  0.93943  1.0000 -0.1175627445
C   C136      1.0  0.86685  0.93943  0.72043  1.0000 -0.1175627445
C   C137      1.0  0.72043  0.47329  0.86685  1.0000 -0.1175627445
C   C138      1.0  0.93943  0.86685  0.47329  1.0000 -0.1175627445
C   C139      1.0  0.72043  0.86685  0.93943  1.0000 -0.1175627445
C   C140      1.0  0.86685  0.72043  0.47329  1.0000 -0.1175627445
C   C141      1.0  0.47329  0.93943  0.86685  1.0000 -0.1175627445
C   C142      1.0  0.06057  0.27957  0.52671  1.0000 -0.1175627445
C   C143      1.0  0.27957  0.52671  0.06057  1.0000 -0.1175627445
C   C144      1.0  0.52671  0.06057  0.27957  1.0000 -0.1175627445
C   C145      1.0  0.25486  0.10834  0.52846  1.0000 0.0333948047
C   C146      1.0  0.52846  0.25486  0.10834  1.0000 0.0333948047
C   C147      1.0  0.10834  0.52846  0.25486  1.0000 0.0333948047
C   C148      1.0  0.74514  0.89166  0.89166  1.0000 0.0333948047
C   C149      1.0  0.47154  0.89166  0.89166  1.0000 0.0333948047
C   C150      1.0  0.89166  0.47154  0.74514  1.0000 0.0361011919
C   C151      1.0  0.47154  0.74514  0.89166  1.0000 0.0333948047
C   C152      1.0  0.89166  0.89166  0.47154  1.0000 0.0333948047
C   C153      1.0  0.89166  0.89166  0.74514  1.0000 0.0333948047
C   C154      1.0  0.89166  0.47154  0.89166  1.0000 0.0333948047
C   C155      1.0  0.74514  0.89166  0.47154  1.0000 0.0333948047
C   C156      1.0  0.89166  0.74514  0.89166  1.0000 0.0333948047
C   C157      1.0  0.10834  0.25486  0.10834  1.0000 0.0333948047
C   C158      1.0  0.52846  0.10834  0.25486  1.0000 0.0333948047
C   C159      1.0  0.10834  0.52846  0.10834  1.0000 0.0333948047
C   C160      1.0  0.10834  0.10834  0.25486  1.0000 0.0333948047
C   C161      1.0  0.25486  0.52846  0.10834  1.0000 0.0333948047
C   C162      1.0  0.10834  0.10834  0.52846  1.0000 0.0333948047
C   C163      1.0  0.25486  0.10834  0.10834  1.0000 0.0333948047
C   C164      1.0  0.10834  0.25486  0.52846  1.0000 0.0333948047
C   C165      1.0  0.52846  0.10834  0.10834  1.0000 0.0333948047
C   C166      1.0  0.89166  0.74514  0.47154  1.0000 0.0333948047
C   C167      1.0  0.74514  0.47154  0.89166  1.0000 0.0333948047
C   C168      1.0  0.47154  0.89166  0.74514  1.0000 0.0333948047
C   C169      1.0  0.20096  0.13362  0.53180  1.0000 0.3627408786
C   C170      1.0  0.53180  0.20096  0.13362  1.0000 0.3627408786
C   C171      1.0  0.13362  0.53180  0.20096  1.0000 0.3627408786
C   C172      1.0  0.79904  0.86638  0.86638  1.0000 0.3627408786
C   C173      1.0  0.46820  0.86638  0.86638  1.0000 0.365185957
C   C174      1.0  0.86638  0.46820  0.79904  1.0000 0.3627408786
C   C175      1.0  0.46820  0.79904  0.86638  1.0000 0.3627408786
C   C176      1.0  0.86638  0.86638  0.46820  1.0000 0.3627408786
C   C177      1.0  0.86638  0.86638  0.79904  1.0000 0.3627408786
C   C178      1.0  0.86638  0.46820  0.86638  1.0000 0.3627408786
C   C179      1.0  0.79904  0.86638  0.46820  1.0000 0.3627408786
C   C180      1.0  0.86638  0.79904  0.86638  1.0000 0.3627408786
C   C181      1.0  0.13362  0.20096  0.13362  1.0000 0.3627408786
C   C182      1.0  0.53180  0.13362  0.20096  1.0000 0.3627408786
C   C183      1.0  0.13362  0.53180  0.13362  1.0000 0.3627408786
C   C184      1.0  0.13362  0.13362  0.20096  1.0000 0.3627408786
C   C185      1.0  0.20096  0.53180  0.13362  1.0000 0.3627408786
C   C186      1.0  0.13362  0.13362  0.53180  1.0000 0.3627408786
C   C187      1.0  0.20096  0.13362  0.13362  1.0000 0.3627408786
C   C188      1.0  0.13362  0.20096  0.53180  1.0000 0.3627408786
C   C189      1.0  0.53180  0.13362  0.13362  1.0000 0.3627408786
C   C190      1.0  0.86638  0.79904  0.46820  1.0000 0.3627408786
C   C191      1.0  0.79904  0.46820  0.86638  1.0000 0.3627408786
C   C192      1.0  0.46820  0.86638  0.79904  1.0000 0.3627408786
N   N1        1.0  0.18000  0.10856  0.53144  1.0000 -0.4301843299
N   N2        1.0  0.53144  0.18000  0.10856  1.0000 -0.4301843299
N   N3        1.0  0.10856  0.53144  0.18000  1.0000 -0.4301843299
N   N4        1.0  0.82000  0.89144  0.82000  1.0000 -0.4301843299
N   N5        1.0  0.46856  0.82000  0.89144  1.0000 -0.4301843299
N   N6        1.0  0.82000  0.46856  0.82000  1.0000 -0.4301843299
N   N7        1.0  0.46856  0.82000  0.82000  1.0000 -0.4301843299
N   N8        1.0  0.82000  0.89144  0.46856  1.0000 -0.4301843299
N   N9        1.0  0.89144  0.82000  0.82000  1.0000 -0.4301843299
N   N10       1.0  0.89144  0.46856  0.82000  1.0000 -0.4301843299
N   N11       1.0  0.82000  0.82000  0.46856  1.0000 -0.4301843299
N   N12       1.0  0.82000  0.82000  0.89144  1.0000 -0.4301843299
N   N13       1.0  0.10856  0.18000  0.18000  1.0000 -0.4301843299
N   N14       1.0  0.53144  0.18000  0.18000  1.0000 -0.4301843299
N   N15       1.0  0.18000  0.53144  0.10856  1.0000 -0.4301843299
N   N16       1.0  0.18000  0.10856  0.18000  1.0000 -0.4301843299
N   N17       1.0  0.18000  0.53144  0.18000  1.0000 -0.4301843299
N   N18       1.0  0.10856  0.18000  0.53144  1.0000 -0.4301843299
N   N19       1.0  0.18000  0.18000  0.10856  1.0000 -0.4301843299
N   N20       1.0  0.18000  0.18000  0.53144  1.0000 -0.4301843299
N   N21       1.0  0.53144  0.10856  0.18000  1.0000 -0.4301843299
N   N22       1.0  0.89144  0.82000  0.46856  1.0000 -0.4301843299
N   N23       1.0  0.82000  0.46856  0.89144  1.0000 -0.4301843299
N   N24       1.0  0.46856  0.89144  0.82000  1.0000 -0.4301843299
O   O1        1.0  0.42792  0.06358  0.51294  1.0000 -0.5007955914
O   O2        1.0  0.51294  0.42792  0.06358  1.0000 -0.5007955914
O   O3        1.0  0.06358  0.51294  0.42792  1.0000 -0.5007955914
O   O4        1.0  0.57208  0.93642  0.00444  1.0000 -0.5007955914
O   O5        1.0  0.48706  0.00444  0.93642  1.0000 -0.5007955914
O   O6        1.0  0.00444  0.48706  0.57208  1.0000 -0.5007955914
O   O7        1.0  0.48706  0.57208  0.00444  1.0000 -0.5007955914
O   O8        1.0  0.00444  0.93642  0.48706  1.0000 -0.5007955914
O   O9        1.0  0.93642  0.00444  0.57208  1.0000 -0.5007955914
O   O10       1.0  0.93642  0.48706  0.00444  1.0000 -0.5007955914
O   O11       1.0  0.57208  0.00444  0.48706  1.0000 -0.5007955914
O   O12       1.0  0.00444  0.57208  0.93642  1.0000 -0.5007955914
O   O13       1.0  0.06358  0.42792  0.99556  1.0000 -0.5007955914
O   O14       1.0  0.51294  0.99556  0.42792  1.0000 -0.5007955914
O   O15       1.0  0.99556  0.51294  0.06358  1.0000 -0.5007955914
O   O16       1.0  0.99556  0.06358  0.42792  1.0000 -0.5007955914
O   O17       1.0  0.42792  0.51294  0.99556  1.0000 -0.5007955914
O   O18       1.0  0.06358  0.99556  0.51294  1.0000 -0.5007955914
O   O19       1.0  0.42792  0.99556  0.06358  1.0000 -0.5007955914
O   O20       1.0  0.99556  0.42792  0.51294  1.0000 -0.5007955914
O   O21       1.0  0.51294  0.06358  0.99556  1.0000 -0.5007955914
O   O22       1.0  0.93642  0.57208  0.48706  1.0000 -0.5007955914
O   O23       1.0  0.57208  0.48706  0.93642  1.0000 -0.5007955914
O   O24       1.0  0.48706  0.93642  0.57208  1.0000 -0.5007955914
O   O25       1.0  0.57208  0.93642  0.48706  1.0000 -0.5007955914
O   O26       1.0  0.48706  0.57208  0.93642  1.0000 -0.5007955914
O   O27       1.0  0.93642  0.48706  0.57208  1.0000 -0.5007955914
O   O28       1.0  0.42792  0.06358  0.99556  1.0000 -0.5007955914
O   O29       1.0  0.51294  0.99556  0.06358  1.0000 -0.5007955914
O   O30       1.0  0.99556  0.51294  0.42792  1.0000 -0.5007955914
O   O31       1.0  0.51294  0.42792  0.99556  1.0000 -0.5007955914
O   O32       1.0  0.99556  0.06358  0.51294  1.0000 -0.5007955914
O   O33       1.0  0.06358  0.99556  0.42792  1.0000 -0.5007955914
O   O34       1.0  0.06358  0.51294  0.99556  1.0000 -0.5007955914
O   O35       1.0  0.42792  0.99556  0.51294  1.0000 -0.5007955914
O   O36       1.0  0.99556  0.42792  0.06358  1.0000 -0.5007955914
O   O37       1.0  0.93642  0.57208  0.00444  1.0000 -0.5007955914
O   O38       1.0  0.48706  0.00444  0.57208  1.0000 -0.5007955914
O   O39       1.0  0.00444  0.48706  0.93642  1.0000 -0.5007955914
O   O40       1.0  0.00444  0.93642  0.57208  1.0000 -0.5007955914
O   O41       1.0  0.57208  0.48706  0.00444  1.0000 -0.5007955914
O   O42       1.0  0.93642  0.00444  0.48706  1.0000 -0.5007955914
O   O43       1.0  0.57208  0.00444  0.93642  1.0000 -0.5007955914
O   O44       1.0  0.00444  0.57208  0.48706  1.0000 -0.5007955914
O   O45       1.0  0.48706  0.93642  0.00444  1.0000 -0.5007955914
O   O46       1.0  0.06358  0.42792  0.51294  1.0000 -0.5007955914
O   O47       1.0  0.42792  0.51294  0.06358  1.0000 -0.5007955914
O   O48       1.0  0.51294  0.06358  0.42792  1.0000 -0.5007955914
