# DDEC6 charges by PACMAN v1.1 (https://github.com/mtap-research/PACMAN-charge/)
data_2007[Co][nou]3[ASR]1
_chemical_formula_sum              "Co4 H48 C68 N8 O16"
_cell_length_a       8.6864
_cell_length_b       14.2414
_cell_length_c       17.5894
_cell_angle_alpha    90
_cell_angle_beta     109.05
_cell_angle_gamma    90

_symmetry_space_group_name_H-M    "P 1"
_symmetry_Int_Tables_number       1

loop_
  _symmetry_equiv_pos_as_xyz
  'x, y, z'

loop_
  _atom_site_type_symbol
  _atom_site_label
  _atom_site_symmetry_multiplicity
  _atom_site_fract_x
  _atom_site_fract_y
  _atom_site_fract_z
  _atom_site_occupancy
  _atom_site_charge
Co  Co1       1.0  0.94680  0.75969  0.23315  1.0000 0.8020829276
Co  Co2       1.0  0.05320  0.25969  0.26685  1.0000 0.8020829276
Co  Co3       1.0  0.05320  0.24031  0.76685  1.0000 0.8020829276
Co  Co4       1.0  0.94680  0.74031  0.73315  1.0000 0.8020829276
H   H1        1.0  0.89550  0.85650  0.44930  1.0000 0.112556556
H   H2        1.0  0.10450  0.35650  0.05070  1.0000 0.112556556
H   H3        1.0  0.10450  0.14350  0.55070  1.0000 0.112556556
H   H4        1.0  0.89550  0.64350  0.94930  1.0000 0.112556556
H   H5        1.0  0.39240  0.42300  0.48290  1.0000 0.1008082532
H   H6        1.0  0.60760  0.92300  0.01710  1.0000 0.1008082532
H   H7        1.0  0.60760  0.57700  0.51710  1.0000 0.1008082532
H   H8        1.0  0.39240  0.07700  0.98290  1.0000 0.1008082532
H   H9        1.0  0.26100  0.54780  0.51950  1.0000 0.1200792845
H   H10       1.0  0.73900  0.04780  0.98050  1.0000 0.1200792845
H   H11       1.0  0.73900  0.45220  0.48050  1.0000 0.1200792845
H   H12       1.0  0.26100  0.95220  0.01950  1.0000 0.1200792845
H   H13       1.0  0.41210  0.56850  0.59580  1.0000 0.125998033
H   H14       1.0  0.58790  0.06850  0.90420  1.0000 0.125998033
H   H15       1.0  0.58790  0.43150  0.40420  1.0000 0.125998033
H   H16       1.0  0.41210  0.93150  0.09580  1.0000 0.125998033
H   H17       1.0  0.90990  0.43070  0.73620  1.0000 0.112556556
H   H18       1.0  0.09010  0.93070  0.76380  1.0000 0.112556556
H   H19       1.0  0.09010  0.56930  0.26380  1.0000 0.112556556
H   H20       1.0  0.90990  0.06930  0.23620  1.0000 0.112556556
H   H21       1.0  0.71620  0.51860  0.64700  1.0000 0.1430964337
H   H22       1.0  0.28380  0.01860  0.85300  1.0000 0.1430964337
H   H23       1.0  0.28380  0.48140  0.35300  1.0000 0.1430964337
H   H24       1.0  0.71620  0.98140  0.14700  1.0000 0.1430964337
H   H25       1.0  0.50260  0.27950  0.54630  1.0000 0.1514187657
H   H26       1.0  0.49740  0.77950  0.95370  1.0000 0.1514187657
H   H27       1.0  0.49740  0.72050  0.45370  1.0000 0.1514187657
H   H28       1.0  0.50260  0.22050  0.04630  1.0000 0.1514187657
H   H29       1.0  0.70550  0.19910  0.64040  1.0000 0.1200792845
H   H30       1.0  0.29450  0.69910  0.85960  1.0000 0.1200792845
H   H31       1.0  0.29450  0.80090  0.35960  1.0000 0.1200792845
H   H32       1.0  0.70550  0.30090  0.14040  1.0000 0.1200792845
H   H33       1.0  0.10950  0.39370  0.51810  1.0000 0.1430964337
H   H34       1.0  0.89050  0.89370  0.98190  1.0000 0.1430964337
H   H35       1.0  0.89050  0.60630  0.48190  1.0000 0.1430964337
H   H36       1.0  0.10950  0.10630  0.01810  1.0000 0.1430964337
H   H37       1.0  0.01920  0.29230  0.59460  1.0000 0.1008082532
H   H38       1.0  0.98080  0.79230  0.90540  1.0000 0.1008082532
H   H39       1.0  0.98080  0.70770  0.40540  1.0000 0.1008082532
H   H40       1.0  0.01920  0.20770  0.09460  1.0000 0.1008082532
H   H41       1.0  0.33180  0.38840  0.79340  1.0000 0.1200792845
H   H42       1.0  0.66820  0.88840  0.70660  1.0000 0.1200792845
H   H43       1.0  0.66820  0.61160  0.20660  1.0000 0.1200792845
H   H44       1.0  0.33180  0.11160  0.29340  1.0000 0.1200792845
H   H45       1.0  0.42960  0.49290  0.71960  1.0000 0.1514187657
H   H46       1.0  0.57040  0.99290  0.78040  1.0000 0.1514187657
H   H47       1.0  0.57040  0.50710  0.28040  1.0000 0.1514187657
H   H48       1.0  0.42960  0.00710  0.21960  1.0000 0.1514187657
C   C1        1.0  0.84992  0.87510  0.58612  1.0000 0.5831896977
C   C2        1.0  0.15008  0.37510  0.91388  1.0000 0.5831896977
C   C3        1.0  0.15008  0.12490  0.41388  1.0000 0.5831896977
C   C4        1.0  0.84992  0.62490  0.08612  1.0000 0.5831896977
C   C5        1.0  0.92192  0.94440  0.54202  1.0000 -0.0221223191
C   C6        1.0  0.07808  0.44440  0.95798  1.0000 -0.0221223191
C   C7        1.0  0.07808  0.05560  0.45798  1.0000 -0.0221223191
C   C8        1.0  0.92192  0.55560  0.04202  1.0000 -0.0221223191
C   C9        1.0  0.01752  0.96800  0.42762  1.0000 -0.0346882401
C   C10       1.0  0.98248  0.46800  0.07238  1.0000 -0.0346882401
C   C11       1.0  0.98248  0.03200  0.57238  1.0000 -0.0346882401
C   C12       1.0  0.01752  0.53200  0.92762  1.0000 -0.0360456838
C   C13       1.0  0.03748  0.92700  0.35188  1.0000 0.5547715889
C   C14       1.0  0.96252  0.42700  0.14812  1.0000 0.5547715889
C   C15       1.0  0.96252  0.07300  0.64812  1.0000 0.5547715889
C   C16       1.0  0.03748  0.57300  0.85188  1.0000 0.5547715889
C   C17       1.0  0.93861  0.91440  0.47001  1.0000 -0.1298804118
C   C18       1.0  0.06139  0.41440  0.02999  1.0000 -0.1298804118
C   C19       1.0  0.06139  0.08560  0.52999  1.0000 -0.1298804118
C   C20       1.0  0.93861  0.58560  0.97001  1.0000 -0.1298804118
C   C21       1.0  0.46120  0.46680  0.52250  1.0000 -0.0650498031
C   C22       1.0  0.53880  0.96680  0.97750  1.0000 -0.0650498031
C   C23       1.0  0.53880  0.53320  0.47750  1.0000 -0.0650498031
C   C24       1.0  0.46120  0.03320  0.02250  1.0000 -0.0650498031
C   C25       1.0  0.35028  0.51890  0.56138  1.0000 -0.2792216374
C   C26       1.0  0.64972  0.01890  0.93862  1.0000 -0.2792216374
C   C27       1.0  0.64972  0.48110  0.43862  1.0000 -0.2792216374
C   C28       1.0  0.35028  0.98110  0.06138  1.0000 -0.2792216374
C   C29       1.0  0.82766  0.39970  0.69656  1.0000 0.091108348
C   C30       1.0  0.17234  0.89970  0.80344  1.0000 0.091108348
C   C31       1.0  0.17234  0.60030  0.30344  1.0000 0.091108348
C   C32       1.0  0.82766  0.10030  0.19656  1.0000 0.091108348
C   C33       1.0  0.71169  0.45340  0.64329  1.0000 -0.20067901
C   C34       1.0  0.28831  0.95340  0.85671  1.0000 -0.20067901
C   C35       1.0  0.28831  0.54660  0.35671  1.0000 -0.20067901
C   C36       1.0  0.71169  0.04660  0.14329  1.0000 -0.20067901
C   C37       1.0  0.58735  0.40950  0.58365  1.0000 0.112556556
C   C38       1.0  0.41265  0.90950  0.91635  1.0000 0.112556556
C   C39       1.0  0.41265  0.59050  0.41635  1.0000 0.1200792845
C   C40       1.0  0.58735  0.09050  0.08365  1.0000 0.112556556
C   C41       1.0  0.58562  0.31230  0.58392  1.0000 -0.1927087366
C   C42       1.0  0.41438  0.81230  0.91608  1.0000 -0.1927087366
C   C43       1.0  0.41438  0.68770  0.41608  1.0000 -0.1927087366
C   C44       1.0  0.58562  0.18770  0.08392  1.0000 -0.1927087366
C   C45       1.0  0.70883  0.26440  0.64083  1.0000 0.0838775204
C   C46       1.0  0.29117  0.76440  0.85917  1.0000 0.0838775204
C   C47       1.0  0.29117  0.73560  0.35917  1.0000 0.0838775204
C   C48       1.0  0.70883  0.23560  0.14083  1.0000 0.0838775204
C   C49       1.0  0.28255  0.45460  0.61015  1.0000 0.1605209575
C   C50       1.0  0.71745  0.95460  0.88985  1.0000 0.1605209575
C   C51       1.0  0.71745  0.54540  0.38985  1.0000 0.1605209575
C   C52       1.0  0.28255  0.04540  0.11015  1.0000 0.1605209575
C   C53       1.0  0.15718  0.39395  0.57378  1.0000 -0.2203441879
C   C54       1.0  0.84282  0.89395  0.92622  1.0000 -0.2203441879
C   C55       1.0  0.84282  0.60605  0.42622  1.0000 -0.2203441879
C   C56       1.0  0.15718  0.10605  0.07378  1.0000 -0.2203441879
C   C57       1.0  0.10285  0.33352  0.62055  1.0000 0.091108348
C   C58       1.0  0.89715  0.83352  0.87945  1.0000 0.091108348
C   C59       1.0  0.89715  0.66648  0.37945  1.0000 0.091108348
C   C60       1.0  0.10285  0.16648  0.12055  1.0000 0.091108348
C   C61       1.0  0.28600  0.38940  0.73770  1.0000 0.1200792845
C   C62       1.0  0.71400  0.88940  0.76230  1.0000 0.1200792845
C   C63       1.0  0.71400  0.61060  0.26230  1.0000 0.1200792845
C   C64       1.0  0.28600  0.11060  0.23770  1.0000 0.1200792845
C   C65       1.0  0.34565  0.45207  0.69305  1.0000 -0.1927087366
C   C66       1.0  0.65435  0.95207  0.80695  1.0000 -0.1927087366
C   C67       1.0  0.65435  0.54793  0.30695  1.0000 -0.1927087366
C   C68       1.0  0.34565  0.04793  0.19305  1.0000 -0.1927087366
N   N1        1.0  0.83198  0.30665  0.69618  1.0000 -0.2203441879
N   N2        1.0  0.16802  0.80665  0.80382  1.0000 -0.2203441879
N   N3        1.0  0.16802  0.69335  0.30382  1.0000 -0.2203441879
N   N4        1.0  0.83198  0.19335  0.19618  1.0000 -0.2203441879
N   N5        1.0  0.16274  0.33027  0.70114  1.0000 -0.2410684808
N   N6        1.0  0.83726  0.83027  0.79886  1.0000 -0.2410684808
N   N7        1.0  0.83726  0.66973  0.29886  1.0000 -0.2410684808
N   N8        1.0  0.16274  0.16973  0.20114  1.0000 -0.2410684808
O   O1        1.0  0.95188  0.83772  0.64598  1.0000 -0.5795499964
O   O2        1.0  0.04812  0.33772  0.85402  1.0000 -0.5795499964
O   O3        1.0  0.04812  0.16228  0.35402  1.0000 -0.5795499964
O   O4        1.0  0.95188  0.66228  0.14598  1.0000 -0.5795499964
O   O5        1.0  0.70104  0.85412  0.55794  1.0000 -0.5795499964
O   O6        1.0  0.29896  0.35412  0.94206  1.0000 -0.5795499964
O   O7        1.0  0.29896  0.14588  0.44206  1.0000 -0.5795499964
O   O8        1.0  0.70104  0.64588  0.05794  1.0000 -0.5795499964
O   O9        1.0  0.15134  0.95770  0.33074  1.0000 -0.5599140807
O   O10       1.0  0.84866  0.45770  0.16926  1.0000 -0.5599140807
O   O11       1.0  0.84866  0.04230  0.66926  1.0000 -0.5599140807
O   O12       1.0  0.15134  0.54230  0.83074  1.0000 -0.5599140807
O   O13       1.0  0.93894  0.86386  0.31734  1.0000 -0.5850026293
O   O14       1.0  0.06106  0.36386  0.18266  1.0000 -0.5850026293
O   O15       1.0  0.06106  0.13614  0.68266  1.0000 -0.5850026293
O   O16       1.0  0.93894  0.63614  0.81734  1.0000 -0.5850026293
