# DDEC6 charges by PACMAN v1.1 (https://github.com/mtap-research/PACMAN-charge/)
data_2007[Pr][bnn]3[ASR]1
_chemical_formula_sum              "Pr2 H58 C96 N8 O16"
_cell_length_a       9.6357
_cell_length_b       13.9203
_cell_length_c       17.2875
_cell_angle_alpha    98.1574
_cell_angle_beta     90.2489
_cell_angle_gamma    90.8938

_symmetry_space_group_name_H-M    "P 1"
_symmetry_Int_Tables_number       1

loop_
  _symmetry_equiv_pos_as_xyz
  'x, y, z'

loop_
  _atom_site_type_symbol
  _atom_site_label
  _atom_site_symmetry_multiplicity
  _atom_site_fract_x
  _atom_site_fract_y
  _atom_site_fract_z
  _atom_site_occupancy
  _atom_site_charge
Pr  Pr1       1.0  0.73000  0.60160  0.48692  1.0000 2.1296717315
Pr  Pr2       1.0  0.27000  0.39840  0.51308  1.0000 2.1296717315
H   H1        1.0  0.89110  0.73790  0.95760  1.0000 0.1207013172
H   H2        1.0  0.10890  0.26210  0.04240  1.0000 0.1207013172
H   H3        1.0  0.76650  0.74990  0.08430  1.0000 0.1207013172
H   H4        1.0  0.23350  0.25010  0.91570  1.0000 0.1207013172
H   H5        1.0  0.46330  0.02500  0.24990  1.0000 0.1390311012
H   H6        1.0  0.53670  0.97500  0.75010  1.0000 0.1390311012
H   H7        1.0  0.41850  0.19700  0.24160  1.0000 0.1390311012
H   H8        1.0  0.58150  0.80300  0.75840  1.0000 0.1390311012
H   H9        1.0  0.57300  0.44800  0.05180  1.0000 0.1285218149
H   H10       1.0  0.42700  0.55200  0.94820  1.0000 0.1285218149
H   H11       1.0  0.74120  0.44370  0.94160  1.0000 0.1285218149
H   H12       1.0  0.25880  0.55630  0.05840  1.0000 0.1285218149
H   H13       1.0  0.02800  0.16230  0.77220  1.0000 0.1285218149
H   H14       1.0  0.97200  0.83770  0.22780  1.0000 0.1285218149
H   H15       1.0  0.03440  0.98340  0.76600  1.0000 0.1390311012
H   H16       1.0  0.96560  0.01660  0.23400  1.0000 0.1390311012
H   H17       1.0  0.66000  0.09550  0.06300  1.0000 0.2206767439
H   H18       1.0  0.34000  0.90450  0.93700  1.0000 0.2206767439
H   H19       1.0  0.78160  0.08540  0.93910  1.0000 0.2206767439
H   H20       1.0  0.21840  0.91460  0.06090  1.0000 0.2206767439
H   H21       1.0  0.48350  0.76830  0.11540  1.0000 0.1112416684
H   H22       1.0  0.51650  0.23170  0.88460  1.0000 0.1112416684
H   H23       1.0  0.45590  0.65090  0.19880  1.0000 0.1112416684
H   H24       1.0  0.54410  0.34910  0.80120  1.0000 0.1112416684
H   H25       1.0  0.56330  0.67190  0.32110  1.0000 0.1207013172
H   H26       1.0  0.43670  0.32810  0.67890  1.0000 0.1207013172
H   H27       1.0  0.72180  0.93090  0.27870  1.0000 0.1207013172
H   H28       1.0  0.27820  0.06910  0.72130  1.0000 0.1207013172
H   H29       1.0  0.78790  0.90320  0.46620  1.0000 0.3768699854
H   H30       1.0  0.21210  0.09680  0.53380  1.0000 0.3768699854
H   H31       1.0  0.30950  0.35970  0.08460  1.0000 0.1112416684
H   H32       1.0  0.69050  0.64030  0.91540  1.0000 0.1112416684
H   H33       1.0  0.16960  0.46360  0.16760  1.0000 0.1031765132
H   H34       1.0  0.83040  0.53640  0.83240  1.0000 0.1031765132
H   H35       1.0  0.23860  0.51320  0.29710  1.0000 0.1207013172
H   H36       1.0  0.76140  0.48680  0.70290  1.0000 0.1207013172
H   H37       1.0  0.59740  0.36650  0.25670  1.0000 0.1285218149
H   H38       1.0  0.40260  0.63350  0.74330  1.0000 0.1285218149
H   H39       1.0  0.03940  0.39600  0.94420  1.0000 0.1112416684
H   H40       1.0  0.96060  0.60400  0.05580  1.0000 0.1112416684
H   H41       1.0  0.19030  0.48530  0.87610  1.0000 0.1112416684
H   H42       1.0  0.80970  0.51470  0.12390  1.0000 0.1112416684
H   H43       1.0  0.18060  0.46970  0.73980  1.0000 0.1207013172
H   H44       1.0  0.81940  0.53030  0.26020  1.0000 0.1207013172
H   H45       1.0  0.84150  0.29320  0.74110  1.0000 0.1207013172
H   H46       1.0  0.15850  0.70680  0.25890  1.0000 0.1207013172
H   H47       1.0  0.10900  0.79270  0.90200  1.0000 0.1031765132
H   H48       1.0  0.89100  0.20730  0.09800  1.0000 0.1031765132
H   H49       1.0  0.19470  0.66320  0.81670  1.0000 0.1031765132
H   H50       1.0  0.80530  0.33680  0.18330  1.0000 0.1031765132
H   H51       1.0  0.08950  0.61610  0.69490  1.0000 0.1285218149
H   H52       1.0  0.91050  0.38390  0.30510  1.0000 0.1285218149
H   H53       1.0  0.81580  0.83450  0.74160  1.0000 0.1207013172
H   H54       1.0  0.18420  0.16550  0.25840  1.0000 0.1207013172
H   H55       1.0  0.26220  0.99040  0.99670  1.0000 0.2053438849
H   H56       1.0  0.73780  0.00960  0.00330  1.0000 0.2053438849
H   H57       1.0  0.28890  0.82760  0.99880  1.0000 0.2053438849
H   H58       1.0  0.71110  0.17240  0.00120  1.0000 0.2053438849
C   C1        1.0  0.82990  0.88610  0.95570  1.0000 0.1692534998
C   C2        1.0  0.17010  0.11390  0.04430  1.0000 0.1692534998
C   C3        1.0  0.84360  0.79280  0.98310  1.0000 -0.2165836342
C   C4        1.0  0.15640  0.20720  0.01690  1.0000 -0.2165836342
C   C5        1.0  0.77570  0.79910  0.05170  1.0000 -0.1961773322
C   C6        1.0  0.22430  0.20090  0.94830  1.0000 -0.1961773322
C   C7        1.0  0.71880  0.89740  0.06600  1.0000 0.1692534998
C   C8        1.0  0.28120  0.10260  0.93400  1.0000 0.1692534998
C   C9        1.0  0.63940  0.93010  0.13110  1.0000 -0.1133043218
C   C10       1.0  0.36060  0.06990  0.86890  1.0000 -0.1133043218
C   C11       1.0  0.58610  0.02430  0.14770  1.0000 0.1588641382
C   C12       1.0  0.41390  0.97570  0.85230  1.0000 0.1588641382
C   C13       1.0  0.49810  0.06080  0.21110  1.0000 -0.1961773322
C   C14       1.0  0.50190  0.93920  0.78890  1.0000 -0.1961773322
C   C15       1.0  0.47300  0.15490  0.20630  1.0000 -0.1903636143
C   C16       1.0  0.52700  0.84510  0.79370  1.0000 -0.1903636143
C   C17       1.0  0.54220  0.18060  0.13900  1.0000 0.1588641382
C   C18       1.0  0.45780  0.81940  0.86100  1.0000 0.1588641382
C   C19       1.0  0.54460  0.27180  0.11400  1.0000 -0.1133043218
C   C20       1.0  0.45540  0.72820  0.88600  1.0000 -0.1133043218
C   C21       1.0  0.61700  0.29650  0.04890  1.0000 0.1588641382
C   C22       1.0  0.38300  0.70350  0.95110  1.0000 0.1588641382
C   C23       1.0  0.62290  0.39330  0.02810  1.0000 -0.2165836342
C   C24       1.0  0.37710  0.60670  0.97190  1.0000 -0.2165836342
C   C25       1.0  0.71400  0.39090  0.96770  1.0000 -0.2120602489
C   C26       1.0  0.28600  0.60910  0.03230  1.0000 -0.2120602489
C   C27       1.0  0.76060  0.29230  0.95150  1.0000 0.1588641382
C   C28       1.0  0.23940  0.70770  0.04850  1.0000 0.1588641382
C   C29       1.0  0.85340  0.25960  0.89110  1.0000 -0.1008276683
C   C30       1.0  0.14660  0.74040  0.10890  1.0000 -0.1008276683
C   C31       1.0  0.88700  0.16180  0.86750  1.0000 0.1692534998
C   C32       1.0  0.11300  0.83820  0.13250  1.0000 0.1692534998
C   C33       1.0  0.97910  0.12480  0.80530  1.0000 -0.1903636143
C   C34       1.0  0.02090  0.87520  0.19470  1.0000 -0.1903636143
C   C35       1.0  0.98370  0.02670  0.80240  1.0000 -0.1961773322
C   C36       1.0  0.01630  0.97330  0.19760  1.0000 -0.1961773322
C   C37       1.0  0.89900  0.00020  0.86380  1.0000 0.1692534998
C   C38       1.0  0.10100  0.99980  0.13620  1.0000 0.1692534998
C   C39       1.0  0.89010  0.90740  0.88580  1.0000 -0.1133043218
C   C40       1.0  0.10990  0.09260  0.11420  1.0000 -0.1133043218
C   C41       1.0  0.60910  0.86020  0.18800  1.0000 0.0897914459
C   C42       1.0  0.39090  0.13980  0.81200  1.0000 0.0897914459
C   C43       1.0  0.52780  0.77730  0.16520  1.0000 -0.1504093891
C   C44       1.0  0.47220  0.22270  0.83480  1.0000 -0.1504093891
C   C45       1.0  0.51100  0.70740  0.21500  1.0000 -0.0847226442
C   C46       1.0  0.48900  0.29260  0.78500  1.0000 -0.0847226442
C   C47       1.0  0.57410  0.72000  0.28770  1.0000 -0.1008276683
C   C48       1.0  0.42590  0.28000  0.71230  1.0000 -0.1008276683
C   C49       1.0  0.65370  0.80350  0.31190  1.0000 -0.0275256415
C   C50       1.0  0.34630  0.19650  0.68810  1.0000 -0.0275256415
C   C51       1.0  0.66920  0.87340  0.26180  1.0000 -0.1691834788
C   C52       1.0  0.33080  0.12660  0.73820  1.0000 -0.1691834788
C   C53       1.0  0.72030  0.81700  0.39160  1.0000 0.6269019931
C   C54       1.0  0.27970  0.18300  0.60840  1.0000 0.6269019931
C   C55       1.0  0.46440  0.34840  0.16320  1.0000 0.0897914459
C   C56       1.0  0.53560  0.65160  0.83680  1.0000 0.0897914459
C   C57       1.0  0.33870  0.38050  0.13690  1.0000 -0.1504093891
C   C58       1.0  0.66130  0.61950  0.86310  1.0000 -0.1504093891
C   C59       1.0  0.25530  0.44260  0.18630  1.0000 -0.0918712378
C   C60       1.0  0.74470  0.55740  0.81370  1.0000 -0.0918712378
C   C61       1.0  0.29730  0.47360  0.26240  1.0000 -0.1008276683
C   C62       1.0  0.70270  0.52640  0.73760  1.0000 -0.1008276683
C   C63       1.0  0.42640  0.44650  0.28810  1.0000 -0.0155010764
C   C64       1.0  0.57360  0.55350  0.71190  1.0000 -0.0155010764
C   C65       1.0  0.50940  0.38450  0.23890  1.0000 -0.1602102504
C   C66       1.0  0.49060  0.61550  0.76110  1.0000 -0.1602102504
C   C67       1.0  0.47340  0.48290  0.37000  1.0000 0.6475960403
C   C68       1.0  0.52660  0.51710  0.63000  1.0000 0.6475960403
C   C69       1.0  0.93030  0.33030  0.84910  1.0000 0.0849362104
C   C70       1.0  0.06970  0.66970  0.15090  1.0000 0.0849362104
C   C71       1.0  0.03190  0.39100  0.88890  1.0000 -0.1602102504
C   C72       1.0  0.96810  0.60900  0.11110  1.0000 -0.1602102504
C   C73       1.0  0.12200  0.44390  0.84830  1.0000 -0.1008276683
C   C74       1.0  0.87800  0.55610  0.15170  1.0000 -0.1008276683
C   C75       1.0  0.11380  0.43730  0.76760  1.0000 -0.11931642
C   C76       1.0  0.88620  0.56270  0.23240  1.0000 -0.11931642
C   C77       1.0  0.00680  0.38280  0.72780  1.0000 -0.0121574509
C   C78       1.0  0.99320  0.61720  0.27220  1.0000 -0.0121574509
C   C79       1.0  0.91500  0.32990  0.76850  1.0000 -0.1691834788
C   C80       1.0  0.08500  0.67010  0.23150  1.0000 -0.1691834788
C   C81       1.0  0.99140  0.37910  0.64050  1.0000 0.6029009014
C   C82       1.0  0.00860  0.62090  0.35950  1.0000 0.6029009014
C   C83       1.0  0.95210  0.82650  0.83180  1.0000 0.0897914459
C   C84       1.0  0.04790  0.17350  0.16820  1.0000 0.0897914459
C   C85       1.0  0.06580  0.77470  0.85240  1.0000 -0.1504093891
C   C86       1.0  0.93420  0.22530  0.14760  1.0000 -0.1504093891
C   C87       1.0  0.11680  0.69740  0.80170  1.0000 -0.1008276683
C   C88       1.0  0.88320  0.30260  0.19830  1.0000 -0.1008276683
C   C89       1.0  0.05490  0.66970  0.72910  1.0000 -0.1008276683
C   C90       1.0  0.94510  0.33030  0.27090  1.0000 -0.1008276683
C   C91       1.0  0.94240  0.72030  0.70660  1.0000 -0.0043719242
C   C92       1.0  0.05760  0.27970  0.29340  1.0000 -0.0043719242
C   C93       1.0  0.89180  0.79910  0.75750  1.0000 -0.1691834788
C   C94       1.0  0.10820  0.20090  0.24250  1.0000 -0.1691834788
C   C95       1.0  0.87140  0.68790  0.63030  1.0000 0.5739189177
C   C96       1.0  0.12860  0.31210  0.36970  1.0000 0.5739189177
N   N1        1.0  0.75680  0.94880  0.00706  1.0000 -0.3119355053
N   N2        1.0  0.24320  0.05120  0.99294  1.0000 -0.3119355053
N   N3        1.0  0.60940  0.09910  0.10547  1.0000 -0.2903179289
N   N4        1.0  0.39060  0.90090  0.89453  1.0000 -0.2903179289
N   N5        1.0  0.69960  0.23490  0.00068  1.0000 -0.3313840539
N   N6        1.0  0.30040  0.76510  0.99932  1.0000 -0.3313840539
N   N7        1.0  0.84060  0.08290  0.90020  1.0000 -0.2903179289
N   N8        1.0  0.15940  0.91710  0.09980  1.0000 -0.2903179289
O   O1        1.0  0.76660  0.90170  0.41890  1.0000 -0.4430638463
O   O2        1.0  0.23340  0.09830  0.58110  1.0000 -0.4430638463
O   O3        1.0  0.72050  0.74740  0.42947  1.0000 -0.6685010404
O   O4        1.0  0.27950  0.25260  0.57053  1.0000 -0.6685010404
O   O5        1.0  0.59960  0.50570  0.38091  1.0000 -0.6685010404
O   O6        1.0  0.40040  0.49430  0.61909  1.0000 -0.6685010404
O   O7        1.0  0.38350  0.48990  0.42332  1.0000 -0.6823024363
O   O8        1.0  0.61650  0.51010  0.57668  1.0000 -0.6823024363
O   O9        1.0  0.08810  0.41540  0.60491  1.0000 -0.6823024363
O   O10       1.0  0.91190  0.58460  0.39509  1.0000 -0.6823024363
O   O11       1.0  0.88220  0.34240  0.60848  1.0000 -0.5289722294
O   O12       1.0  0.11780  0.65760  0.39152  1.0000 -0.5289722294
O   O13       1.0  0.92430  0.61940  0.58407  1.0000 -0.6242982954
O   O14       1.0  0.07570  0.38060  0.41593  1.0000 -0.6242982954
O   O15       1.0  0.76040  0.72730  0.61227  1.0000 -0.6518047661
O   O16       1.0  0.23960  0.27270  0.38773  1.0000 -0.6518047661
