# DDEC6 charges by PACMAN v1.1 (https://github.com/mtap-research/PACMAN-charge/)
data_2007[Ga][nan]3[ASR]1
_chemical_formula_sum              "Ga24 H36 C108 O98"
_cell_length_a       14.5665
_cell_length_b       14.5665
_cell_length_c       31.6835
_cell_angle_alpha    90
_cell_angle_beta     90
_cell_angle_gamma    120

_symmetry_space_group_name_H-M    "P 1"
_symmetry_Int_Tables_number       1

loop_
  _symmetry_equiv_pos_as_xyz
  'x, y, z'

loop_
  _atom_site_type_symbol
  _atom_site_label
  _atom_site_symmetry_multiplicity
  _atom_site_fract_x
  _atom_site_fract_y
  _atom_site_fract_z
  _atom_site_occupancy
  _atom_site_charge
Ga  Ga1       1.0  0.07432  0.14864  0.75000  1.0000 1.4067661877
Ga  Ga2       1.0  0.85136  0.92568  0.75000  1.0000 1.4067661877
Ga  Ga3       1.0  0.07432  0.92568  0.75000  1.0000 1.4067661877
Ga  Ga4       1.0  0.92568  0.85136  0.25000  1.0000 1.4067661877
Ga  Ga5       1.0  0.14864  0.07432  0.25000  1.0000 1.4067661877
Ga  Ga6       1.0  0.92568  0.07432  0.25000  1.0000 1.4067661877
Ga  Ga7       1.0  0.41674  0.58325  0.58491  1.0000 1.4217089132
Ga  Ga8       1.0  0.41675  0.83349  0.58491  1.0000 1.4217089132
Ga  Ga9       1.0  0.16651  0.58326  0.58491  1.0000 1.4217089132
Ga  Ga10      1.0  0.58326  0.41675  0.08491  1.0000 1.4217089132
Ga  Ga11      1.0  0.58325  0.16651  0.08491  1.0000 1.4217089132
Ga  Ga12      1.0  0.83349  0.41674  0.08491  1.0000 1.4217089132
Ga  Ga13      1.0  0.58326  0.41675  0.41509  1.0000 1.4217089132
Ga  Ga14      1.0  0.83349  0.41674  0.41509  1.0000 1.4217089132
Ga  Ga15      1.0  0.58325  0.16651  0.41509  1.0000 1.4217089132
Ga  Ga16      1.0  0.41674  0.58325  0.91509  1.0000 1.4217089132
Ga  Ga17      1.0  0.16651  0.58326  0.91509  1.0000 1.4217089132
Ga  Ga18      1.0  0.41675  0.83349  0.91509  1.0000 1.4217089132
Ga  Ga19      1.0  0.50000  0.50000  0.50000  1.0000 1.3636576847
Ga  Ga20      1.0  0.50000  0.00000  0.50000  1.0000 1.3636576847
Ga  Ga21      1.0  0.00000  0.50000  0.50000  1.0000 1.3636576847
Ga  Ga22      1.0  0.50000  0.50000  0.00000  1.0000 1.3636576847
Ga  Ga23      1.0  0.50000  0.00000  0.00000  1.0000 1.3636576847
Ga  Ga24      1.0  0.00000  0.50000  0.00000  1.0000 1.3636576847
H   H1        1.0  0.27660  0.27660  0.64480  1.0000 0.1449670559
H   H2        1.0  0.72340  0.00000  0.64480  1.0000 0.1449670559
H   H3        1.0  0.00000  0.72340  0.64480  1.0000 0.1449670559
H   H4        1.0  0.72340  0.72340  0.14480  1.0000 0.1449670559
H   H5        1.0  0.27660  0.00000  0.14480  1.0000 0.1449670559
H   H6        1.0  0.00000  0.27660  0.14480  1.0000 0.1449670559
H   H7        1.0  0.27660  0.27660  0.35520  1.0000 0.1449670559
H   H8        1.0  0.00000  0.72340  0.35520  1.0000 0.1499028718
H   H9        1.0  0.72340  0.00000  0.35520  1.0000 0.1449670559
H   H10       1.0  0.72340  0.72340  0.85520  1.0000 0.1449670559
H   H11       1.0  0.00000  0.27660  0.85520  1.0000 0.1449670559
H   H12       1.0  0.27660  0.00000  0.85520  1.0000 0.1449670559
H   H13       1.0  0.72340  0.72340  0.35520  1.0000 0.1449670559
H   H14       1.0  0.27660  0.00000  0.35520  1.0000 0.1449670559
H   H15       1.0  0.00000  0.27660  0.35520  1.0000 0.1449670559
H   H16       1.0  0.27660  0.27660  0.85520  1.0000 0.1449670559
H   H17       1.0  0.72340  0.00000  0.85520  1.0000 0.1449670559
H   H18       1.0  0.00000  0.72340  0.85520  1.0000 0.1449670559
H   H19       1.0  0.72340  0.72340  0.64480  1.0000 0.1499028718
H   H20       1.0  0.00000  0.27660  0.64480  1.0000 0.1449670559
H   H21       1.0  0.27660  0.00000  0.64480  1.0000 0.1449670559
H   H22       1.0  0.27660  0.27660  0.14480  1.0000 0.1449670559
H   H23       1.0  0.00000  0.72340  0.14480  1.0000 0.1449670559
H   H24       1.0  0.72340  0.00000  0.14480  1.0000 0.1449670559
H   H25       1.0  0.42510  0.21250  0.55230  1.0000 0.1499028718
H   H26       1.0  0.78750  0.21260  0.55230  1.0000 0.1499028718
H   H27       1.0  0.78740  0.57490  0.55230  1.0000 0.1499028718
H   H28       1.0  0.57490  0.78750  0.05230  1.0000 0.1499028718
H   H29       1.0  0.21250  0.78740  0.05230  1.0000 0.1499028718
H   H30       1.0  0.21260  0.42510  0.05230  1.0000 0.1499028718
H   H31       1.0  0.21260  0.42510  0.44770  1.0000 0.1499028718
H   H32       1.0  0.21250  0.78740  0.44770  1.0000 0.1499028718
H   H33       1.0  0.57490  0.78750  0.44770  1.0000 0.1499028718
H   H34       1.0  0.78740  0.57490  0.94770  1.0000 0.1499028718
H   H35       1.0  0.78750  0.21260  0.94770  1.0000 0.1499028718
H   H36       1.0  0.42510  0.21250  0.94770  1.0000 0.1499028718
C   C1        1.0  0.20050  0.10020  0.69050  1.0000 0.621454608
C   C2        1.0  0.89980  0.10030  0.69050  1.0000 0.621454608
C   C3        1.0  0.89970  0.79950  0.69050  1.0000 0.621454608
C   C4        1.0  0.79950  0.89980  0.19050  1.0000 0.621454608
C   C5        1.0  0.10020  0.89970  0.19050  1.0000 0.621454608
C   C6        1.0  0.10030  0.20050  0.19050  1.0000 0.621454608
C   C7        1.0  0.10030  0.20050  0.30950  1.0000 0.621454608
C   C8        1.0  0.10020  0.89970  0.30950  1.0000 0.621454608
C   C9        1.0  0.79950  0.89980  0.30950  1.0000 0.621454608
C   C10       1.0  0.89970  0.79950  0.80950  1.0000 0.621454608
C   C11       1.0  0.89980  0.10030  0.80950  1.0000 0.621454608
C   C12       1.0  0.20050  0.10020  0.80950  1.0000 0.621454608
C   C13       1.0  0.26560  0.13280  0.65070  1.0000 -0.0420934193
C   C14       1.0  0.86720  0.13280  0.65070  1.0000 -0.0420934193
C   C15       1.0  0.86720  0.73440  0.65070  1.0000 -0.0420934193
C   C16       1.0  0.73440  0.86720  0.15070  1.0000 -0.0420934193
C   C17       1.0  0.13280  0.86720  0.15070  1.0000 -0.0420934193
C   C18       1.0  0.13280  0.26560  0.15070  1.0000 -0.0420934193
C   C19       1.0  0.13280  0.26560  0.34930  1.0000 -0.0420934193
C   C20       1.0  0.13280  0.86720  0.34930  1.0000 -0.0420934193
C   C21       1.0  0.73440  0.86720  0.34930  1.0000 -0.0420934193
C   C22       1.0  0.86720  0.73440  0.84930  1.0000 -0.0420934193
C   C23       1.0  0.86720  0.13280  0.84930  1.0000 -0.0420934193
C   C24       1.0  0.26560  0.13280  0.84930  1.0000 -0.0420934193
C   C25       1.0  0.29560  0.23070  0.63220  1.0000 -0.0790415266
C   C26       1.0  0.76930  0.06490  0.63220  1.0000 -0.0790415266
C   C27       1.0  0.93510  0.70440  0.63220  1.0000 -0.0790415266
C   C28       1.0  0.70440  0.76930  0.13220  1.0000 -0.0790415266
C   C29       1.0  0.23070  0.93510  0.13220  1.0000 -0.0790415266
C   C30       1.0  0.06490  0.29560  0.13220  1.0000 -0.0790415266
C   C31       1.0  0.23070  0.29560  0.36780  1.0000 -0.0790415266
C   C32       1.0  0.06490  0.76930  0.36780  1.0000 -0.0790415266
C   C33       1.0  0.70440  0.93510  0.36780  1.0000 -0.0790415266
C   C34       1.0  0.76930  0.70440  0.86780  1.0000 -0.0790415266
C   C35       1.0  0.93510  0.23070  0.86780  1.0000 -0.0790415266
C   C36       1.0  0.29560  0.06490  0.86780  1.0000 -0.0790415266
C   C37       1.0  0.70440  0.76930  0.36780  1.0000 -0.0790415266
C   C38       1.0  0.23070  0.93510  0.36780  1.0000 -0.0790415266
C   C39       1.0  0.06490  0.29560  0.36780  1.0000 -0.0790415266
C   C40       1.0  0.29560  0.23070  0.86780  1.0000 -0.0790415266
C   C41       1.0  0.76930  0.06490  0.86780  1.0000 -0.0790415266
C   C42       1.0  0.93510  0.70440  0.86780  1.0000 -0.0790415266
C   C43       1.0  0.76930  0.70440  0.63220  1.0000 -0.0790415266
C   C44       1.0  0.93510  0.23070  0.63220  1.0000 -0.0790415266
C   C45       1.0  0.29560  0.06490  0.63220  1.0000 -0.0790415266
C   C46       1.0  0.23070  0.29560  0.13220  1.0000 -0.0790415266
C   C47       1.0  0.06490  0.76930  0.13220  1.0000 -0.0790415266
C   C48       1.0  0.70440  0.93510  0.13220  1.0000 -0.0790415266
C   C49       1.0  0.35400  0.25970  0.59490  1.0000 -0.0420934193
C   C50       1.0  0.74030  0.09430  0.59490  1.0000 -0.0420934193
C   C51       1.0  0.90570  0.64600  0.59490  1.0000 -0.0420934193
C   C52       1.0  0.64600  0.74030  0.09490  1.0000 -0.0420934193
C   C53       1.0  0.25970  0.90570  0.09490  1.0000 -0.0420934193
C   C54       1.0  0.09430  0.35400  0.09490  1.0000 -0.0420934193
C   C55       1.0  0.25970  0.35400  0.40510  1.0000 -0.0420934193
C   C56       1.0  0.09430  0.74030  0.40510  1.0000 -0.0420934193
C   C57       1.0  0.64600  0.90570  0.40510  1.0000 -0.0420934193
C   C58       1.0  0.74030  0.64600  0.90510  1.0000 -0.0420934193
C   C59       1.0  0.90570  0.25970  0.90510  1.0000 -0.0420934193
C   C60       1.0  0.35400  0.09430  0.90510  1.0000 -0.0420934193
C   C61       1.0  0.64600  0.74030  0.40510  1.0000 -0.0420934193
C   C62       1.0  0.25970  0.90570  0.40510  1.0000 -0.0420934193
C   C63       1.0  0.09430  0.35400  0.40510  1.0000 -0.0420934193
C   C64       1.0  0.35400  0.25970  0.90510  1.0000 -0.0420934193
C   C65       1.0  0.74030  0.09430  0.90510  1.0000 -0.0420934193
C   C66       1.0  0.90570  0.64600  0.90510  1.0000 -0.0420934193
C   C67       1.0  0.74030  0.64600  0.59490  1.0000 -0.0420934193
C   C68       1.0  0.90570  0.25970  0.59490  1.0000 -0.0420934193
C   C69       1.0  0.35400  0.09430  0.59490  1.0000 -0.0420934193
C   C70       1.0  0.25970  0.35400  0.09490  1.0000 -0.0420934193
C   C71       1.0  0.09430  0.74030  0.09490  1.0000 -0.0420934193
C   C72       1.0  0.64600  0.90570  0.09490  1.0000 -0.0420934193
C   C73       1.0  0.38950  0.36470  0.57500  1.0000 0.5944436308
C   C74       1.0  0.63530  0.02480  0.57500  1.0000 0.5944436308
C   C75       1.0  0.97520  0.61050  0.57500  1.0000 0.5944436308
C   C76       1.0  0.61050  0.63530  0.07500  1.0000 0.5944436308
C   C77       1.0  0.36470  0.97520  0.07500  1.0000 0.5944436308
C   C78       1.0  0.02480  0.38950  0.07500  1.0000 0.5944436308
C   C79       1.0  0.36470  0.38950  0.42500  1.0000 0.5944436308
C   C80       1.0  0.02480  0.63530  0.42500  1.0000 0.5944436308
C   C81       1.0  0.61050  0.97520  0.42500  1.0000 0.5944436308
C   C82       1.0  0.63530  0.61050  0.92500  1.0000 0.5944436308
C   C83       1.0  0.97520  0.36470  0.92500  1.0000 0.5944436308
C   C84       1.0  0.38950  0.02480  0.92500  1.0000 0.5944436308
C   C85       1.0  0.61050  0.63530  0.42500  1.0000 0.5944436308
C   C86       1.0  0.36470  0.97520  0.42500  1.0000 0.5944436308
C   C87       1.0  0.02480  0.38950  0.42500  1.0000 0.5944436308
C   C88       1.0  0.38950  0.36470  0.92500  1.0000 0.5944436308
C   C89       1.0  0.63530  0.02480  0.92500  1.0000 0.5944436308
C   C90       1.0  0.97520  0.61050  0.92500  1.0000 0.5944436308
C   C91       1.0  0.63530  0.61050  0.57500  1.0000 0.5944436308
C   C92       1.0  0.97520  0.36470  0.57500  1.0000 0.5944436308
C   C93       1.0  0.38950  0.02480  0.57500  1.0000 0.5944436308
C   C94       1.0  0.36470  0.38950  0.07500  1.0000 0.5944436308
C   C95       1.0  0.02480  0.63530  0.07500  1.0000 0.5944436308
C   C96       1.0  0.61050  0.97520  0.07500  1.0000 0.5944436308
C   C97       1.0  0.38440  0.19220  0.57670  1.0000 -0.0522825668
C   C98       1.0  0.80780  0.19220  0.57670  1.0000 -0.0522825668
C   C99       1.0  0.80780  0.61560  0.57670  1.0000 -0.0522825668
C   C100      1.0  0.61560  0.80780  0.07670  1.0000 -0.0522825668
C   C101      1.0  0.19220  0.80780  0.07670  1.0000 -0.0522825668
C   C102      1.0  0.19220  0.38440  0.07670  1.0000 -0.0522825668
C   C103      1.0  0.19220  0.38440  0.42330  1.0000 -0.0522825668
C   C104      1.0  0.19220  0.80780  0.42330  1.0000 -0.0522825668
C   C105      1.0  0.61560  0.80780  0.42330  1.0000 -0.0522825668
C   C106      1.0  0.80780  0.61560  0.92330  1.0000 -0.0522825668
C   C107      1.0  0.80780  0.19220  0.92330  1.0000 -0.0522825668
C   C108      1.0  0.38440  0.19220  0.92330  1.0000 -0.0522825668
O   O1        1.0  0.00000  0.00000  0.75000  1.0000 -0.970035174
O   O2        1.0  0.00000  0.00000  0.25000  1.0000 -0.970035174
O   O3        1.0  0.17530  0.16480  0.70488  1.0000 -0.5392684673
O   O4        1.0  0.83520  0.01050  0.70488  1.0000 -0.5392684673
O   O5        1.0  0.98950  0.82470  0.70488  1.0000 -0.5392684673
O   O6        1.0  0.82470  0.83520  0.20488  1.0000 -0.5392684673
O   O7        1.0  0.16480  0.98950  0.20488  1.0000 -0.5392684673
O   O8        1.0  0.01050  0.17530  0.20488  1.0000 -0.5392684673
O   O9        1.0  0.16480  0.17530  0.29512  1.0000 -0.5392684673
O   O10       1.0  0.01050  0.83520  0.29512  1.0000 -0.5392684673
O   O11       1.0  0.82470  0.98950  0.29512  1.0000 -0.5392684673
O   O12       1.0  0.83520  0.82470  0.79512  1.0000 -0.5392684673
O   O13       1.0  0.98950  0.16480  0.79512  1.0000 -0.5392684673
O   O14       1.0  0.17530  0.01050  0.79512  1.0000 -0.5392684673
O   O15       1.0  0.82470  0.83520  0.29512  1.0000 -0.5392684673
O   O16       1.0  0.16480  0.98950  0.29512  1.0000 -0.5392684673
O   O17       1.0  0.01050  0.17530  0.29512  1.0000 -0.5392684673
O   O18       1.0  0.17530  0.16480  0.79512  1.0000 -0.5392684673
O   O19       1.0  0.83520  0.01050  0.79512  1.0000 -0.5392684673
O   O20       1.0  0.98950  0.82470  0.79512  1.0000 -0.5392684673
O   O21       1.0  0.83520  0.82470  0.70488  1.0000 -0.5392684673
O   O22       1.0  0.98950  0.16480  0.70488  1.0000 -0.5392684673
O   O23       1.0  0.17530  0.01050  0.70488  1.0000 -0.5392684673
O   O24       1.0  0.16480  0.17530  0.20488  1.0000 -0.5392684673
O   O25       1.0  0.01050  0.83520  0.20488  1.0000 -0.5392684673
O   O26       1.0  0.82470  0.98950  0.20488  1.0000 -0.5392684673
O   O27       1.0  0.37670  0.43170  0.59545  1.0000 -0.5519740243
O   O28       1.0  0.56830  0.94500  0.59545  1.0000 -0.5519740243
O   O29       1.0  0.05500  0.62330  0.59545  1.0000 -0.5519740243
O   O30       1.0  0.62330  0.56830  0.09545  1.0000 -0.5519740243
O   O31       1.0  0.43170  0.05500  0.09545  1.0000 -0.5519740243
O   O32       1.0  0.94500  0.37670  0.09545  1.0000 -0.5519740243
O   O33       1.0  0.43170  0.37670  0.40455  1.0000 -0.5519740243
O   O34       1.0  0.94500  0.56830  0.40455  1.0000 -0.5519740243
O   O35       1.0  0.62330  0.05500  0.40455  1.0000 -0.5519740243
O   O36       1.0  0.56830  0.62330  0.90455  1.0000 -0.5519740243
O   O37       1.0  0.05500  0.43170  0.90455  1.0000 -0.5519740243
O   O38       1.0  0.37670  0.94500  0.90455  1.0000 -0.5519740243
O   O39       1.0  0.62330  0.56830  0.40455  1.0000 -0.5519740243
O   O40       1.0  0.43170  0.05500  0.40455  1.0000 -0.5519740243
O   O41       1.0  0.94500  0.37670  0.40455  1.0000 -0.5519740243
O   O42       1.0  0.37670  0.43170  0.90455  1.0000 -0.5519740243
O   O43       1.0  0.56830  0.94500  0.90455  1.0000 -0.5519740243
O   O44       1.0  0.05500  0.62330  0.90455  1.0000 -0.5519740243
O   O45       1.0  0.56830  0.62330  0.59545  1.0000 -0.5519740243
O   O46       1.0  0.05500  0.43170  0.59545  1.0000 -0.5519740243
O   O47       1.0  0.37670  0.94500  0.59545  1.0000 -0.5519740243
O   O48       1.0  0.43170  0.37670  0.09545  1.0000 -0.5519740243
O   O49       1.0  0.94500  0.56830  0.09545  1.0000 -0.5519740243
O   O50       1.0  0.62330  0.05500  0.09545  1.0000 -0.5519740243
O   O51       1.0  0.42920  0.37810  0.53890  1.0000 -0.4940765186
O   O52       1.0  0.62190  0.05110  0.53890  1.0000 -0.4940765186
O   O53       1.0  0.94890  0.57080  0.53890  1.0000 -0.4940765186
O   O54       1.0  0.57080  0.62190  0.03890  1.0000 -0.4953332508
O   O55       1.0  0.37810  0.94890  0.03890  1.0000 -0.4953332508
O   O56       1.0  0.05110  0.42920  0.03890  1.0000 -0.4953332508
O   O57       1.0  0.37810  0.42920  0.46110  1.0000 -0.4953332508
O   O58       1.0  0.05110  0.62190  0.46110  1.0000 -0.4953332508
O   O59       1.0  0.57080  0.94890  0.46110  1.0000 -0.4953332508
O   O60       1.0  0.62190  0.57080  0.96110  1.0000 -0.4953332508
O   O61       1.0  0.94890  0.37810  0.96110  1.0000 -0.4940765186
O   O62       1.0  0.42920  0.05110  0.96110  1.0000 -0.4953332508
O   O63       1.0  0.57080  0.62190  0.46110  1.0000 -0.4953332508
O   O64       1.0  0.37810  0.94890  0.46110  1.0000 -0.4953332508
O   O65       1.0  0.05110  0.42920  0.46110  1.0000 -0.4953332508
O   O66       1.0  0.42920  0.37810  0.96110  1.0000 -0.4953332508
O   O67       1.0  0.62190  0.05110  0.96110  1.0000 -0.4940765186
O   O68       1.0  0.94890  0.57080  0.96110  1.0000 -0.4940765186
O   O69       1.0  0.62190  0.57080  0.53890  1.0000 -0.4940765186
O   O70       1.0  0.94890  0.37810  0.53890  1.0000 -0.4940765186
O   O71       1.0  0.42920  0.05110  0.53890  1.0000 -0.4940765186
O   O72       1.0  0.37810  0.42920  0.03890  1.0000 -0.4953332508
O   O73       1.0  0.05110  0.62190  0.03890  1.0000 -0.4953332508
O   O74       1.0  0.57080  0.94890  0.03890  1.0000 -0.4953332508
O   O75       1.0  0.46400  0.73200  0.58140  1.0000 -0.7568229719
O   O76       1.0  0.26800  0.73200  0.58140  1.0000 -0.7568229719
O   O77       1.0  0.26800  0.53600  0.58140  1.0000 -0.7568229719
O   O78       1.0  0.53600  0.26800  0.08140  1.0000 -0.7568229719
O   O79       1.0  0.73200  0.26800  0.08140  1.0000 -0.7568229719
O   O80       1.0  0.73200  0.46400  0.08140  1.0000 -0.7568229719
O   O81       1.0  0.73200  0.46400  0.41860  1.0000 -0.7568229719
O   O82       1.0  0.73200  0.26800  0.41860  1.0000 -0.7568229719
O   O83       1.0  0.53600  0.26800  0.41860  1.0000 -0.7568229719
O   O84       1.0  0.26800  0.53600  0.91860  1.0000 -0.7568229719
O   O85       1.0  0.26800  0.73200  0.91860  1.0000 -0.7568229719
O   O86       1.0  0.46400  0.73200  0.91860  1.0000 -0.7568229719
O   O87       1.0  0.43140  0.56860  0.52550  1.0000 -0.6305720244
O   O88       1.0  0.43140  0.86280  0.52550  1.0000 -0.6305720244
O   O89       1.0  0.13720  0.56860  0.52550  1.0000 -0.6305720244
O   O90       1.0  0.56860  0.43140  0.02550  1.0000 -0.6305720244
O   O91       1.0  0.56860  0.13720  0.02550  1.0000 -0.6305720244
O   O92       1.0  0.86280  0.43140  0.02550  1.0000 -0.6305720244
O   O93       1.0  0.56860  0.43140  0.47450  1.0000 -0.6305720244
O   O94       1.0  0.86280  0.43140  0.47450  1.0000 -0.6305720244
O   O95       1.0  0.56860  0.13720  0.47450  1.0000 -0.6305720244
O   O96       1.0  0.43140  0.56860  0.97450  1.0000 -0.6305720244
O   O97       1.0  0.13720  0.56860  0.97450  1.0000 -0.6305720244
O   O98       1.0  0.43140  0.86280  0.97450  1.0000 -0.6305720244
