# DDEC6 charges by PACMAN v1.1 (https://github.com/mtap-research/PACMAN-charge/)
data_2007[Zn][lta]3[ASR]1
_chemical_formula_sum              "Zn48 H288 C480 N384"
_cell_length_a       32.1539
_cell_length_b       32.1539
_cell_length_c       32.1539
_cell_angle_alpha    60
_cell_angle_beta     60
_cell_angle_gamma    60

_symmetry_space_group_name_H-M    "P 1"
_symmetry_Int_Tables_number       1

loop_
  _symmetry_equiv_pos_as_xyz
  'x, y, z'

loop_
  _atom_site_type_symbol
  _atom_site_label
  _atom_site_symmetry_multiplicity
  _atom_site_fract_x
  _atom_site_fract_y
  _atom_site_fract_z
  _atom_site_occupancy
  _atom_site_charge
Zn  Zn1       1.0  0.05066  0.69654  0.02865  1.0000 0.6699831795
Zn  Zn2       1.0  0.04654  0.51374  0.03103  1.0000 0.6606713269
Zn  Zn3       1.0  0.86374  0.51352  0.03096  1.0000 0.6492254457
Zn  Zn4       1.0  0.68367  0.88071  0.02639  1.0000 0.6606713269
Zn  Zn5       1.0  0.68115  0.69621  0.03092  1.0000 0.6699831795
Zn  Zn6       1.0  0.86624  0.87886  0.03161  1.0000 0.6699831795
Zn  Zn7       1.0  0.18095  0.19596  0.53104  1.0000 0.680246881
Zn  Zn8       1.0  0.36450  0.00990  0.08460  1.0000 0.6699831795
Zn  Zn9       1.0  0.05106  0.32652  0.21410  1.0000 0.6699831795
Zn  Zn10      1.0  0.04845  0.32869  0.39847  1.0000 0.6606713269
Zn  Zn11      1.0  0.18150  0.19605  0.08170  1.0000 0.6606713269
Zn  Zn12      1.0  0.36396  0.01135  0.53167  1.0000 0.6492254457
Zn  Zn13      1.0  0.99854  0.01120  0.89845  1.0000 0.680246881
Zn  Zn14      1.0  0.55110  0.19601  0.71333  1.0000 0.6699831795
Zn  Zn15      1.0  0.54893  0.01161  0.53148  1.0000 0.6699831795
Zn  Zn16      1.0  0.99637  0.19621  0.08349  1.0000 0.680246881
Zn  Zn17      1.0  0.68330  0.32600  0.39890  1.0000 0.6606713269
Zn  Zn18      1.0  0.86671  0.32625  0.58314  1.0000 0.6606713269
Zn  Zn19      1.0  0.68141  0.33072  0.58092  1.0000 0.6699831795
Zn  Zn20      1.0  0.86575  0.32910  0.21438  1.0000 0.6699831795
Zn  Zn21      1.0  0.99869  0.01131  0.08322  1.0000 0.6492254457
Zn  Zn22      1.0  0.54858  0.19625  0.53119  1.0000 0.6492254457
Zn  Zn23      1.0  0.54909  0.01374  0.89858  1.0000 0.6606713269
Zn  Zn24      1.0  0.99850  0.19553  0.71441  1.0000 0.6492254457
Zn  Zn25      1.0  0.18107  0.82872  0.08347  1.0000 0.6606713269
Zn  Zn26      1.0  0.36378  0.38144  0.53181  1.0000 0.6699831795
Zn  Zn27      1.0  0.36595  0.82848  0.71387  1.0000 0.6606713269
Zn  Zn28      1.0  0.18078  0.38109  0.89850  1.0000 0.6606713269
Zn  Zn29      1.0  0.49684  0.88060  0.39894  1.0000 0.6492254457
Zn  Zn30      1.0  0.49382  0.51371  0.58315  1.0000 0.6606713269
Zn  Zn31      1.0  0.49607  0.69619  0.21602  1.0000 0.6606713269
Zn  Zn32      1.0  0.04935  0.51314  0.39847  1.0000 0.6606713269
Zn  Zn33      1.0  0.50086  0.87836  0.21385  1.0000 0.6699831795
Zn  Zn34      1.0  0.04888  0.69649  0.21402  1.0000 0.6606713269
Zn  Zn35      1.0  0.49833  0.51146  0.39857  1.0000 0.6699831795
Zn  Zn36      1.0  0.49847  0.69655  0.58097  1.0000 0.6699831795
Zn  Zn37      1.0  0.18167  0.82856  0.89834  1.0000 0.6606713269
Zn  Zn38      1.0  0.36566  0.37946  0.71566  1.0000 0.6606713269
Zn  Zn39      1.0  0.36589  0.82637  0.08346  1.0000 0.6699831795
Zn  Zn40      1.0  0.18087  0.38109  0.53107  1.0000 0.6606713269
Zn  Zn41      1.0  0.99902  0.37890  0.71434  1.0000 0.6699831795
Zn  Zn42      1.0  0.54934  0.82974  0.89799  1.0000 0.6606713269
Zn  Zn43      1.0  0.68312  0.69586  0.58202  1.0000 0.6492254457
Zn  Zn44      1.0  0.86642  0.88067  0.21577  1.0000 0.6606713269
Zn  Zn45      1.0  0.86672  0.51181  0.58270  1.0000 0.680246881
Zn  Zn46      1.0  0.68334  0.87833  0.39896  1.0000 0.6699831795
Zn  Zn47      1.0  0.99676  0.38157  0.89868  1.0000 0.6606713269
Zn  Zn48      1.0  0.55107  0.82854  0.71363  1.0000 0.6699831795
H   H1        1.0  0.44187  0.15452  0.62266  1.0000 0.0982385181
H   H2        1.0  0.80807  0.43492  0.49212  1.0000 0.0982385181
H   H3        1.0  0.95896  0.55362  0.34118  1.0000 0.0982385181
H   H4        1.0  0.72374  0.63753  0.49199  1.0000 0.0982385181
H   H5        1.0  0.80783  0.78963  0.25584  1.0000 0.0982385181
H   H6        1.0  0.95965  0.63809  0.13742  1.0000 0.0982385181
H   H7        1.0  0.35406  0.23583  0.02193  1.0000 0.0691933934
H   H8        1.0  0.84629  0.23558  0.02077  1.0000 0.0691933934
H   H9        1.0  0.14901  0.50222  0.05298  1.0000 0.0907170143
H   H10       1.0  0.40581  0.67650  0.02008  1.0000 0.0691933934
H   H11       1.0  0.00522  0.61486  0.05231  1.0000 0.0907170143
H   H12       1.0  0.75003  0.50115  0.05519  1.0000 0.0907170143
H   H13       1.0  0.66972  0.98353  0.05077  1.0000 0.0982385181
H   H14       1.0  0.97347  0.51022  0.99773  1.0000 0.0907170143
H   H15       1.0  0.97710  0.80599  0.99749  1.0000 0.0907170143
H   H16       1.0  0.67894  0.80691  0.99585  1.0000 0.0907170143
H   H17       1.0  0.78383  0.61792  0.05069  1.0000 0.0907170143
H   H18       1.0  0.78797  0.83472  0.05021  1.0000 0.0907170143
H   H19       1.0  0.16310  0.22034  0.77701  1.0000 0.0691933934
H   H20       1.0  0.14985  0.35211  0.28495  1.0000 0.0907170143
H   H21       1.0  0.24431  0.12791  0.69514  1.0000 0.0691933934
H   H22       1.0  0.35416  0.23554  0.38004  1.0000 0.0691933934
H   H23       1.0  0.29683  0.07351  0.92496  1.0000 0.0691933934
H   H24       1.0  0.40438  0.32247  0.37829  1.0000 0.0691933934
H   H25       1.0  0.16269  0.07454  0.83035  1.0000 0.0691933934
H   H26       1.0  0.39053  0.07475  0.69568  1.0000 0.0691933934
H   H27       1.0  0.48800  0.18478  0.38030  1.0000 0.0691933934
H   H28       1.0  0.16097  0.12777  0.92425  1.0000 0.0691933934
H   H29       1.0  0.24380  0.22317  0.82968  1.0000 0.0691933934
H   H30       1.0  0.08930  0.15400  0.77272  1.0000 0.0982385181
H   H31       1.0  0.44215  0.07064  0.85657  1.0000 0.0982385181
H   H32       1.0  0.23976  0.27247  0.62171  1.0000 0.0982385181
H   H33       1.0  0.37663  0.12472  0.42943  1.0000 0.0907170143
H   H34       1.0  0.23837  0.15475  0.97501  1.0000 0.0982385181
H   H35       1.0  0.08832  0.27265  0.85868  1.0000 0.0982385181
H   H36       1.0  0.32434  0.06955  0.62239  1.0000 0.0982385181
H   H37       1.0  0.08948  0.06947  0.97495  1.0000 0.0982385181
H   H38       1.0  0.03287  0.21576  0.44088  1.0000 0.0982385181
H   H39       1.0  0.16599  0.23836  0.36808  1.0000 0.0982385181
H   H40       1.0  0.37683  0.12238  0.06272  1.0000 0.0907170143
H   H41       1.0  0.36718  0.06119  0.32157  1.0000 0.0593061813
H   H42       1.0  0.03728  0.13790  0.32992  1.0000 0.0800916997
H   H43       1.0  0.23078  0.19684  0.23964  1.0000 0.0593061813
H   H44       1.0  0.13899  0.10833  0.19491  1.0000 0.0982385181
H   H45       1.0  0.21298  0.19424  0.16855  1.0000 0.0982385181
H   H46       1.0  0.36227  0.04240  0.41477  1.0000 0.0982385181
H   H47       1.0  0.00970  0.08102  0.27183  1.0000 0.0800916997
H   H48       1.0  0.40611  0.31792  0.88827  1.0000 0.0691933934
H   H49       1.0  0.48686  0.18456  0.94033  1.0000 0.0691933934
H   H50       1.0  0.09496  0.08140  0.54367  1.0000 0.0800916997
H   H51       1.0  0.01558  0.10785  0.67186  1.0000 0.0982385181
H   H52       1.0  0.25691  0.16935  0.34928  1.0000 0.0593061813
H   H53       1.0  0.33990  0.08863  0.21250  1.0000 0.0593061813
H   H54       1.0  0.07119  0.19933  0.60480  1.0000 0.0907170143
H   H55       1.0  0.07061  0.20043  0.11546  1.0000 0.0907170143
H   H56       1.0  0.11703  0.29976  0.46171  1.0000 0.0907170143
H   H57       1.0  0.11959  0.29682  0.11206  1.0000 0.0907170143
H   H58       1.0  0.26181  0.09433  0.57436  1.0000 0.0907170143
H   H59       1.0  0.26188  0.09070  0.06155  1.0000 0.0907170143
H   H60       1.0  0.04257  0.09165  0.79578  1.0000 0.0907170143
H   H61       1.0  0.04165  0.09311  0.06155  1.0000 0.0907170143
H   H62       1.0  0.00535  0.34974  0.31845  1.0000 0.0907170143
H   H63       1.0  0.02794  0.28881  0.68022  1.0000 0.0800916997
H   H64       1.0  0.14471  0.29294  0.55962  1.0000 0.0800916997
H   H65       1.0  0.46024  0.29041  0.56098  1.0000 0.0800916997
H   H66       1.0  0.46175  0.29057  0.67928  1.0000 0.0800916997
H   H67       1.0  0.02535  0.29314  0.99409  1.0000 0.0800916997
H   H68       1.0  0.14664  0.29142  0.99177  1.0000 0.0800916997
H   H69       1.0  0.39121  0.12824  0.77764  1.0000 0.0691933934
H   H70       1.0  0.84505  0.32088  0.88663  1.0000 0.0691933934
H   H71       1.0  0.84634  0.18392  0.93823  1.0000 0.0691933934
H   H72       1.0  0.89711  0.12597  0.05886  1.0000 0.0907170143
H   H73       1.0  0.52338  0.20717  0.43096  1.0000 0.0907170143
H   H74       1.0  0.89647  0.20672  0.82926  1.0000 0.0907170143
H   H75       1.0  0.78874  0.19798  0.76387  1.0000 0.0593061813
H   H76       1.0  0.55888  0.03085  0.17435  1.0000 0.0691933934
H   H77       1.0  0.95247  0.13741  0.57034  1.0000 0.0800916997
H   H78       1.0  0.70750  0.06178  0.90046  1.0000 0.0593061813
H   H79       1.0  0.69401  0.03100  0.09079  1.0000 0.0691933934
H   H80       1.0  0.79669  0.13703  0.48638  1.0000 0.0800916997
H   H81       1.0  0.76859  0.21761  0.56424  1.0000 0.0982385181
H   H82       1.0  0.68353  0.24108  0.69835  1.0000 0.0982385181
H   H83       1.0  0.70665  0.19819  0.32157  1.0000 0.0593061813
H   H84       1.0  0.78830  0.06241  0.24003  1.0000 0.0593061813
H   H85       1.0  0.52934  0.20844  0.82592  1.0000 0.0907170143
H   H86       1.0  0.64286  0.03153  0.22708  1.0000 0.0691933934
H   H87       1.0  0.90907  0.21637  0.30115  1.0000 0.0982385181
H   H88       1.0  0.83509  0.23982  0.21653  1.0000 0.0982385181
H   H89       1.0  0.68156  0.08707  0.35013  1.0000 0.0593061813
H   H90       1.0  0.81557  0.16999  0.21406  1.0000 0.0593061813
H   H91       1.0  0.81692  0.08727  0.87254  1.0000 0.0593061813
H   H92       1.0  0.66896  0.34868  0.28719  1.0000 0.0907170143
H   H93       1.0  0.88138  0.04186  0.17186  1.0000 0.0982385181
H   H94       1.0  0.73960  0.08236  0.62660  1.0000 0.0800916997
H   H95       1.0  0.66115  0.10864  0.54836  1.0000 0.0982385181
H   H96       1.0  0.63658  0.19371  0.41461  1.0000 0.0982385181
H   H97       1.0  0.68082  0.17089  0.79104  1.0000 0.0593061813
H   H98       1.0  0.63700  0.04384  0.89659  1.0000 0.0982385181
H   H99       1.0  0.88218  0.19251  0.74498  1.0000 0.0982385181
H   H100      1.0  0.75420  0.34938  0.68544  1.0000 0.0907170143
H   H101      1.0  0.58328  0.19930  0.60372  1.0000 0.0907170143
H   H102      1.0  0.97699  0.29524  0.20979  1.0000 0.0907170143
H   H103      1.0  0.67871  0.29506  0.50792  1.0000 0.0907170143
H   H104      1.0  0.97574  0.29427  0.50942  1.0000 0.0907170143
H   H105      1.0  0.57977  0.30029  0.64914  1.0000 0.0907170143
H   H106      1.0  0.92863  0.29927  0.11265  1.0000 0.0907170143
H   H107      1.0  0.57971  0.29739  0.46140  1.0000 0.0907170143
H   H108      1.0  0.92960  0.29658  0.65201  1.0000 0.0907170143
H   H109      1.0  0.52825  0.09405  0.79426  1.0000 0.0907170143
H   H110      1.0  0.52759  0.09184  0.57559  1.0000 0.0907170143
H   H111      1.0  0.78776  0.34802  0.31748  1.0000 0.0907170143
H   H112      1.0  0.78439  0.35048  0.53779  1.0000 0.0907170143
H   H113      1.0  0.01549  0.49194  0.67176  1.0000 0.0982385181
H   H114      1.0  0.25782  0.50983  0.34866  1.0000 0.0593061813
H   H115      1.0  0.39089  0.99290  0.83053  1.0000 0.0691933934
H   H116      1.0  0.09336  0.57048  0.54438  1.0000 0.0800916997
H   H117      1.0  0.33933  0.64609  0.21541  1.0000 0.0593061813
H   H118      1.0  0.24454  0.99224  0.92307  1.0000 0.0691933934
H   H119      1.0  0.21259  0.71077  0.17122  1.0000 0.0982385181
H   H120      1.0  0.36281  0.46836  0.41357  1.0000 0.0982385181
H   H121      1.0  0.15168  0.58394  0.20248  1.0000 0.0907170143
H   H122      1.0  0.29689  0.99223  0.77765  1.0000 0.0691933934
H   H123      1.0  0.28025  0.84749  0.66909  1.0000 0.0982385181
H   H124      1.0  0.00994  0.57001  0.78306  1.0000 0.0800916997
H   H125      1.0  0.13624  0.49237  0.81276  1.0000 0.0982385181
H   H126      1.0  0.24889  0.92595  0.54266  1.0000 0.0800916997
H   H127      1.0  0.20075  0.39024  0.17348  1.0000 0.0691933934
H   H128      1.0  0.30900  0.78151  0.57038  1.0000 0.0800916997
H   H129      1.0  0.38485  0.86066  0.44347  1.0000 0.0982385181
H   H130      1.0  0.32470  0.91819  0.97535  1.0000 0.0982385181
H   H131      1.0  0.03698  0.62844  0.84099  1.0000 0.0800916997
H   H132      1.0  0.23143  0.61958  0.23878  1.0000 0.0593061813
H   H133      1.0  0.44147  0.91936  0.77241  1.0000 0.0982385181
H   H134      1.0  0.20138  0.52246  0.09202  1.0000 0.0691933934
H   H135      1.0  0.36552  0.53739  0.32385  1.0000 0.0593061813
H   H136      1.0  0.40942  0.66416  0.21756  1.0000 0.0982385181
H   H137      1.0  0.03297  0.59982  0.44074  1.0000 0.0982385181
H   H138      1.0  0.16578  0.51500  0.36697  1.0000 0.0982385181
H   H139      1.0  0.20203  0.47202  0.22612  1.0000 0.0691933934
H   H140      1.0  0.24004  0.91948  0.85661  1.0000 0.0982385181
H   H141      1.0  0.29272  0.35869  0.42835  1.0000 0.0907170143
H   H142      1.0  0.30636  0.78198  0.33112  1.0000 0.0800916997
H   H143      1.0  0.38819  0.86099  0.30161  1.0000 0.0982385181
H   H144      1.0  0.41189  0.99604  0.21548  1.0000 0.0982385181
H   H145      1.0  0.23057  0.62032  0.89821  1.0000 0.0593061813
H   H146      1.0  0.29437  0.72664  0.05993  1.0000 0.0907170143
H   H147      1.0  0.03649  0.78391  0.84047  1.0000 0.0800916997
H   H148      1.0  0.02910  0.74129  0.30050  1.0000 0.0982385181
H   H149      1.0  0.30511  0.62725  0.57004  1.0000 0.0800916997
H   H150      1.0  0.38755  0.59804  0.44299  1.0000 0.0982385181
H   H151      1.0  0.36668  0.53857  0.76423  1.0000 0.0593061813
H   H152      1.0  0.41115  0.66524  0.69905  1.0000 0.0982385181
H   H153      1.0  0.16545  0.51450  0.94228  1.0000 0.0982385181
H   H154      1.0  0.37845  0.72598  0.82556  1.0000 0.0907170143
H   H155      1.0  0.29356  0.35857  0.91092  1.0000 0.0982385181
H   H156      1.0  0.25830  0.51111  0.87286  1.0000 0.0593061813
H   H157      1.0  0.48842  0.67722  0.88725  1.0000 0.0691933934
H   H158      1.0  0.52104  0.98207  0.28581  1.0000 0.0982385181
H   H159      1.0  0.34057  0.64661  0.79099  1.0000 0.0593061813
H   H160      1.0  0.13893  0.84598  0.81077  1.0000 0.0982385181
H   H161      1.0  0.21286  0.71193  0.89621  1.0000 0.0982385181
H   H162      1.0  0.35415  0.67695  0.93800  1.0000 0.0691933934
H   H163      1.0  0.25069  0.57103  0.54099  1.0000 0.0800916997
H   H164      1.0  0.27695  0.49182  0.67299  1.0000 0.0982385181
H   H165      1.0  0.36424  0.46631  0.74641  1.0000 0.0982385181
H   H166      1.0  0.01021  0.92568  0.78384  1.0000 0.0800916997
H   H167      1.0  0.01547  0.96930  0.19595  1.0000 0.0982385181
H   H168      1.0  0.09589  0.83864  0.27309  1.0000 0.0800916997
H   H169      1.0  0.51823  0.50023  0.68535  1.0000 0.0907170143
H   H170      1.0  0.52038  0.58272  0.20330  1.0000 0.0907170143
H   H171      1.0  0.27868  0.84769  0.19463  1.0000 0.0982385181
H   H172      1.0  0.25236  0.92299  0.27376  1.0000 0.0800916997
H   H173      1.0  0.07221  0.41290  0.60433  1.0000 0.0907170143
H   H174      1.0  0.36841  0.90008  0.11688  1.0000 0.0907170143
H   H175      1.0  0.07203  0.90180  0.11641  1.0000 0.0907170143
H   H176      1.0  0.36921  0.41315  0.60523  1.0000 0.0907170143
H   H177      1.0  0.07211  0.90165  0.90166  1.0000 0.0907170143
H   H178      1.0  0.36801  0.90255  0.60403  1.0000 0.0907170143
H   H179      1.0  0.06980  0.41435  0.90233  1.0000 0.0907170143
H   H180      1.0  0.46487  0.80671  0.50836  1.0000 0.0907170143
H   H181      1.0  0.46346  0.50905  0.50931  1.0000 0.0907170143
H   H182      1.0  0.46489  0.80548  0.21140  1.0000 0.0907170143
H   H183      1.0  0.46922  0.94708  0.11227  1.0000 0.0907170143
H   H184      1.0  0.11687  0.76038  0.11216  1.0000 0.0907170143
H   H185      1.0  0.46825  0.40949  0.46290  1.0000 0.0907170143
H   H186      1.0  0.46849  0.76056  0.65038  1.0000 0.0907170143
H   H187      1.0  0.11607  0.41022  0.00132  1.0000 0.0907170143
H   H188      1.0  0.46683  0.94839  0.46220  1.0000 0.0907170143
H   H189      1.0  0.11972  0.75948  0.99920  1.0000 0.0907170143
H   H190      1.0  0.46583  0.41086  0.65199  1.0000 0.0907170143
H   H191      1.0  0.46676  0.75909  0.11342  1.0000 0.0907170143
H   H192      1.0  0.11854  0.41108  0.46144  1.0000 0.0907170143
H   H193      1.0  0.04275  0.35825  0.79381  1.0000 0.0907170143
H   H194      1.0  0.26122  0.87173  0.06225  1.0000 0.0907170143
H   H195      1.0  0.26242  0.35961  0.57528  1.0000 0.0907170143
H   H196      1.0  0.26263  0.87305  0.79422  1.0000 0.0907170143
H   H197      1.0  0.26025  0.35978  0.79535  1.0000 0.0907170143
H   H198      1.0  0.51974  0.83495  0.31739  1.0000 0.0907170143
H   H199      1.0  0.51822  0.61714  0.53772  1.0000 0.0907170143
H   H200      1.0  0.51894  0.61440  0.31892  1.0000 0.0907170143
H   H201      1.0  0.00423  0.61756  0.31807  1.0000 0.0907170143
H   H202      1.0  0.46090  0.85732  0.99328  1.0000 0.0800916997
H   H203      1.0  0.46002  0.97578  0.99459  1.0000 0.0800916997
H   H204      1.0  0.14589  0.85788  0.99463  1.0000 0.0800916997
H   H205      1.0  0.02794  0.97645  0.99469  1.0000 0.0800916997
H   H206      1.0  0.45874  0.97635  0.56091  1.0000 0.0800916997
H   H207      1.0  0.46065  0.85813  0.67856  1.0000 0.0800916997
H   H208      1.0  0.02018  0.41673  0.11827  1.0000 0.0800916997
H   H209      1.0  0.02061  0.73146  0.11892  1.0000 0.0800916997
H   H210      1.0  0.01892  0.41806  0.43312  1.0000 0.0800916997
H   H211      1.0  0.88184  0.46799  0.74503  1.0000 0.0982385181
H   H212      1.0  0.63722  0.71188  0.89613  1.0000 0.0982385181
H   H213      1.0  0.65999  0.96704  0.55055  1.0000 0.0982385181
H   H214      1.0  0.68196  0.64792  0.78915  1.0000 0.0593061813
H   H215      1.0  0.73952  0.84186  0.62660  1.0000 0.0800916997
H   H216      1.0  0.81625  0.50911  0.87383  1.0000 0.0593061813
H   H217      1.0  0.89484  0.35860  0.91073  1.0000 0.0907170143
H   H218      1.0  0.90854  0.60031  0.91775  1.0000 0.0982385181
H   H219      1.0  0.83402  0.51526  0.94244  1.0000 0.0982385181
H   H220      1.0  0.79646  0.86878  0.48453  1.0000 0.0800916997
H   H221      1.0  0.76976  0.73791  0.56611  1.0000 0.0982385181
H   H222      1.0  0.68520  0.66489  0.69916  1.0000 0.0982385181
H   H223      1.0  0.95223  0.62689  0.57016  1.0000 0.0800916997
H   H224      1.0  0.79065  0.53731  0.76414  1.0000 0.0593061813
H   H225      1.0  0.70736  0.62091  0.89790  1.0000 0.0593061813
H   H226      1.0  0.65760  0.71409  0.28227  1.0000 0.0691933934
H   H227      1.0  0.52733  0.72717  0.90914  1.0000 0.0907170143
H   H228      1.0  0.69244  0.47305  0.73310  1.0000 0.0691933934
H   H229      1.0  0.79704  0.86815  0.83760  1.0000 0.0800916997
H   H230      1.0  0.74946  0.63499  0.18878  1.0000 0.0691933934
H   H231      1.0  0.76679  0.74136  0.91991  1.0000 0.0982385181
H   H232      1.0  0.64222  0.52346  0.09124  1.0000 0.0691933934
H   H233      1.0  0.90854  0.86285  0.91899  1.0000 0.0982385181
H   H234      1.0  0.83543  0.99658  0.94298  1.0000 0.0982385181
H   H235      1.0  0.74961  0.48779  0.41647  1.0000 0.0691933934
H   H236      1.0  0.64175  0.38932  0.73300  1.0000 0.0691933934
H   H237      1.0  0.65619  0.57983  0.33734  1.0000 0.0691933934
H   H238      1.0  0.55937  0.47265  0.22550  1.0000 0.0691933934
H   H239      1.0  0.95323  0.86706  0.33088  1.0000 0.0800916997
H   H240      1.0  0.65718  0.63452  0.41688  1.0000 0.0691933934
H   H241      1.0  0.55576  0.52498  0.73486  1.0000 0.0691933934
H   H242      1.0  0.88376  0.58021  0.19060  1.0000 0.0691933934
H   H243      1.0  0.68327  0.99677  0.36777  1.0000 0.0982385181
H   H244      1.0  0.80417  0.48651  0.28284  1.0000 0.0691933934
H   H245      1.0  0.69351  0.38643  0.17535  1.0000 0.0691933934
H   H246      1.0  0.72307  0.79025  0.13635  1.0000 0.0982385181
H   H247      1.0  0.60509  0.63726  0.25647  1.0000 0.0982385181
H   H248      1.0  0.67122  0.58061  0.68345  1.0000 0.0907170143
H   H249      1.0  0.60425  0.78960  0.33979  1.0000 0.0982385181
H   H250      1.0  0.75386  0.98283  0.20210  1.0000 0.0907170143
H   H251      1.0  0.80597  0.55413  0.13941  1.0000 0.0982385181
H   H252      1.0  0.95969  0.43525  0.25495  1.0000 0.0982385181
H   H253      1.0  0.66147  0.97085  0.80970  1.0000 0.0982385181
H   H254      1.0  0.72375  0.43482  0.34002  1.0000 0.0982385181
H   H255      1.0  0.73881  0.83949  0.78350  1.0000 0.0800916997
H   H256      1.0  0.60369  0.55356  0.49262  1.0000 0.0982385181
H   H257      1.0  0.58244  0.90284  0.90266  1.0000 0.0907170143
H   H258      1.0  0.58270  0.90172  0.60515  1.0000 0.0907170143
H   H259      1.0  0.67923  0.80548  0.50927  1.0000 0.0907170143
H   H260      1.0  0.97536  0.80707  0.21152  1.0000 0.0907170143
H   H261      1.0  0.97668  0.50823  0.50914  1.0000 0.0907170143
H   H262      1.0  0.93075  0.40837  0.65140  1.0000 0.0907170143
H   H263      1.0  0.57862  0.76010  0.00173  1.0000 0.0907170143
H   H264      1.0  0.92957  0.94753  0.00208  1.0000 0.0907170143
H   H265      1.0  0.57844  0.94806  0.46283  1.0000 0.0907170143
H   H266      1.0  0.92725  0.41176  0.00133  1.0000 0.0907170143
H   H267      1.0  0.58081  0.75864  0.65103  1.0000 0.0907170143
H   H268      1.0  0.93026  0.94848  0.11301  1.0000 0.0907170143
H   H269      1.0  0.58075  0.94980  0.99860  1.0000 0.0907170143
H   H270      1.0  0.52767  0.87286  0.79597  1.0000 0.0907170143
H   H271      1.0  0.78641  0.61444  0.53839  1.0000 0.0907170143
H   H272      1.0  0.78494  0.83559  0.31961  1.0000 0.0907170143
H   H273      1.0  0.58641  0.84967  0.43420  1.0000 0.0800916997
H   H274      1.0  0.89956  0.41978  0.11872  1.0000 0.0800916997
H   H275      1.0  0.58857  0.73162  0.55311  1.0000 0.0800916997
H   H276      1.0  0.90180  0.85014  0.12152  1.0000 0.0800916997
H   H277      1.0  0.58850  0.41552  0.43396  1.0000 0.0800916997
H   H278      1.0  0.58377  0.41979  0.55248  1.0000 0.0800916997
H   H279      1.0  0.58510  0.73149  0.12130  1.0000 0.0800916997
H   H280      1.0  0.59010  0.84979  0.11659  1.0000 0.0800916997
H   H281      1.0  0.90239  0.41495  0.55424  1.0000 0.0800916997
H   H282      1.0  0.29756  0.22137  0.69500  1.0000 0.0691933934
H   H283      1.0  0.32429  0.27203  0.77272  1.0000 0.0982385181
H   H284      1.0  0.88460  0.48643  0.33673  1.0000 0.0691933934
H   H285      1.0  0.80382  0.57984  0.41839  1.0000 0.0691933934
H   H286      1.0  0.80418  0.71455  0.18861  1.0000 0.0691933934
H   H287      1.0  0.88450  0.63416  0.28340  1.0000 0.0691933934
H   H288      1.0  0.74974  0.71465  0.33680  1.0000 0.0691933934
C   C1        1.0  0.43294  0.07790  0.01176  1.0000 0.0593061813
C   C2        1.0  0.41050  0.11898  0.02896  1.0000 0.0593061813
C   C3        1.0  0.11308  0.16574  0.01978  1.0000 0.2917955529
C   C4        1.0  0.15713  0.16726  0.01839  1.0000 0.0504926684
C   C5        1.0  0.24864  0.26326  0.00977  1.0000 0.2968837282
C   C6        1.0  0.32261  0.25641  0.00704  1.0000 0.2129188816
C   C7        1.0  0.93512  0.26369  0.01041  1.0000 0.2968837282
C   C8        1.0  0.87172  0.25631  0.00644  1.0000 0.2129188816
C   C9        1.0  0.93621  0.07956  0.00957  1.0000 0.0593061813
C   C10       1.0  0.90035  0.12116  0.02596  1.0000 0.0593061813
C   C11       1.0  0.33425  0.98801  0.02086  1.0000 0.2917955529
C   C12       1.0  0.15936  0.94443  0.01968  1.0000 0.2917955529
C   C13       1.0  0.24846  0.76562  0.01031  1.0000 0.0593061813
C   C14       1.0  0.29003  0.72988  0.02677  1.0000 0.0593061813
C   C15       1.0  0.11508  0.98835  0.01859  1.0000 0.0504926684
C   C16       1.0  0.33607  0.94373  0.01936  1.0000 0.0504926684
C   C17       1.0  0.43274  0.76612  0.00971  1.0000 0.2968837282
C   C18       1.0  0.42617  0.70229  0.00569  1.0000 0.2199058828
C   C19       1.0  0.04376  0.60946  0.02525  1.0000 0.1969521866
C   C20       1.0  0.95105  0.52127  0.03158  1.0000 0.1806399659
C   C21       1.0  0.95447  0.78346  0.03093  1.0000 0.1888299553
C   C22       1.0  0.69026  0.78442  0.02954  1.0000 0.1888299553
C   C23       1.0  0.77863  0.61158  0.02367  1.0000 0.1888299553
C   C24       1.0  0.78143  0.87346  0.02369  1.0000 0.1969521866
C   C25       1.0  0.11484  0.31666  0.69206  1.0000 0.2917955529
C   C26       1.0  0.16056  0.24804  0.73990  1.0000 0.2199058828
C   C27       1.0  0.15883  0.16507  0.64742  1.0000 0.2917955529
C   C28       1.0  0.20711  0.13985  0.69282  1.0000 0.2199058828
C   C29       1.0  0.10636  0.19023  0.50465  1.0000 0.2821644122
C   C30       1.0  0.25679  0.13244  0.46307  1.0000 0.2968837282
C   C31       1.0  0.24776  0.26363  0.46905  1.0000 0.2968837282
C   C32       1.0  0.32236  0.25631  0.40547  1.0000 0.2129188816
C   C33       1.0  0.09074  0.12158  0.52286  1.0000 0.2129188816
C   C34       1.0  0.26891  0.14667  0.38282  1.0000 0.2199058828
C   C35       1.0  0.30909  0.03628  0.95236  1.0000 0.2199058828
C   C36       1.0  0.30111  0.08732  0.13797  1.0000 0.2917955529
C   C37       1.0  0.31681  0.10039  0.19014  1.0000 0.2199058828
C   C38       1.0  0.33472  0.31733  0.64759  1.0000 0.2917955529
C   C39       1.0  0.30966  0.24879  0.69276  1.0000 0.2199058828
C   C40       1.0  0.43159  0.30915  0.46916  1.0000 0.2968837282
C   C41       1.0  0.42448  0.30682  0.40468  1.0000 0.2129188816
C   C42       1.0  0.16029  0.03735  0.84239  1.0000 0.2199058828
C   C43       1.0  0.48711  0.16548  0.69177  1.0000 0.2917955529
C   C44       1.0  0.41865  0.14027  0.74035  1.0000 0.2199058828
C   C45       1.0  0.47822  0.26408  0.78153  1.0000 0.0593061813
C   C46       1.0  0.49540  0.24190  0.82258  1.0000 0.0593061813
C   C47       1.0  0.41808  0.03758  0.69321  1.0000 0.2199058828
C   C48       1.0  0.47640  0.07891  0.46991  1.0000 0.2968837282
C   C49       1.0  0.47325  0.15325  0.40599  1.0000 0.2129188816
C   C50       1.0  0.15858  0.14006  0.95161  1.0000 0.2199058828
C   C51       1.0  0.15809  0.31878  0.86751  1.0000 0.2917955529
C   C52       1.0  0.20651  0.25042  0.84213  1.0000 0.2199058828
C   C53       1.0  0.24861  0.30784  0.96635  1.0000 0.0593061813
C   C54       1.0  0.28975  0.32481  0.94455  1.0000 0.0593061813
C   C55       1.0  0.07643  0.21939  0.22147  1.0000 0.2917955529
C   C56       1.0  0.11694  0.27259  0.27813  1.0000 0.2968837282
C   C57       1.0  0.05802  0.15324  0.28978  1.0000 0.2129188816
C   C58       1.0  0.19732  0.21926  0.26281  1.0000 0.2199058828
C   C59       1.0  0.38997  0.02766  0.30951  1.0000 0.2199058828
C   C60       1.0  0.07754  0.22019  0.47137  1.0000 0.0410340769
C   C61       1.0  0.05566  0.19599  0.46574  1.0000 0.0593061813
C   C62       1.0  0.11720  0.27198  0.32229  1.0000 0.0504926684
C   C63       1.0  0.16179  0.24202  0.33461  1.0000 0.0593061813
C   C64       1.0  0.11377  0.31681  0.86995  1.0000 0.0504926684
C   C65       1.0  0.12002  0.27769  0.85766  1.0000 0.0593061813
C   C66       1.0  0.10910  0.18758  0.19112  1.0000 0.0410340769
C   C67       1.0  0.11445  0.13595  0.21499  1.0000 0.0593061813
C   C68       1.0  0.25706  0.13116  0.13801  1.0000 0.0593061813
C   C69       1.0  0.24552  0.15932  0.16643  1.0000 0.0691933934
C   C70       1.0  0.20247  0.15445  0.97963  1.0000 0.0593061813
C   C71       1.0  0.30087  0.08849  0.46305  1.0000 0.0504926684
C   C72       1.0  0.32803  0.07571  0.41876  1.0000 0.0593061813
C   C73       1.0  0.43278  0.07912  0.46888  1.0000 0.0593061813
C   C74       1.0  0.32367  0.03374  0.65403  1.0000 0.0593061813
C   C75       1.0  0.41069  0.12053  0.43293  1.0000 0.0593061813
C   C76       1.0  0.33640  0.31582  0.69161  1.0000 0.0504926684
C   C77       1.0  0.43345  0.30732  0.78206  1.0000 0.2968837282
C   C78       1.0  0.42673  0.30359  0.85643  1.0000 0.2129188816
C   C79       1.0  0.32392  0.27679  0.73680  1.0000 0.0593061813
C   C80       1.0  0.12111  0.03362  0.97950  1.0000 0.0593061813
C   C81       1.0  0.48569  0.16678  0.64771  1.0000 0.0504926684
C   C82       1.0  0.47487  0.26439  0.46922  1.0000 0.0593061813
C   C83       1.0  0.44667  0.15423  0.65412  1.0000 0.0593061813
C   C84       1.0  0.49091  0.24206  0.43366  1.0000 0.0593061813
C   C85       1.0  0.47644  0.07844  0.96725  1.0000 0.2968837282
C   C86       1.0  0.47250  0.15277  0.96074  1.0000 0.2199058828
C   C87       1.0  0.44668  0.03466  0.85652  1.0000 0.0593061813
C   C88       1.0  0.11464  0.16643  0.69147  1.0000 0.0504926684
C   C89       1.0  0.12083  0.15377  0.73679  1.0000 0.0593061813
C   C90       1.0  0.15865  0.31556  0.64767  1.0000 0.0504926684
C   C91       1.0  0.24777  0.30813  0.46810  1.0000 0.0593061813
C   C92       1.0  0.20405  0.27673  0.65354  1.0000 0.0593061813
C   C93       1.0  0.28906  0.32493  0.43218  1.0000 0.0593061813
C   C94       1.0  0.09378  0.18797  0.62724  1.0000 0.1888299553
C   C95       1.0  0.09300  0.18895  0.08186  1.0000 0.1888299553
C   C96       1.0  0.10780  0.26715  0.47136  1.0000 0.1806399659
C   C97       1.0  0.10963  0.26470  0.14456  1.0000 0.1806399659
C   C98       1.0  0.26781  0.09946  0.53593  1.0000 0.1969521866
C   C99       1.0  0.26739  0.09729  0.08820  1.0000 0.1969521866
C   C100      1.0  0.00402  0.09771  0.80119  1.0000 0.1888299553
C   C101      1.0  0.00311  0.09844  0.08863  1.0000 0.1888299553
C   C102      1.0  0.04389  0.32266  0.31209  1.0000 0.1969521866
C   C103      1.0  0.18011  0.29091  0.52766  1.0000 0.1806399659
C   C104      1.0  0.45845  0.01089  0.99338  1.0000 0.1806399659
C   C105      1.0  0.45806  0.28954  0.52883  1.0000 0.1806399659
C   C106      1.0  0.46019  0.28923  0.71443  1.0000 0.1806399659
C   C107      1.0  0.45772  0.01155  0.52873  1.0000 0.1806399659
C   C108      1.0  0.18158  0.28990  0.99082  1.0000 0.1806399659
C   C109      1.0  0.93580  0.30773  0.78179  1.0000 0.2968837282
C   C110      1.0  0.87124  0.30544  0.85564  1.0000 0.2129188816
C   C111      1.0  0.93090  0.08707  0.83473  1.0000 0.2968837282
C   C112      1.0  0.93671  0.07876  0.96567  1.0000 0.2968837282
C   C113      1.0  0.87242  0.15280  0.95855  1.0000 0.2129188816
C   C114      1.0  0.85046  0.09927  0.84959  1.0000 0.2199058828
C   C115      1.0  0.65765  0.19079  0.63863  1.0000 0.2821644122
C   C116      1.0  0.60538  0.13280  0.79031  1.0000 0.2917955529
C   C117      1.0  0.72409  0.12251  0.62259  1.0000 0.2129188816
C   C118      1.0  0.65824  0.14793  0.80300  1.0000 0.2199058828
C   C119      1.0  0.60539  0.08700  0.46403  1.0000 0.2968837282
C   C120      1.0  0.65867  0.09927  0.38356  1.0000 0.2199058828
C   C121      1.0  0.97109  0.18967  0.19020  1.0000 0.2821644122
C   C122      1.0  0.92975  0.13200  0.13859  1.0000 0.2968837282
C   C123      1.0  0.98919  0.12124  0.25644  1.0000 0.2129188816
C   C124      1.0  0.84922  0.14696  0.19163  1.0000 0.2199058828
C   C125      1.0  0.77651  0.02873  0.26317  1.0000 0.2199058828
C   C126      1.0  0.68872  0.21916  0.47317  1.0000 0.2821644122
C   C127      1.0  0.74623  0.27253  0.32222  1.0000 0.2917955529
C   C128      1.0  0.75660  0.15264  0.49009  1.0000 0.2129188816
C   C129      1.0  0.73002  0.22034  0.30967  1.0000 0.2199058828
C   C130      1.0  0.73083  0.02809  0.92261  1.0000 0.2199058828
C   C131      1.0  0.94051  0.21891  0.60932  1.0000 0.2821644122
C   C132      1.0  0.78928  0.27343  0.64964  1.0000 0.2917955529
C   C133      1.0  0.95662  0.15273  0.59104  1.0000 0.2129188816
C   C134      1.0  0.77677  0.22047  0.73030  1.0000 0.2199058828
C   C135      1.0  0.57386  0.00536  0.15348  1.0000 0.2129188816
C   C136      1.0  0.72539  0.00544  0.10576  1.0000 0.2129188816
C   C137      1.0  0.68934  0.22125  0.60932  1.0000 0.0410340769
C   C138      1.0  0.74106  0.19745  0.58720  1.0000 0.0593061813
C   C139      1.0  0.74562  0.27307  0.64944  1.0000 0.0593061813
C   C140      1.0  0.71804  0.24382  0.69411  1.0000 0.0691933934
C   C141      1.0  0.62237  0.00558  0.25820  1.0000 0.2129188816
C   C142      1.0  0.93871  0.22006  0.22197  1.0000 0.0410340769
C   C143      1.0  0.93333  0.19620  0.27360  1.0000 0.0593061813
C   C144      1.0  0.79057  0.27164  0.27870  1.0000 0.0593061813
C   C145      1.0  0.80213  0.24273  0.25104  1.0000 0.0691933934
C   C146      1.0  0.93429  0.30811  0.96679  1.0000 0.0593061813
C   C147      1.0  0.89855  0.32486  0.94441  1.0000 0.0593061813
C   C148      1.0  0.93005  0.08757  0.13917  1.0000 0.0504926684
C   C149      1.0  0.88547  0.07520  0.16860  1.0000 0.0593061813
C   C150      1.0  0.65804  0.18770  0.50241  1.0000 0.0410340769
C   C151      1.0  0.68150  0.13604  0.52516  1.0000 0.0593061813
C   C152      1.0  0.60473  0.13150  0.46366  1.0000 0.0504926684
C   C153      1.0  0.63398  0.15909  0.41893  1.0000 0.0593061813
C   C154      1.0  0.60565  0.08860  0.83399  1.0000 0.0593061813
C   C155      1.0  0.63459  0.07658  0.86184  1.0000 0.0691933934
C   C156      1.0  0.96996  0.18712  0.64201  1.0000 0.0410340769
C   C157      1.0  0.99233  0.13546  0.64741  1.0000 0.0593061813
C   C158      1.0  0.93089  0.13092  0.79058  1.0000 0.0504926684
C   C159      1.0  0.88632  0.15825  0.77822  1.0000 0.0593061813
C   C160      1.0  0.93541  0.26340  0.78278  1.0000 0.0593061813
C   C161      1.0  0.89956  0.24130  0.82439  1.0000 0.0593061813
C   C162      1.0  0.54947  0.18818  0.62640  1.0000 0.1888299553
C   C163      1.0  0.95443  0.32873  0.22144  1.0000 0.1888299553
C   C164      1.0  0.69013  0.32867  0.48553  1.0000 0.1888299553
C   C165      1.0  0.95329  0.32802  0.48690  1.0000 0.1888299553
C   C166      1.0  0.61209  0.26773  0.63995  1.0000 0.1806399659
C   C167      1.0  0.93832  0.26672  0.14487  1.0000 0.1806399659
C   C168      1.0  0.61205  0.26504  0.47102  1.0000 0.1806399659
C   C169      1.0  0.93912  0.26432  0.64229  1.0000 0.1806399659
C   C170      1.0  0.55522  0.09935  0.80057  1.0000 0.1969521866
C   C171      1.0  0.55480  0.09784  0.53709  1.0000 0.1888299553
C   C172      1.0  0.78097  0.32157  0.31193  1.0000 0.1888299553
C   C173      1.0  0.77884  0.32351  0.57636  1.0000 0.1969521866
C   C174      1.0  0.99552  0.28804  0.71522  1.0000 0.1806399659
C   C175      1.0  0.99588  0.01176  0.99250  1.0000 0.1806399659
C   C176      1.0  0.99353  0.29098  0.99258  1.0000 0.1806399659
C   C177      1.0  0.48657  0.94530  0.86818  1.0000 0.2917955529
C   C178      1.0  0.41832  0.99061  0.84267  1.0000 0.2199058828
C   C179      1.0  0.47710  0.76570  0.96603  1.0000 0.0593061813
C   C180      1.0  0.49408  0.73010  0.94338  1.0000 0.0593061813
C   C181      1.0  0.36036  0.93559  0.19114  1.0000 0.2821644122
C   C182      1.0  0.29249  0.91912  0.25801  1.0000 0.2199058828
C   C183      1.0  0.20741  0.98980  0.95084  1.0000 0.2199058828
C   C184      1.0  0.10726  0.80120  0.19071  1.0000 0.2821644122
C   C185      1.0  0.25793  0.75956  0.13893  1.0000 0.0504926684
C   C186      1.0  0.24571  0.71494  0.16836  1.0000 0.0504926684
C   C187      1.0  0.09119  0.81877  0.25732  1.0000 0.2129188816
C   C188      1.0  0.35893  0.48833  0.50379  1.0000 0.2821644122
C   C189      1.0  0.30082  0.43630  0.46300  1.0000 0.0593061813
C   C190      1.0  0.32834  0.46533  0.41807  1.0000 0.0691933934
C   C191      1.0  0.29099  0.55516  0.52108  1.0000 0.2129188816
C   C192      1.0  0.11480  0.98919  0.86754  1.0000 0.2917955529
C   C193      1.0  0.48672  0.98960  0.64762  1.0000 0.2917955529
C   C194      1.0  0.33391  0.94462  0.69211  1.0000 0.2917955529
C   C195      1.0  0.30902  0.98989  0.74039  1.0000 0.2199058828
C   C196      1.0  0.35930  0.80106  0.63998  1.0000 0.0410340769
C   C197      1.0  0.30769  0.82359  0.64524  1.0000 0.0593061813
C   C198      1.0  0.30182  0.76105  0.79017  1.0000 0.2821644122
C   C199      1.0  0.43399  0.76606  0.78109  1.0000 0.0593061813
C   C200      1.0  0.31741  0.68023  0.80288  1.0000 0.2199058828
C   C201      1.0  0.41195  0.72987  0.82207  1.0000 0.0593061813
C   C202      1.0  0.10650  0.48908  0.89180  1.0000 0.0410340769
C   C203      1.0  0.11211  0.51276  0.84010  1.0000 0.0593061813
C   C204      1.0  0.25678  0.43649  0.83433  1.0000 0.2821644122
C   C205      1.0  0.27014  0.48855  0.84991  1.0000 0.2199058828
C   C206      1.0  0.11118  0.40063  0.14646  1.0000 0.2968837282
C   C207      1.0  0.17479  0.40481  0.15324  1.0000 0.2199058828
C   C208      1.0  0.38822  0.90718  0.47263  1.0000 0.0410340769
C   C209      1.0  0.36451  0.88448  0.46741  1.0000 0.0593061813
C   C210      1.0  0.44277  0.94692  0.32218  1.0000 0.2821644122
C   C211      1.0  0.07625  0.77107  0.92181  1.0000 0.2821644122
C   C212      1.0  0.11671  0.62039  0.97456  1.0000 0.2968837282
C   C213      1.0  0.11172  0.62854  0.10263  1.0000 0.2968837282
C   C214      1.0  0.17565  0.55417  0.10649  1.0000 0.2199058828
C   C215      1.0  0.05751  0.78768  0.85573  1.0000 0.2129188816
C   C216      1.0  0.19707  0.60824  0.92101  1.0000 0.2199058828
C   C217      1.0  0.38735  0.51958  0.60931  1.0000 0.2821644122
C   C218      1.0  0.44157  0.57713  0.64972  1.0000 0.2917955529
C   C219      1.0  0.32078  0.58727  0.59101  1.0000 0.2129188816
C   C220      1.0  0.38915  0.56160  0.73061  1.0000 0.2199058828
C   C221      1.0  0.38856  0.76989  0.22286  1.0000 0.2821644122
C   C222      1.0  0.44199  0.61888  0.27937  1.0000 0.0504926684
C   C223      1.0  0.41245  0.63111  0.25203  1.0000 0.0593061813
C   C224      1.0  0.32206  0.78639  0.29086  1.0000 0.2129188816
C   C225      1.0  0.07804  0.52062  0.47124  1.0000 0.0410340769
C   C226      1.0  0.05568  0.57228  0.46572  1.0000 0.0593061813
C   C227      1.0  0.11645  0.57757  0.32240  1.0000 0.0504926684
C   C228      1.0  0.16147  0.54953  0.33402  1.0000 0.0593061813
C   C229      1.0  0.11116  0.44565  0.33121  1.0000 0.2968837282
C   C230      1.0  0.17573  0.45200  0.25734  1.0000 0.2199058828
C   C231      1.0  0.11130  0.40176  0.33079  1.0000 0.0593061813
C   C232      1.0  0.14704  0.38502  0.28939  1.0000 0.0593061813
C   C233      1.0  0.39121  0.90636  0.22246  1.0000 0.0410340769
C   C234      1.0  0.36779  0.88397  0.27426  1.0000 0.0593061813
C   C235      1.0  0.44300  0.94695  0.27812  1.0000 0.0593061813
C   C236      1.0  0.41411  0.99179  0.25026  1.0000 0.0691933934
C   C237      1.0  0.07614  0.77013  0.22173  1.0000 0.0410340769
C   C238      1.0  0.05332  0.76484  0.27335  1.0000 0.0691933934
C   C239      1.0  0.11662  0.62107  0.27807  1.0000 0.2821644122
C   C240      1.0  0.11221  0.62869  0.14636  1.0000 0.0593061813
C   C241      1.0  0.19770  0.60788  0.26203  1.0000 0.2199058828
C   C242      1.0  0.14810  0.58758  0.16873  1.0000 0.0593061813
C   C243      1.0  0.39017  0.51926  0.47239  1.0000 0.0504926684
C   C244      1.0  0.36685  0.57096  0.46680  1.0000 0.0593061813
C   C245      1.0  0.44148  0.57539  0.32384  1.0000 0.2968837282
C   C246      1.0  0.38824  0.56027  0.31173  1.0000 0.2199058828
C   C247      1.0  0.39076  0.77033  0.60853  1.0000 0.2821644122
C   C248      1.0  0.44204  0.62077  0.64984  1.0000 0.0593061813
C   C249      1.0  0.41333  0.63257  0.69469  1.0000 0.0691933934
C   C250      1.0  0.32446  0.78617  0.59057  1.0000 0.2129188816
C   C251      1.0  0.07460  0.51990  0.92316  1.0000 0.2821644122
C   C252      1.0  0.11683  0.57620  0.97483  1.0000 0.0504926684
C   C253      1.0  0.16130  0.54888  0.94520  1.0000 0.0593061813
C   C254      1.0  0.11108  0.44478  0.10254  1.0000 0.0593061813
C   C255      1.0  0.05709  0.58814  0.85659  1.0000 0.2129188816
C   C256      1.0  0.14632  0.46772  0.08591  1.0000 0.0593061813
C   C257      1.0  0.48520  0.94520  0.69142  1.0000 0.0504926684
C   C258      1.0  0.47755  0.76685  0.78125  1.0000 0.2968837282
C   C259      1.0  0.47398  0.70281  0.85552  1.0000 0.2199058828
C   C260      1.0  0.44614  0.95115  0.73671  1.0000 0.0593061813
C   C261      1.0  0.33585  0.98856  0.64788  1.0000 0.0504926684
C   C262      1.0  0.35732  0.93790  0.50409  1.0000 0.2821644122
C   C263      1.0  0.28913  0.92158  0.52229  1.0000 0.2129188816
C   C264      1.0  0.15882  0.94496  0.86883  1.0000 0.0504926684
C   C265      1.0  0.10910  0.80036  0.88996  1.0000 0.0410340769
C   C266      1.0  0.11435  0.82287  0.83836  1.0000 0.0593061813
C   C267      1.0  0.25770  0.76116  0.83390  1.0000 0.0504926684
C   C268      1.0  0.24579  0.71629  0.86166  1.0000 0.0691933934
C   C269      1.0  0.24828  0.76651  0.96594  1.0000 0.2968837282
C   C270      1.0  0.32264  0.70260  0.95867  1.0000 0.2199058828
C   C271      1.0  0.20414  0.95105  0.85634  1.0000 0.0593061813
C   C272      1.0  0.35596  0.48886  0.64251  1.0000 0.0410340769
C   C273      1.0  0.30426  0.51224  0.64813  1.0000 0.0593061813
C   C274      1.0  0.30092  0.43602  0.79061  1.0000 0.0504926684
C   C275      1.0  0.32927  0.46433  0.77894  1.0000 0.0593061813
C   C276      1.0  0.48550  0.98937  0.86933  1.0000 0.0504926684
C   C277      1.0  0.35748  0.80076  0.19176  1.0000 0.0504926684
C   C278      1.0  0.30588  0.82373  0.21521  1.0000 0.0691933934
C   C279      1.0  0.30132  0.76012  0.13952  1.0000 0.2968837282
C   C280      1.0  0.32393  0.94986  0.98021  1.0000 0.0593061813
C   C281      1.0  0.31648  0.67956  0.19265  1.0000 0.2199058828
C   C282      1.0  0.10665  0.48875  0.50474  1.0000 0.2821644122
C   C283      1.0  0.25725  0.43538  0.46318  1.0000 0.2917955529
C   C284      1.0  0.08992  0.55502  0.52329  1.0000 0.2129188816
C   C285      1.0  0.26968  0.48771  0.38228  1.0000 0.2199058828
C   C286      1.0  0.09460  0.37918  0.62693  1.0000 0.1888299553
C   C287      1.0  0.35720  0.92269  0.08313  1.0000 0.1888299553
C   C288      1.0  0.09436  0.92432  0.08252  1.0000 0.1806399659
C   C289      1.0  0.35771  0.37956  0.62768  1.0000 0.1888299553
C   C290      1.0  0.09461  0.92416  0.89030  1.0000 0.1888299553
C   C291      1.0  0.35678  0.92473  0.62681  1.0000 0.1888299553
C   C292      1.0  0.09262  0.38066  0.89105  1.0000 0.1888299553
C   C293      1.0  0.49837  0.78431  0.48565  1.0000 0.1888299553
C   C294      1.0  0.49711  0.52041  0.48679  1.0000 0.1888299553
C   C295      1.0  0.49855  0.78292  0.22278  1.0000 0.1888299553
C   C296      1.0  0.43703  0.93746  0.14493  1.0000 0.1806399659
C   C297      1.0  0.10759  0.76956  0.14469  1.0000 0.1806399659
C   C298      1.0  0.43599  0.44207  0.47214  1.0000 0.1806399659
C   C299      1.0  0.43622  0.76985  0.64082  1.0000 0.1806399659
C   C300      1.0  0.10677  0.44269  0.96889  1.0000 0.1806399659
C   C301      1.0  0.43451  0.93876  0.47176  1.0000 0.1806399659
C   C302      1.0  0.10970  0.76923  0.96705  1.0000 0.1806399659
C   C303      1.0  0.43335  0.44302  0.64241  1.0000 0.1806399659
C   C304      1.0  0.43444  0.76885  0.14573  1.0000 0.1806399659
C   C305      1.0  0.10882  0.44340  0.47117  1.0000 0.1806399659
C   C306      1.0  0.00417  0.38519  0.80023  1.0000 0.1969521866
C   C307      1.0  0.26754  0.83310  0.08913  1.0000 0.1888299553
C   C308      1.0  0.26797  0.38613  0.53649  1.0000 0.1969521866
C   C309      1.0  0.26801  0.83448  0.80040  1.0000 0.1888299553
C   C310      1.0  0.26672  0.38662  0.80067  1.0000 0.1888299553
C   C311      1.0  0.49282  0.87355  0.31180  1.0000 0.1888299553
C   C312      1.0  0.49164  0.61078  0.57646  1.0000 0.1969521866
C   C313      1.0  0.49193  0.60895  0.31282  1.0000 0.1969521866
C   C314      1.0  0.04292  0.61120  0.31250  1.0000 0.1888299553
C   C315      1.0  0.45924  0.82520  0.99181  1.0000 0.1806399659
C   C316      1.0  0.18102  0.82560  0.99287  1.0000 0.1806399659
C   C317      1.0  0.45931  0.82595  0.71380  1.0000 0.1806399659
C   C318      1.0  0.05208  0.41847  0.12009  1.0000 0.1806399659
C   C319      1.0  0.05268  0.69616  0.12056  1.0000 0.1806399659
C   C320      1.0  0.05131  0.41958  0.39808  1.0000 0.1806399659
C   C321      1.0  0.97044  0.48790  0.64150  1.0000 0.0410340769
C   C322      1.0  0.99240  0.51197  0.64716  1.0000 0.0593061813
C   C323      1.0  0.93091  0.43569  0.79010  1.0000 0.0593061813
C   C324      1.0  0.88608  0.46485  0.77822  1.0000 0.0593061813
C   C325      1.0  0.65673  0.80158  0.89203  1.0000 0.2821644122
C   C326      1.0  0.60498  0.76099  0.83424  1.0000 0.0504926684
C   C327      1.0  0.63450  0.71631  0.86150  1.0000 0.0593061813
C   C328      1.0  0.72320  0.81941  0.82382  1.0000 0.2199058828
C   C329      1.0  0.97187  0.93717  0.89246  1.0000 0.2821644122
C   C330      1.0  0.98964  0.92146  0.82403  1.0000 0.2129188816
C   C331      1.0  0.65697  0.93786  0.50389  1.0000 0.0504926684
C   C332      1.0  0.68053  0.94323  0.52659  1.0000 0.0593061813
C   C333      1.0  0.93377  0.39204  0.24298  1.0000 0.0504926684
C   C334      1.0  0.92783  0.43081  0.25558  1.0000 0.0593061813
C   C335      1.0  0.56151  0.76383  0.42114  1.0000 0.0504926684
C   C336      1.0  0.57099  0.94209  0.33156  1.0000 0.0593061813
C   C337      1.0  0.60013  0.75791  0.37565  1.0000 0.0593061813
C   C338      1.0  0.55446  0.97825  0.29011  1.0000 0.0593061813
C   C339      1.0  0.88707  0.54226  0.09548  1.0000 0.0504926684
C   C340      1.0  0.93770  0.52096  0.92192  1.0000 0.0410340769
C   C341      1.0  0.93271  0.57253  0.89784  1.0000 0.0593061813
C   C342      1.0  0.78875  0.57761  0.97406  1.0000 0.0504926684
C   C343      1.0  0.80097  0.54976  0.94503  1.0000 0.0504926684
C   C344      1.0  0.79679  0.44470  0.10402  1.0000 0.0593061813
C   C345      1.0  0.84189  0.55449  0.13466  1.0000 0.0593061813
C   C346      1.0  0.75509  0.46655  0.08790  1.0000 0.0593061813
C   C347      1.0  0.71175  0.71869  0.46617  1.0000 0.0504926684
C   C348      1.0  0.69025  0.76859  0.61081  1.0000 0.0410340769
C   C349      1.0  0.74195  0.76299  0.58868  1.0000 0.0593061813
C   C350      1.0  0.74693  0.61947  0.65024  1.0000 0.0504926684
C   C351      1.0  0.71951  0.63169  0.69490  1.0000 0.0593061813
C   C352      1.0  0.61431  0.62812  0.64476  1.0000 0.0593061813
C   C353      1.0  0.72407  0.67333  0.46027  1.0000 0.0593061813
C   C354      1.0  0.63638  0.58604  0.68043  1.0000 0.0593061813
C   C355      1.0  0.88889  0.76372  0.24415  1.0000 0.0504926684
C   C356      1.0  0.94100  0.90612  0.22248  1.0000 0.2821644122
C   C357      1.0  0.78947  0.94779  0.27885  1.0000 0.2917955529
C   C358      1.0  0.79926  0.94268  0.14665  1.0000 0.0593061813
C   C359      1.0  0.84353  0.75781  0.25649  1.0000 0.0593061813
C   C360      1.0  0.95713  0.88791  0.29078  1.0000 0.2129188816
C   C361      1.0  0.75785  0.97886  0.16842  1.0000 0.0593061813
C   C362      1.0  0.71147  0.39207  0.42119  1.0000 0.0504926684
C   C363      1.0  0.61404  0.39987  0.33159  1.0000 0.0593061813
C   C364      1.0  0.72398  0.43078  0.37571  1.0000 0.0593061813
C   C365      1.0  0.63566  0.38278  0.29059  1.0000 0.0593061813
C   C366      1.0  0.93377  0.71924  0.09423  1.0000 0.0504926684
C   C367      1.0  0.92784  0.67380  0.13297  1.0000 0.0593061813
C   C368      1.0  0.56056  0.54164  0.46651  1.0000 0.0504926684
C   C369      1.0  0.56856  0.44490  0.64508  1.0000 0.0593061813
C   C370      1.0  0.59940  0.55399  0.46078  1.0000 0.0593061813
C   C371      1.0  0.55198  0.46665  0.68129  1.0000 0.0593061813
C   C372      1.0  0.56206  0.71853  0.24408  1.0000 0.0504926684
C   C373      1.0  0.56999  0.62871  0.14704  1.0000 0.0593061813
C   C374      1.0  0.60087  0.67307  0.25660  1.0000 0.0593061813
C   C375      1.0  0.55353  0.58719  0.16907  1.0000 0.0593061813
C   C376      1.0  0.93331  0.54133  0.42237  1.0000 0.0504926684
C   C377      1.0  0.92729  0.55385  0.37702  1.0000 0.0593061813
C   C378      1.0  0.71134  0.76412  0.09308  1.0000 0.0504926684
C   C379      1.0  0.68943  0.90717  0.92000  1.0000 0.2821644122
C   C380      1.0  0.74704  0.94701  0.97450  1.0000 0.2917955529
C   C381      1.0  0.61489  0.94270  0.10127  1.0000 0.0593061813
C   C382      1.0  0.72354  0.75843  0.13200  1.0000 0.0593061813
C   C383      1.0  0.75705  0.88898  0.85336  1.0000 0.2129188816
C   C384      1.0  0.63630  0.97922  0.08462  1.0000 0.0593061813
C   C385      1.0  0.88917  0.39165  0.46625  1.0000 0.0504926684
C   C386      1.0  0.79905  0.40012  0.64546  1.0000 0.0593061813
C   C387      1.0  0.84377  0.43047  0.46031  1.0000 0.0593061813
C   C388      1.0  0.75776  0.38330  0.68141  1.0000 0.0593061813
C   C389      1.0  0.93286  0.39036  0.42178  1.0000 0.2917955529
C   C390      1.0  0.88714  0.45884  0.37387  1.0000 0.2199058828
C   C391      1.0  0.56122  0.76230  0.24557  1.0000 0.2917955529
C   C392      1.0  0.62988  0.71659  0.27040  1.0000 0.2199058828
C   C393      1.0  0.57157  0.94116  0.14592  1.0000 0.2968837282
C   C394      1.0  0.88912  0.54246  0.46641  1.0000 0.2917955529
C   C395      1.0  0.84101  0.56772  0.42082  1.0000 0.2199058828
C   C396      1.0  0.94100  0.51808  0.60880  1.0000 0.2821644122
C   C397      1.0  0.79085  0.57540  0.65013  1.0000 0.2968837282
C   C398      1.0  0.79899  0.44478  0.64427  1.0000 0.2968837282
C   C399      1.0  0.72426  0.45222  0.70774  1.0000 0.2129188816
C   C400      1.0  0.95655  0.58668  0.59081  1.0000 0.2129188816
C   C401      1.0  0.77862  0.56029  0.73062  1.0000 0.2199058828
C   C402      1.0  0.71303  0.71962  0.09215  1.0000 0.2917955529
C   C403      1.0  0.73769  0.67204  0.16094  1.0000 0.2199058828
C   C404      1.0  0.68795  0.77026  0.92298  1.0000 0.0410340769
C   C405      1.0  0.73956  0.76503  0.89938  1.0000 0.0691933934
C   C406      1.0  0.74510  0.62185  0.97351  1.0000 0.2917955529
C   C407      1.0  0.61444  0.62900  0.10344  1.0000 0.2968837282
C   C408      1.0  0.62172  0.55482  0.10622  1.0000 0.2199058828
C   C409      1.0  0.73012  0.60900  0.92068  1.0000 0.2199058828
C   C410      1.0  0.88931  0.76297  0.09297  1.0000 0.2917955529
C   C411      1.0  0.84137  0.71713  0.16122  1.0000 0.2199058828
C   C412      1.0  0.93907  0.90783  0.92278  1.0000 0.0410340769
C   C413      1.0  0.93327  0.88582  0.89887  1.0000 0.0593061813
C   C414      1.0  0.79113  0.94705  0.97411  1.0000 0.0593061813
C   C415      1.0  0.80264  0.99211  0.94553  1.0000 0.0691933934
C   C416      1.0  0.79962  0.94143  0.10310  1.0000 0.2968837282
C   C417      1.0  0.71295  0.39129  0.46494  1.0000 0.2917955529
C   C418      1.0  0.73780  0.45994  0.41908  1.0000 0.2199058828
C   C419      1.0  0.61319  0.40155  0.64364  1.0000 0.2968837282
C   C420      1.0  0.62077  0.40424  0.70761  1.0000 0.2129188816
C   C421      1.0  0.93274  0.71935  0.24584  1.0000 0.2968837282
C   C422      1.0  0.88700  0.67137  0.27113  1.0000 0.2199058828
C   C423      1.0  0.55969  0.54322  0.42203  1.0000 0.2917955529
C   C424      1.0  0.62838  0.56803  0.37440  1.0000 0.2199058828
C   C425      1.0  0.57080  0.44465  0.33147  1.0000 0.2968837282
C   C426      1.0  0.57390  0.45183  0.25719  1.0000 0.2129188816
C   C427      1.0  0.56098  0.71950  0.46508  1.0000 0.2917955529
C   C428      1.0  0.62945  0.67165  0.41931  1.0000 0.2199058828
C   C429      1.0  0.56957  0.62980  0.64451  1.0000 0.2968837282
C   C430      1.0  0.57153  0.55576  0.70877  1.0000 0.2129188816
C   C431      1.0  0.93108  0.54363  0.09431  1.0000 0.2917955529
C   C432      1.0  0.88598  0.56832  0.16303  1.0000 0.2199058828
C   C433      1.0  0.71309  0.76260  0.42190  1.0000 0.2917955529
C   C434      1.0  0.73786  0.71704  0.37397  1.0000 0.2199058828
C   C435      1.0  0.68798  0.90655  0.47303  1.0000 0.2821644122
C   C436      1.0  0.74578  0.94771  0.32300  1.0000 0.0691933934
C   C437      1.0  0.71790  0.99253  0.33486  1.0000 0.0691933934
C   C438      1.0  0.61517  0.94116  0.33218  1.0000 0.2968837282
C   C439      1.0  0.75614  0.88883  0.48914  1.0000 0.2129188816
C   C440      1.0  0.88929  0.39083  0.24496  1.0000 0.2917955529
C   C441      1.0  0.84134  0.45909  0.27048  1.0000 0.2199058828
C   C442      1.0  0.79822  0.40018  0.14750  1.0000 0.2968837282
C   C443      1.0  0.72439  0.40205  0.15493  1.0000 0.2129188816
C   C444      1.0  0.97039  0.48897  0.89175  1.0000 0.2821644122
C   C445      1.0  0.93078  0.43465  0.83460  1.0000 0.2917955529
C   C446      1.0  0.98911  0.55489  0.82322  1.0000 0.2129188816
C   C447      1.0  0.84992  0.48702  0.85049  1.0000 0.2199058828
C   C448      1.0  0.65825  0.80193  0.63956  1.0000 0.2821644122
C   C449      1.0  0.60548  0.76163  0.78969  1.0000 0.2968837282
C   C450      1.0  0.72435  0.82060  0.62305  1.0000 0.2129188816
C   C451      1.0  0.65903  0.68126  0.80148  1.0000 0.2199058828
C   C452      1.0  0.97044  0.93882  0.19208  1.0000 0.0410340769
C   C453      1.0  0.99254  0.94453  0.21598  1.0000 0.0593061813
C   C454      1.0  0.65860  0.94030  0.88871  1.0000 0.0410340769
C   C455      1.0  0.68190  0.94598  0.83700  1.0000 0.0593061813
C   C456      1.0  0.54885  0.92529  0.89118  1.0000 0.1888299553
C   C457      1.0  0.54902  0.92439  0.62750  1.0000 0.1888299553
C   C458      1.0  0.69055  0.78298  0.48676  1.0000 0.1888299553
C   C459      1.0  0.95299  0.78447  0.22284  1.0000 0.1888299553
C   C460      1.0  0.95412  0.51971  0.48662  1.0000 0.1888299553
C   C461      1.0  0.94004  0.44098  0.64169  1.0000 0.1806399659
C   C462      1.0  0.61098  0.76953  0.96926  1.0000 0.1806399659
C   C463      1.0  0.93915  0.93824  0.96952  1.0000 0.1806399659
C   C464      1.0  0.61083  0.93860  0.47230  1.0000 0.1806399659
C   C465      1.0  0.93709  0.44390  0.96876  1.0000 0.1806399659
C   C466      1.0  0.61303  0.76843  0.64146  1.0000 0.1806399659
C   C467      1.0  0.93971  0.93892  0.14546  1.0000 0.1806399659
C   C468      1.0  0.61287  0.94023  0.96610  1.0000 0.1806399659
C   C469      1.0  0.55470  0.83432  0.80123  1.0000 0.1969521866
C   C470      1.0  0.78035  0.60906  0.57693  1.0000 0.1888299553
C   C471      1.0  0.77928  0.87433  0.31307  1.0000 0.1969521866
C   C472      1.0  0.58830  0.88194  0.39906  1.0000 0.1806399659
C   C473      1.0  0.86456  0.42035  0.12074  1.0000 0.1806399659
C   C474      1.0  0.58946  0.69630  0.58515  1.0000 0.1806399659
C   C475      1.0  0.86670  0.88245  0.12227  1.0000 0.1806399659
C   C476      1.0  0.58943  0.41742  0.39885  1.0000 0.1806399659
C   C477      1.0  0.58580  0.42060  0.58477  1.0000 0.1806399659
C   C478      1.0  0.58714  0.69628  0.12230  1.0000 0.1806399659
C   C479      1.0  0.59088  0.88215  0.11856  1.0000 0.1806399659
C   C480      1.0  0.86689  0.41714  0.58607  1.0000 0.1806399659
N   N1        1.0  0.43072  0.15637  0.00296  1.0000 -0.3114724823
N   N2        1.0  0.42235  0.03416  0.02777  1.0000 -0.3416584525
N   N3        1.0  0.28500  0.23658  0.03124  1.0000 -0.3601252685
N   N4        1.0  0.20535  0.25270  0.02483  1.0000 -0.3804651674
N   N5        1.0  0.90443  0.23667  0.03118  1.0000 -0.3601252685
N   N6        1.0  0.97303  0.25375  0.02634  1.0000 -0.3804651674
N   N7        1.0  0.86835  0.15763  0.00011  1.0000 -0.3114724823
N   N8        1.0  0.97446  0.03613  0.02607  1.0000 -0.3499329761
N   N9        1.0  0.32699  0.69831  0.00058  1.0000 -0.3114724823
N   N10       1.0  0.20486  0.80368  0.02691  1.0000 -0.3499329761
N   N11       1.0  0.06969  0.64089  0.00670  1.0000 -0.3601252685
N   N12       1.0  0.06986  0.57007  0.00762  1.0000 -0.3338492534
N   N13       1.0  0.40607  0.73511  0.03045  1.0000 -0.3601252685
N   N14       1.0  0.42225  0.80427  0.02563  1.0000 -0.3804651674
N   N15       1.0  0.90088  0.52797  0.05478  1.0000 -0.3499329761
N   N16       1.0  0.80940  0.57200  0.00634  1.0000 -0.3416584525
N   N17       1.0  0.97487  0.73341  0.05403  1.0000 -0.3416584525
N   N18       1.0  0.69683  0.80503  0.05247  1.0000 -0.3416584525
N   N19       1.0  0.74163  0.89980  0.00637  1.0000 -0.3695806297
N   N20       1.0  0.69900  0.73361  0.05147  1.0000 -0.3865720208
N   N21       1.0  0.73986  0.64286  0.00508  1.0000 -0.3695806297
N   N22       1.0  0.90356  0.80363  0.05243  1.0000 -0.3804651674
N   N23       1.0  0.81242  0.89957  0.00563  1.0000 -0.3338492534
N   N24       1.0  0.97148  0.52965  0.05346  1.0000 -0.3804651674
N   N25       1.0  0.11454  0.28359  0.73897  1.0000 -0.3695806297
N   N26       1.0  0.11341  0.14072  0.53148  1.0000 -0.3601252685
N   N27       1.0  0.23949  0.16231  0.42363  1.0000 -0.3499329761
N   N28       1.0  0.20582  0.15155  0.64690  1.0000 -0.3695806297
N   N29       1.0  0.28461  0.23661  0.43833  1.0000 -0.3601252685
N   N30       1.0  0.14441  0.17937  0.60692  1.0000 -0.3804651674
N   N31       1.0  0.12505  0.22104  0.50420  1.0000 -0.3804651674
N   N32       1.0  0.23645  0.13824  0.50997  1.0000 -0.3601252685
N   N33       1.0  0.20396  0.25364  0.50722  1.0000 -0.3804651674
N   N34       1.0  0.33202  0.07067  0.16355  1.0000 -0.3601252685
N   N35       1.0  0.32042  0.03507  0.98811  1.0000 -0.3695806297
N   N36       1.0  0.30692  0.06665  0.10587  1.0000 -0.3695806297
N   N37       1.0  0.32114  0.28451  0.64693  1.0000 -0.3695806297
N   N38       1.0  0.40548  0.33148  0.43730  1.0000 -0.3601252685
N   N39       1.0  0.42172  0.32451  0.50747  1.0000 -0.3804651674
N   N40       1.0  0.11433  0.03615  0.85406  1.0000 -0.3695806297
N   N41       1.0  0.46919  0.26211  0.85999  1.0000 -0.3114724823
N   N42       1.0  0.45431  0.15196  0.73886  1.0000 -0.3695806297
N   N43       1.0  0.49458  0.25344  0.73776  1.0000 -0.3416584525
N   N44       1.0  0.45387  0.03659  0.64730  1.0000 -0.3695806297
N   N45       1.0  0.49755  0.11556  0.43914  1.0000 -0.3601252685
N   N46       1.0  0.49176  0.03521  0.50826  1.0000 -0.3804651674
N   N47       1.0  0.11262  0.15187  0.98705  1.0000 -0.3695806297
N   N48       1.0  0.07259  0.18015  0.06034  1.0000 -0.3804651674
N   N49       1.0  0.32673  0.29860  0.96532  1.0000 -0.3114724823
N   N50       1.0  0.20522  0.28631  0.85334  1.0000 -0.3695806297
N   N51       1.0  0.20515  0.32419  0.95519  1.0000 -0.3416584525
N   N52       1.0  0.04984  0.20356  0.27104  1.0000 -0.3601252685
N   N53       1.0  0.15624  0.24640  0.24761  1.0000 -0.3499329761
N   N54       1.0  0.07724  0.26837  0.19084  1.0000 -0.3695806297
N   N55       1.0  0.06982  0.30488  0.27277  1.0000 -0.3601252685
N   N56       1.0  0.06274  0.14622  0.49172  1.0000 -0.3114724823
N   N57       1.0  0.20190  0.21596  0.30415  1.0000 -0.3004054192
N   N58       1.0  0.07880  0.26940  0.45074  1.0000 -0.3499329761
N   N59       1.0  0.07007  0.30432  0.34322  1.0000 -0.3416584525
N   N60       1.0  0.38756  0.03199  0.26654  1.0000 -0.3114724823
N   N61       1.0  0.16680  0.24449  0.84377  1.0000 -0.3004054192
N   N62       1.0  0.20278  0.14087  0.94620  1.0000 -0.3004054192
N   N63       1.0  0.08867  0.11901  0.26478  1.0000 -0.318241884
N   N64       1.0  0.27577  0.14332  0.19255  1.0000 -0.3114724823
N   N65       1.0  0.14327  0.18210  0.05869  1.0000 -0.3499329761
N   N66       1.0  0.12963  0.21760  0.14197  1.0000 -0.3499329761
N   N67       1.0  0.23606  0.13645  0.10618  1.0000 -0.3416584525
N   N68       1.0  0.31029  0.03397  0.70071  1.0000 -0.3004054192
N   N69       1.0  0.43153  0.15745  0.40136  1.0000 -0.3114724823
N   N70       1.0  0.31174  0.10545  0.37853  1.0000 -0.3114724823
N   N71       1.0  0.30708  0.06826  0.51000  1.0000 -0.3416584525
N   N72       1.0  0.42166  0.03551  0.50687  1.0000 -0.3499329761
N   N73       1.0  0.31057  0.24327  0.73696  1.0000 -0.3004054192
N   N74       1.0  0.40667  0.32818  0.81891  1.0000 -0.3695806297
N   N75       1.0  0.42282  0.32287  0.73867  1.0000 -0.3804651674
N   N76       1.0  0.16767  0.03390  0.94565  1.0000 -0.3004054192
N   N77       1.0  0.41315  0.14101  0.70085  1.0000 -0.3004054192
N   N78       1.0  0.46528  0.26378  0.40138  1.0000 -0.3114724823
N   N79       1.0  0.49121  0.25274  0.50769  1.0000 -0.3499329761
N   N80       1.0  0.41308  0.03486  0.84325  1.0000 -0.3004054192
N   N81       1.0  0.49739  0.11521  0.94071  1.0000 -0.3695806297
N   N82       1.0  0.49222  0.03516  0.95641  1.0000 -0.3804651674
N   N83       1.0  0.16749  0.14048  0.73704  1.0000 -0.3004054192
N   N84       1.0  0.07347  0.18112  0.67750  1.0000 -0.3499329761
N   N85       1.0  0.20460  0.24293  0.70007  1.0000 -0.3004054192
N   N86       1.0  0.32631  0.29861  0.40085  1.0000 -0.3114724823
N   N87       1.0  0.20406  0.32485  0.50597  1.0000 -0.3499329761
N   N88       1.0  0.90419  0.32986  0.81760  1.0000 -0.3601252685
N   N89       1.0  0.97440  0.32277  0.73818  1.0000 -0.3804651674
N   N90       1.0  0.89143  0.06987  0.86495  1.0000 -0.3499329761
N   N91       1.0  0.90544  0.11495  0.93906  1.0000 -0.3601252685
N   N92       1.0  0.97789  0.06670  0.84037  1.0000 -0.3601252685
N   N93       1.0  0.97499  0.03499  0.95571  1.0000 -0.3804651674
N   N94       1.0  0.67368  0.14119  0.64575  1.0000 -0.3601252685
N   N95       1.0  0.63118  0.16351  0.77360  1.0000 -0.3601252685
N   N96       1.0  0.52783  0.17980  0.67707  1.0000 -0.3804651674
N   N97       1.0  0.60852  0.22129  0.65765  1.0000 -0.3804651674
N   N98       1.0  0.57292  0.13882  0.76989  1.0000 -0.3695806297
N   N99       1.0  0.63224  0.06952  0.42476  1.0000 -0.3601252685
N   N100      1.0  0.57362  0.06617  0.51133  1.0000 -0.3695806297
N   N101      1.0  0.99739  0.14000  0.20610  1.0000 -0.3601252685
N   N102      1.0  0.89014  0.16239  0.16476  1.0000 -0.3499329761
N   N103      1.0  0.97037  0.22035  0.14120  1.0000 -0.3695806297
N   N104      1.0  0.97668  0.13777  0.10634  1.0000 -0.3601252685
N   N105      1.0  0.97487  0.35179  0.22797  1.0000 -0.3416584525
N   N106      1.0  0.58065  0.00991  0.25344  1.0000 -0.3114724823
N   N107      1.0  0.72094  0.01016  0.14755  1.0000 -0.3114724823
N   N108      1.0  0.73821  0.20298  0.46647  1.0000 -0.3601252685
N   N109      1.0  0.71489  0.24741  0.33892  1.0000 -0.3601252685
N   N110      1.0  0.69687  0.35152  0.43540  1.0000 -0.3416584525
N   N111      1.0  0.65850  0.26832  0.45373  1.0000 -0.3695806297
N   N112      1.0  0.74090  0.30471  0.34258  1.0000 -0.3695806297
N   N113      1.0  0.61540  0.01043  0.11122  1.0000 -0.3114724823
N   N114      1.0  0.93328  0.20307  0.58280  1.0000 -0.3601252685
N   N115      1.0  0.80604  0.24768  0.68941  1.0000 -0.3601252685
N   N116      1.0  0.90329  0.35130  0.50735  1.0000 -0.3416584525
N   N117      1.0  0.92150  0.26796  0.60994  1.0000 -0.3695806297
N   N118      1.0  0.80970  0.30587  0.60272  1.0000 -0.3695806297
N   N119      1.0  0.97345  0.34961  0.43600  1.0000 -0.3804651674
N   N120      1.0  0.77208  0.03246  0.91972  1.0000 -0.3004054192
N   N121      1.0  0.75818  0.14763  0.59429  1.0000 -0.318241884
N   N122      1.0  0.73422  0.21750  0.73438  1.0000 -0.3114724823
N   N123      1.0  0.69880  0.35066  0.50566  1.0000 -0.3804651674
N   N124      1.0  0.65919  0.27042  0.61049  1.0000 -0.3499329761
N   N125      1.0  0.74001  0.30517  0.60216  1.0000 -0.3338492534
N   N126      1.0  0.73389  0.03289  0.30454  1.0000 -0.3004054192
N   N127      1.0  0.95879  0.14631  0.29061  1.0000 -0.3114724823
N   N128      1.0  0.77142  0.21706  0.26715  1.0000 -0.3114724823
N   N129      1.0  0.90349  0.35029  0.23063  1.0000 -0.3804651674
N   N130      1.0  0.91846  0.26931  0.19196  1.0000 -0.3499329761
N   N131      1.0  0.81206  0.30306  0.27323  1.0000 -0.3338492534
N   N132      1.0  0.86723  0.29854  0.96472  1.0000 -0.318241884
N   N133      1.0  0.97205  0.32487  0.95617  1.0000 -0.3499329761
N   N134      1.0  0.84502  0.10558  0.19455  1.0000 -0.3114724823
N   N135      1.0  0.97747  0.06677  0.10700  1.0000 -0.3416584525
N   N136      1.0  0.73121  0.11876  0.51853  1.0000 -0.318241884
N   N137      1.0  0.66066  0.14264  0.37885  1.0000 -0.3114724823
N   N138      1.0  0.52617  0.18127  0.60637  1.0000 -0.3499329761
N   N139      1.0  0.60904  0.21804  0.50066  1.0000 -0.3499329761
N   N140      1.0  0.57211  0.13754  0.51081  1.0000 -0.3416584525
N   N141      1.0  0.66095  0.10664  0.84571  1.0000 -0.3114724823
N   N142      1.0  0.57356  0.06786  0.83943  1.0000 -0.3416584525
N   N143      1.0  0.86747  0.26285  0.86072  1.0000 -0.3114724823
N   N144      1.0  0.98519  0.11851  0.62169  1.0000 -0.318241884
N   N145      1.0  0.84604  0.14208  0.80837  1.0000 -0.3114724823
N   N146      1.0  0.96869  0.21719  0.66240  1.0000 -0.3499329761
N   N147      1.0  0.97813  0.13684  0.76983  1.0000 -0.3499329761
N   N148      1.0  0.97388  0.25176  0.73961  1.0000 -0.3416584525
N   N149      1.0  0.07430  0.35744  0.67775  1.0000 -0.3804651674
N   N150      1.0  0.46832  0.69822  0.96386  1.0000 -0.3114724823
N   N151      1.0  0.45373  0.94466  0.85461  1.0000 -0.3695806297
N   N152      1.0  0.49331  0.80384  0.95547  1.0000 -0.3499329761
N   N153      1.0  0.31075  0.94248  0.20760  1.0000 -0.3601252685
N   N154      1.0  0.34843  0.97346  0.06161  1.0000 -0.3804651674
N   N155      1.0  0.39043  0.95486  0.14187  1.0000 -0.3695806297
N   N156      1.0  0.11540  0.82658  0.20710  1.0000 -0.3601252685
N   N157      1.0  0.20627  0.94390  0.98654  1.0000 -0.3695806297
N   N158      1.0  0.27569  0.67485  0.19492  1.0000 -0.3004054192
N   N159      1.0  0.14503  0.90398  0.06057  1.0000 -0.3804651674
N   N160      1.0  0.12698  0.80026  0.14166  1.0000 -0.3865720208
N   N161      1.0  0.23733  0.80646  0.10633  1.0000 -0.3338492534
N   N162      1.0  0.30908  0.50489  0.52922  1.0000 -0.3601252685
N   N163      1.0  0.31219  0.49105  0.37781  1.0000 -0.3004054192
N   N164      1.0  0.34882  0.35811  0.60725  1.0000 -0.3804651674
N   N165      1.0  0.38897  0.43920  0.50308  1.0000 -0.3865720208
N   N166      1.0  0.30656  0.40472  0.51022  1.0000 -0.318241884
N   N167      1.0  0.07429  0.97480  0.88185  1.0000 -0.3804651674
N   N168      1.0  0.33272  0.72128  0.77343  1.0000 -0.3601252685
N   N169      1.0  0.43241  0.69824  0.85925  1.0000 -0.3114724823
N   N170      1.0  0.32022  0.94408  0.73915  1.0000 -0.3695806297
N   N171      1.0  0.29050  0.81575  0.62029  1.0000 -0.3114724823
N   N172      1.0  0.34788  0.90425  0.67760  1.0000 -0.3804651674
N   N173      1.0  0.38940  0.80052  0.65973  1.0000 -0.3416584525
N   N174      1.0  0.30753  0.80814  0.76949  1.0000 -0.3695806297
N   N175      1.0  0.42315  0.80427  0.73747  1.0000 -0.3499329761
N   N176      1.0  0.24017  0.46225  0.86503  1.0000 -0.3695806297
N   N177      1.0  0.08717  0.56272  0.82272  1.0000 -0.318241884
N   N178      1.0  0.14354  0.35960  0.88160  1.0000 -0.3865720208
N   N179      1.0  0.12621  0.43985  0.92205  1.0000 -0.3416584525
N   N180      1.0  0.23568  0.40483  0.83985  1.0000 -0.3804651674
N   N181      1.0  0.14242  0.37969  0.17294  1.0000 -0.3601252685
N   N182      1.0  0.07333  0.38445  0.15675  1.0000 -0.3804651674
N   N183      1.0  0.41681  0.98663  0.33906  1.0000 -0.3695806297
N   N184      1.0  0.31458  0.89206  0.49251  1.0000 -0.3114724823
N   N185      1.0  0.52090  0.80481  0.43535  1.0000 -0.3499329761
N   N186      1.0  0.43745  0.90799  0.45286  1.0000 -0.3416584525
N   N187      1.0  0.47474  0.89972  0.34302  1.0000 -0.3804651674
N   N188      1.0  0.04940  0.76422  0.90604  1.0000 -0.3499329761
N   N189      1.0  0.15610  0.63775  0.94783  1.0000 -0.3499329761
N   N190      1.0  0.14282  0.59170  0.08178  1.0000 -0.3601252685
N   N191      1.0  0.07712  0.75185  0.97080  1.0000 -0.3695806297
N   N192      1.0  0.07360  0.67219  0.08670  1.0000 -0.3804651674
N   N193      1.0  0.37114  0.56899  0.58252  1.0000 -0.3499329761
N   N194      1.0  0.41568  0.54643  0.68948  1.0000 -0.3601252685
N   N195      1.0  0.51997  0.52707  0.50742  1.0000 -0.3499329761
N   N196      1.0  0.43652  0.48940  0.60976  1.0000 -0.3695806297
N   N197      1.0  0.47345  0.57154  0.60259  1.0000 -0.3695806297
N   N198      1.0  0.37226  0.76210  0.27264  1.0000 -0.3601252685
N   N199      1.0  0.38587  0.60112  0.26857  1.0000 -0.3004054192
N   N200      1.0  0.52143  0.73277  0.22955  1.0000 -0.3416584525
N   N201      1.0  0.43757  0.74992  0.19263  1.0000 -0.3865720208
N   N202      1.0  0.47466  0.63941  0.27318  1.0000 -0.3338492534
N   N203      1.0  0.06208  0.58927  0.49195  1.0000 -0.3114724823
N   N204      1.0  0.20196  0.56526  0.30337  1.0000 -0.3114724823
N   N205      1.0  0.14289  0.47177  0.29508  1.0000 -0.3695806297
N   N206      1.0  0.07979  0.49063  0.45044  1.0000 -0.3499329761
N   N207      1.0  0.06884  0.57238  0.34378  1.0000 -0.3416584525
N   N208      1.0  0.07260  0.45621  0.37461  1.0000 -0.3804651674
N   N209      1.0  0.17928  0.41055  0.25276  1.0000 -0.3114724823
N   N210      1.0  0.07276  0.38572  0.37413  1.0000 -0.3416584525
N   N211      1.0  0.31799  0.89076  0.29181  1.0000 -0.318241884
N   N212      1.0  0.52057  0.80303  0.23146  1.0000 -0.3804651674
N   N213      1.0  0.44026  0.90789  0.19189  1.0000 -0.3499329761
N   N214      1.0  0.47508  0.89960  0.27256  1.0000 -0.3416584525
N   N215      1.0  0.15657  0.63750  0.24686  1.0000 -0.3601252685
N   N216      1.0  0.17986  0.55039  0.14827  1.0000 -0.318241884
N   N217      1.0  0.06123  0.78942  0.29088  1.0000 -0.318241884
N   N218      1.0  0.07666  0.75078  0.19129  1.0000 -0.3416584525
N   N219      1.0  0.06939  0.64181  0.27263  1.0000 -0.3695806297
N   N220      1.0  0.07403  0.67245  0.15698  1.0000 -0.3416584525
N   N221      1.0  0.41481  0.54529  0.34134  1.0000 -0.3601252685
N   N222      1.0  0.31682  0.58868  0.49138  1.0000 -0.318241884
N   N223      1.0  0.51908  0.52912  0.43602  1.0000 -0.3865720208
N   N224      1.0  0.43933  0.48862  0.45307  1.0000 -0.3416584525
N   N225      1.0  0.47319  0.57028  0.34458  1.0000 -0.3695806297
N   N226      1.0  0.37471  0.76236  0.58274  1.0000 -0.3601252685
N   N227      1.0  0.38685  0.60257  0.73496  1.0000 -0.3114724823
N   N228      1.0  0.52058  0.73367  0.50579  1.0000 -0.3804651674
N   N229      1.0  0.43973  0.75077  0.60964  1.0000 -0.3865720208
N   N230      1.0  0.47422  0.64141  0.60266  1.0000 -0.318241884
N   N231      1.0  0.04882  0.56968  0.90692  1.0000 -0.3601252685
N   N232      1.0  0.17830  0.44715  0.11159  1.0000 -0.3114724823
N   N233      1.0  0.20148  0.56524  0.91856  1.0000 -0.3004054192
N   N234      1.0  0.07531  0.48948  0.97228  1.0000 -0.3865720208
N   N235      1.0  0.07291  0.45534  0.08635  1.0000 -0.3499329761
N   N236      1.0  0.07241  0.35695  0.88497  1.0000 -0.3416584525
N   N237      1.0  0.41253  0.99776  0.73718  1.0000 -0.3004054192
N   N238      1.0  0.49848  0.73582  0.81805  1.0000 -0.3601252685
N   N239      1.0  0.49322  0.80519  0.73771  1.0000 -0.3804651674
N   N240      1.0  0.30756  0.94568  0.52996  1.0000 -0.3601252685
N   N241      1.0  0.35041  0.97477  0.60666  1.0000 -0.3416584525
N   N242      1.0  0.38768  0.95769  0.50294  1.0000 -0.3865720208
N   N243      1.0  0.20444  0.99766  0.84315  1.0000 -0.3004054192
N   N244      1.0  0.08834  0.81606  0.82147  1.0000 -0.3114724823
N   N245      1.0  0.27609  0.67600  0.84555  1.0000 -0.3114724823
N   N246      1.0  0.28476  0.73552  0.93912  1.0000 -0.3601252685
N   N247      1.0  0.14487  0.90386  0.88333  1.0000 -0.3499329761
N   N248      1.0  0.12975  0.79885  0.91991  1.0000 -0.3499329761
N   N249      1.0  0.23674  0.80861  0.83935  1.0000 -0.3416584525
N   N250      1.0  0.20476  0.80502  0.95566  1.0000 -0.3804651674
N   N251      1.0  0.28692  0.56187  0.62216  1.0000 -0.3114724823
N   N252      1.0  0.31326  0.49063  0.80901  1.0000 -0.3114724823
N   N253      1.0  0.35109  0.35620  0.67787  1.0000 -0.3499329761
N   N254      1.0  0.38639  0.43996  0.66297  1.0000 -0.3499329761
N   N255      1.0  0.30616  0.40411  0.76977  1.0000 -0.3416584525
N   N256      1.0  0.07400  0.97446  0.05934  1.0000 -0.3499329761
N   N257      1.0  0.31049  0.99654  0.94666  1.0000 -0.3004054192
N   N258      1.0  0.33140  0.72082  0.16620  1.0000 -0.3601252685
N   N259      1.0  0.28841  0.81614  0.26517  1.0000 -0.318241884
N   N260      1.0  0.35065  0.90246  0.05979  1.0000 -0.3499329761
N   N261      1.0  0.38789  0.79981  0.14260  1.0000 -0.3416584525
N   N262      1.0  0.30626  0.80759  0.10788  1.0000 -0.3695806297
N   N263      1.0  0.11310  0.50462  0.53182  1.0000 -0.3601252685
N   N264      1.0  0.24045  0.46061  0.42345  1.0000 -0.3601252685
N   N265      1.0  0.14465  0.35602  0.60661  1.0000 -0.3416584525
N   N266      1.0  0.12566  0.43964  0.50425  1.0000 -0.3695806297
N   N267      1.0  0.23709  0.40304  0.51037  1.0000 -0.3695806297
N   N268      1.0  0.98498  0.56185  0.62157  1.0000 -0.318241884
N   N269      1.0  0.84570  0.49049  0.80890  1.0000 -0.3004054192
N   N270      1.0  0.96950  0.43863  0.66179  1.0000 -0.3499329761
N   N271      1.0  0.97825  0.40403  0.76883  1.0000 -0.3416584525
N   N272      1.0  0.67295  0.82725  0.84222  1.0000 -0.3601252685
N   N273      1.0  0.66129  0.67637  0.84478  1.0000 -0.3004054192
N   N274      1.0  0.52706  0.90482  0.88273  1.0000 -0.3804651674
N   N275      1.0  0.60773  0.80053  0.92238  1.0000 -0.3804651674
N   N276      1.0  0.57213  0.80778  0.84077  1.0000 -0.3338492534
N   N277      1.0  0.99821  0.94452  0.84281  1.0000 -0.3601252685
N   N278      1.0  0.97151  0.95592  0.92317  1.0000 -0.3695806297
N   N279      1.0  0.73054  0.91848  0.51880  1.0000 -0.318241884
N   N280      1.0  0.52759  0.97524  0.60717  1.0000 -0.3804651674
N   N281      1.0  0.60773  0.95746  0.50321  1.0000 -0.3416584525
N   N282      1.0  0.88122  0.46435  0.26931  1.0000 -0.3004054192
N   N283      1.0  0.63409  0.71141  0.37514  1.0000 -0.3004054192
N   N284      1.0  0.55442  0.90387  0.37492  1.0000 -0.3499329761
N   N285      1.0  0.84180  0.56751  0.16839  1.0000 -0.3004054192
N   N286      1.0  0.71899  0.44471  0.11378  1.0000 -0.3114724823
N   N287      1.0  0.95859  0.58925  0.84806  1.0000 -0.318241884
N   N288      1.0  0.77099  0.56579  0.91865  1.0000 -0.3114724823
N   N289      1.0  0.91706  0.49111  0.97116  1.0000 -0.3499329761
N   N290      1.0  0.83974  0.45669  0.08760  1.0000 -0.3416584525
N   N291      1.0  0.73712  0.67293  0.41373  1.0000 -0.3004054192
N   N292      1.0  0.61448  0.54996  0.71243  1.0000 -0.3114724823
N   N293      1.0  0.75876  0.78926  0.59524  1.0000 -0.318241884
N   N294      1.0  0.73576  0.60143  0.73512  1.0000 -0.3114724823
N   N295      1.0  0.69737  0.73276  0.50716  1.0000 -0.3416584525
N   N296      1.0  0.66032  0.74787  0.61234  1.0000 -0.3499329761
N   N297      1.0  0.74115  0.64031  0.60292  1.0000 -0.3499329761
N   N298      1.0  0.62613  0.67130  0.60645  1.0000 -0.3499329761
N   N299      1.0  0.84300  0.71121  0.26994  1.0000 -0.3004054192
N   N300      1.0  0.93384  0.87958  0.27204  1.0000 -0.3601252685
N   N301      1.0  0.80604  0.98769  0.24780  1.0000 -0.3601252685
N   N302      1.0  0.90289  0.80483  0.22951  1.0000 -0.3416584525
N   N303      1.0  0.92198  0.90671  0.19184  1.0000 -0.3695806297
N   N304      1.0  0.81009  0.90068  0.27328  1.0000 -0.3695806297
N   N305      1.0  0.84269  0.90466  0.15803  1.0000 -0.3499329761
N   N306      1.0  0.73711  0.46475  0.37506  1.0000 -0.3004054192
N   N307      1.0  0.61511  0.40915  0.25342  1.0000 -0.3114724823
N   N308      1.0  0.62523  0.38318  0.37515  1.0000 -0.3499329761
N   N309      1.0  0.88124  0.67315  0.16652  1.0000 -0.3004054192
N   N310      1.0  0.63334  0.56717  0.41430  1.0000 -0.3004054192
N   N311      1.0  0.57857  0.44589  0.71248  1.0000 -0.3114724823
N   N312      1.0  0.55167  0.45620  0.60714  1.0000 -0.3499329761
N   N313      1.0  0.63481  0.67255  0.26967  1.0000 -0.3004054192
N   N314      1.0  0.57968  0.55043  0.14803  1.0000 -0.3114724823
N   N315      1.0  0.55320  0.67228  0.15824  1.0000 -0.3499329761
N   N316      1.0  0.88070  0.56702  0.37666  1.0000 -0.3004054192
N   N317      1.0  0.97440  0.52686  0.43632  1.0000 -0.3499329761
N   N318      1.0  0.73665  0.71197  0.16598  1.0000 -0.3004054192
N   N319      1.0  0.73887  0.88045  0.90372  1.0000 -0.3601252685
N   N320      1.0  0.71579  0.98687  0.94931  1.0000 -0.3601252685
N   N321      1.0  0.65933  0.90762  0.96916  1.0000 -0.3695806297
N   N322      1.0  0.62637  0.90464  0.08442  1.0000 -0.3499329761
N   N323      1.0  0.84316  0.46409  0.41374  1.0000 -0.3004054192
N   N324      1.0  0.72039  0.40978  0.71257  1.0000 -0.318241884
N   N325      1.0  0.84295  0.38315  0.60781  1.0000 -0.3499329761
N   N326      1.0  0.93312  0.42323  0.37484  1.0000 -0.3695806297
N   N327      1.0  0.59437  0.76261  0.25896  1.0000 -0.3695806297
N   N328      1.0  0.54987  0.97200  0.17301  1.0000 -0.3601252685
N   N329      1.0  0.55681  0.90234  0.15606  1.0000 -0.3804651674
N   N330      1.0  0.93355  0.56772  0.58236  1.0000 -0.3601252685
N   N331      1.0  0.80805  0.54505  0.68958  1.0000 -0.3499329761
N   N332      1.0  0.84217  0.55597  0.46683  1.0000 -0.3695806297
N   N333      1.0  0.76198  0.47196  0.67481  1.0000 -0.3601252685
N   N334      1.0  0.90350  0.52806  0.50695  1.0000 -0.3804651674
N   N335      1.0  0.92224  0.48725  0.60937  1.0000 -0.3695806297
N   N336      1.0  0.81135  0.56994  0.60304  1.0000 -0.3499329761
N   N337      1.0  0.84292  0.45464  0.60624  1.0000 -0.3804651674
N   N338      1.0  0.71503  0.63894  0.94696  1.0000 -0.3601252685
N   N339      1.0  0.72651  0.67279  0.12534  1.0000 -0.3695806297
N   N340      1.0  0.75696  0.78982  0.84937  1.0000 -0.318241884
N   N341      1.0  0.64148  0.59248  0.08213  1.0000 -0.3601252685
N   N342      1.0  0.65766  0.75067  0.97224  1.0000 -0.3416584525
N   N343      1.0  0.62448  0.67264  0.08823  1.0000 -0.3804651674
N   N344      1.0  0.84236  0.76316  0.12574  1.0000 -0.3695806297
N   N345      1.0  0.95883  0.89305  0.84902  1.0000 -0.318241884
N   N346      1.0  0.76331  0.97233  0.08152  1.0000 -0.3695806297
N   N347      1.0  0.91885  0.90886  0.97202  1.0000 -0.3499329761
N   N348      1.0  0.84319  0.90283  0.08808  1.0000 -0.3804651674
N   N349      1.0  0.72632  0.42452  0.46515  1.0000 -0.3695806297
N   N350      1.0  0.64027  0.38005  0.67443  1.0000 -0.3601252685
N   N351      1.0  0.62330  0.38659  0.60496  1.0000 -0.3804651674
N   N352      1.0  0.93301  0.67242  0.25962  1.0000 -0.3695806297
N   N353      1.0  0.97335  0.73364  0.23158  1.0000 -0.3804651674
N   N354      1.0  0.59290  0.55667  0.37520  1.0000 -0.3695806297
N   N355      1.0  0.54983  0.47181  0.29467  1.0000 -0.3601252685
N   N356      1.0  0.55555  0.45483  0.37504  1.0000 -0.3804651674
N   N357      1.0  0.59426  0.67268  0.46542  1.0000 -0.3695806297
N   N358      1.0  0.54708  0.59426  0.67607  1.0000 -0.3601252685
N   N359      1.0  0.55441  0.67372  0.60621  1.0000 -0.3804651674
N   N360      1.0  0.93182  0.55687  0.12731  1.0000 -0.3695806297
N   N361      1.0  0.73781  0.88093  0.46514  1.0000 -0.3601252685
N   N362      1.0  0.72636  0.76301  0.37503  1.0000 -0.3695806297
N   N363      1.0  0.64178  0.97247  0.29612  1.0000 -0.3601252685
N   N364      1.0  0.69902  0.80315  0.43613  1.0000 -0.3804651674
N   N365      1.0  0.65774  0.90754  0.45323  1.0000 -0.3865720208
N   N366      1.0  0.74038  0.90041  0.34399  1.0000 -0.318241884
N   N367      1.0  0.62533  0.90257  0.37573  1.0000 -0.3804651674
N   N368      1.0  0.84233  0.42364  0.25890  1.0000 -0.3695806297
N   N369      1.0  0.76264  0.37777  0.17395  1.0000 -0.3601252685
N   N370      1.0  0.84197  0.38527  0.15727  1.0000 -0.3804651674
N   N371      1.0  0.99713  0.50458  0.84221  1.0000 -0.3601252685
N   N372      1.0  0.89095  0.45984  0.86586  1.0000 -0.3601252685
N   N373      1.0  0.96958  0.43998  0.92250  1.0000 -0.3695806297
N   N374      1.0  0.97781  0.40219  0.84028  1.0000 -0.3695806297
N   N375      1.0  0.67398  0.82899  0.64618  1.0000 -0.3601252685
N   N376      1.0  0.63234  0.72247  0.77198  1.0000 -0.3499329761
N   N377      1.0  0.52559  0.90408  0.67747  1.0000 -0.3499329761
N   N378      1.0  0.60918  0.80136  0.65852  1.0000 -0.3695806297
N   N379      1.0  0.57342  0.80883  0.76931  1.0000 -0.3601252685
N   N380      1.0  0.98545  0.91881  0.26578  1.0000 -0.318241884
N   N381      1.0  0.96930  0.95902  0.14288  1.0000 -0.3499329761
N   N382      1.0  0.73155  0.92008  0.81959  1.0000 -0.318241884
N   N383      1.0  0.52591  0.97558  0.88400  1.0000 -0.3499329761
N   N384      1.0  0.60972  0.96071  0.91921  1.0000 -0.3499329761
