# DDEC6 charges by PACMAN v1.1 (https://github.com/mtap-research/PACMAN-charge/)
data_2007[Fe][tbo]3[ASR]1
_chemical_formula_sum              "Fe12 H24 C72 O48"
_cell_length_a       18.8322
_cell_length_b       18.8322
_cell_length_c       18.8322
_cell_angle_alpha    60
_cell_angle_beta     60
_cell_angle_gamma    60

_symmetry_space_group_name_H-M    "P 1"
_symmetry_Int_Tables_number       1

loop_
  _symmetry_equiv_pos_as_xyz
  'x, y, z'

loop_
  _atom_site_type_symbol
  _atom_site_label
  _atom_site_symmetry_multiplicity
  _atom_site_fract_x
  _atom_site_fract_y
  _atom_site_fract_z
  _atom_site_occupancy
  _atom_site_charge
Fe  Fe1       1.0  0.00000  0.00000  0.42064  1.0000 0.9862458846
Fe  Fe2       1.0  0.42064  0.00000  0.00000  1.0000 0.9862458846
Fe  Fe3       1.0  0.00000  0.42064  0.00000  1.0000 0.9862458846
Fe  Fe4       1.0  0.57936  0.42064  0.00000  1.0000 0.9862458846
Fe  Fe5       1.0  0.42064  0.57936  0.00000  1.0000 0.9862458846
Fe  Fe6       1.0  0.57936  0.00000  0.42064  1.0000 0.9862458846
Fe  Fe7       1.0  0.42064  0.00000  0.57936  1.0000 0.9862458846
Fe  Fe8       1.0  0.00000  0.57936  0.42064  1.0000 0.9862458846
Fe  Fe9       1.0  0.00000  0.42064  0.57936  1.0000 0.9862458846
Fe  Fe10      1.0  0.00000  0.00000  0.57936  1.0000 0.9862458846
Fe  Fe11      1.0  0.57936  0.00000  0.00000  1.0000 0.9862458846
Fe  Fe12      1.0  0.00000  0.57936  0.00000  1.0000 0.9862458846
H   H1        1.0  0.26800  0.96000  0.50400  1.0000 0.1092756581
H   H2        1.0  0.50400  0.26800  0.96000  1.0000 0.1092756581
H   H3        1.0  0.96000  0.50400  0.26800  1.0000 0.1092756581
H   H4        1.0  0.73200  0.04000  0.73200  1.0000 0.1092756581
H   H5        1.0  0.49600  0.73200  0.04000  1.0000 0.1092756581
H   H6        1.0  0.73200  0.49600  0.73200  1.0000 0.1092756581
H   H7        1.0  0.49600  0.73200  0.73200  1.0000 0.1092756581
H   H8        1.0  0.73200  0.04000  0.49600  1.0000 0.1092756581
H   H9        1.0  0.04000  0.73200  0.73200  1.0000 0.1092756581
H   H10       1.0  0.04000  0.49600  0.73200  1.0000 0.1092756581
H   H11       1.0  0.73200  0.73200  0.49600  1.0000 0.1092756581
H   H12       1.0  0.73200  0.73200  0.04000  1.0000 0.1092756581
H   H13       1.0  0.96000  0.26800  0.26800  1.0000 0.1092756581
H   H14       1.0  0.50400  0.26800  0.26800  1.0000 0.1092756581
H   H15       1.0  0.26800  0.50400  0.96000  1.0000 0.1092756581
H   H16       1.0  0.26800  0.96000  0.26800  1.0000 0.1092756581
H   H17       1.0  0.26800  0.50400  0.26800  1.0000 0.1092756581
H   H18       1.0  0.96000  0.26800  0.50400  1.0000 0.1092756581
H   H19       1.0  0.26800  0.26800  0.96000  1.0000 0.1092756581
H   H20       1.0  0.26800  0.26800  0.50400  1.0000 0.1092756581
H   H21       1.0  0.50400  0.96000  0.26800  1.0000 0.1092756581
H   H22       1.0  0.04000  0.73200  0.49600  1.0000 0.1092756581
H   H23       1.0  0.73200  0.49600  0.04000  1.0000 0.1092756581
H   H24       1.0  0.49600  0.04000  0.73200  1.0000 0.1092756581
C   C1        1.0  0.16510  0.97350  0.43070  1.0000 0.598058141
C   C2        1.0  0.43070  0.16510  0.97350  1.0000 0.598058141
C   C3        1.0  0.97350  0.43070  0.16510  1.0000 0.598058141
C   C4        1.0  0.83490  0.02650  0.56930  1.0000 0.598058141
C   C5        1.0  0.56930  0.56930  0.02650  1.0000 0.598058141
C   C6        1.0  0.56930  0.56930  0.83490  1.0000 0.598058141
C   C7        1.0  0.56930  0.83490  0.56930  1.0000 0.598058141
C   C8        1.0  0.56930  0.02650  0.56930  1.0000 0.598058141
C   C9        1.0  0.02650  0.56930  0.83490  1.0000 0.598058141
C   C10       1.0  0.02650  0.56930  0.56930  1.0000 0.598058141
C   C11       1.0  0.83490  0.56930  0.56930  1.0000 0.598058141
C   C12       1.0  0.56930  0.83490  0.02650  1.0000 0.598058141
C   C13       1.0  0.97350  0.16510  0.43070  1.0000 0.598058141
C   C14       1.0  0.43070  0.43070  0.16510  1.0000 0.598058141
C   C15       1.0  0.43070  0.43070  0.97350  1.0000 0.598058141
C   C16       1.0  0.43070  0.97350  0.16510  1.0000 0.598058141
C   C17       1.0  0.16510  0.43070  0.43070  1.0000 0.598058141
C   C18       1.0  0.97350  0.43070  0.43070  1.0000 0.598058141
C   C19       1.0  0.16510  0.43070  0.97350  1.0000 0.598058141
C   C20       1.0  0.43070  0.16510  0.43070  1.0000 0.598058141
C   C21       1.0  0.43070  0.97350  0.43070  1.0000 0.598058141
C   C22       1.0  0.02650  0.83490  0.56930  1.0000 0.598058141
C   C23       1.0  0.83490  0.56930  0.02650  1.0000 0.598058141
C   C24       1.0  0.56930  0.02650  0.83490  1.0000 0.598058141
C   C25       1.0  0.25842  0.96898  0.38630  1.0000 -0.0424091289
C   C26       1.0  0.38630  0.25842  0.96898  1.0000 -0.0424091289
C   C27       1.0  0.96898  0.38630  0.25842  1.0000 -0.0424091289
C   C28       1.0  0.74158  0.03102  0.61370  1.0000 -0.0424091289
C   C29       1.0  0.61370  0.61370  0.03102  1.0000 -0.0424091289
C   C30       1.0  0.61370  0.61370  0.74158  1.0000 -0.0424091289
C   C31       1.0  0.61370  0.74158  0.61370  1.0000 -0.0424091289
C   C32       1.0  0.61370  0.03102  0.61370  1.0000 -0.0424091289
C   C33       1.0  0.03102  0.61370  0.74158  1.0000 -0.0424091289
C   C34       1.0  0.03102  0.61370  0.61370  1.0000 -0.0424091289
C   C35       1.0  0.74158  0.61370  0.61370  1.0000 -0.0424091289
C   C36       1.0  0.61370  0.74158  0.03102  1.0000 -0.0424091289
C   C37       1.0  0.96898  0.25842  0.38630  1.0000 -0.0424091289
C   C38       1.0  0.38630  0.38630  0.25842  1.0000 -0.0424091289
C   C39       1.0  0.38630  0.38630  0.96898  1.0000 -0.0424091289
C   C40       1.0  0.38630  0.96898  0.25842  1.0000 -0.0424091289
C   C41       1.0  0.25842  0.38630  0.38630  1.0000 -0.0424091289
C   C42       1.0  0.96898  0.38630  0.38630  1.0000 -0.0424091289
C   C43       1.0  0.25842  0.38630  0.96898  1.0000 -0.0424091289
C   C44       1.0  0.38630  0.25842  0.38630  1.0000 -0.0424091289
C   C45       1.0  0.38630  0.96898  0.38630  1.0000 -0.0424091289
C   C46       1.0  0.03102  0.74158  0.61370  1.0000 -0.0424091289
C   C47       1.0  0.74158  0.61370  0.03102  1.0000 -0.0424091289
C   C48       1.0  0.61370  0.03102  0.74158  1.0000 -0.0424091289
C   C49       1.0  0.30130  0.96866  0.42874  1.0000 -0.0858335786
C   C50       1.0  0.42874  0.30130  0.96866  1.0000 -0.0858335786
C   C51       1.0  0.96866  0.42874  0.30130  1.0000 -0.0858335786
C   C52       1.0  0.69870  0.03134  0.69870  1.0000 -0.0858335786
C   C53       1.0  0.57126  0.69870  0.03134  1.0000 -0.0858335786
C   C54       1.0  0.69870  0.57126  0.69870  1.0000 -0.0858335786
C   C55       1.0  0.57126  0.69870  0.69870  1.0000 -0.0858335786
C   C56       1.0  0.69870  0.03134  0.57126  1.0000 -0.0858335786
C   C57       1.0  0.03134  0.69870  0.69870  1.0000 -0.0858335786
C   C58       1.0  0.03134  0.57126  0.69870  1.0000 -0.0858335786
C   C59       1.0  0.69870  0.69870  0.57126  1.0000 -0.0858335786
C   C60       1.0  0.69870  0.69870  0.03134  1.0000 -0.0858335786
C   C61       1.0  0.96866  0.30130  0.30130  1.0000 -0.0858335786
C   C62       1.0  0.42874  0.30130  0.30130  1.0000 -0.0858335786
C   C63       1.0  0.30130  0.42874  0.96866  1.0000 -0.0858335786
C   C64       1.0  0.30130  0.96866  0.30130  1.0000 -0.0858335786
C   C65       1.0  0.30130  0.42874  0.30130  1.0000 -0.0858335786
C   C66       1.0  0.96866  0.30130  0.42874  1.0000 -0.0858335786
C   C67       1.0  0.30130  0.30130  0.96866  1.0000 -0.0858335786
C   C68       1.0  0.30130  0.30130  0.42874  1.0000 -0.0858335786
C   C69       1.0  0.42874  0.96866  0.30130  1.0000 -0.0858335786
C   C70       1.0  0.03134  0.69870  0.57126  1.0000 -0.0858335786
C   C71       1.0  0.69870  0.57126  0.03134  1.0000 -0.0858335786
C   C72       1.0  0.57126  0.03134  0.69870  1.0000 -0.0858335786
O   O1        1.0  0.12860  0.97852  0.38830  1.0000 -0.5361387733
O   O2        1.0  0.38830  0.12860  0.97852  1.0000 -0.5361387733
O   O3        1.0  0.97852  0.38830  0.12860  1.0000 -0.5361387733
O   O4        1.0  0.87140  0.02148  0.49542  1.0000 -0.5361387733
O   O5        1.0  0.61170  0.49542  0.02148  1.0000 -0.5361387733
O   O6        1.0  0.49542  0.61170  0.87140  1.0000 -0.5361387733
O   O7        1.0  0.61170  0.87140  0.49542  1.0000 -0.5361387733
O   O8        1.0  0.49542  0.02148  0.61170  1.0000 -0.5361387733
O   O9        1.0  0.02148  0.49542  0.87140  1.0000 -0.5361387733
O   O10       1.0  0.02148  0.61170  0.49542  1.0000 -0.5361387733
O   O11       1.0  0.87140  0.49542  0.61170  1.0000 -0.5361387733
O   O12       1.0  0.49542  0.87140  0.02148  1.0000 -0.5361387733
O   O13       1.0  0.97852  0.12860  0.50458  1.0000 -0.5361387733
O   O14       1.0  0.38830  0.50458  0.12860  1.0000 -0.5361387733
O   O15       1.0  0.50458  0.38830  0.97852  1.0000 -0.5361387733
O   O16       1.0  0.50458  0.97852  0.12860  1.0000 -0.5361387733
O   O17       1.0  0.12860  0.38830  0.50458  1.0000 -0.5361387733
O   O18       1.0  0.97852  0.50458  0.38830  1.0000 -0.5361387733
O   O19       1.0  0.12860  0.50458  0.97852  1.0000 -0.5361387733
O   O20       1.0  0.50458  0.12860  0.38830  1.0000 -0.5361387733
O   O21       1.0  0.38830  0.97852  0.50458  1.0000 -0.5346144695
O   O22       1.0  0.02148  0.87140  0.61170  1.0000 -0.5361387733
O   O23       1.0  0.87140  0.61170  0.02148  1.0000 -0.5361387733
O   O24       1.0  0.61170  0.02148  0.87140  1.0000 -0.5361387733
O   O25       1.0  0.87140  0.02148  0.61170  1.0000 -0.5361387733
O   O26       1.0  0.61170  0.87140  0.02148  1.0000 -0.5361387733
O   O27       1.0  0.02148  0.61170  0.87140  1.0000 -0.5361387733
O   O28       1.0  0.12860  0.97852  0.50458  1.0000 -0.5361387733
O   O29       1.0  0.38830  0.50458  0.97852  1.0000 -0.5361387733
O   O30       1.0  0.50458  0.38830  0.12860  1.0000 -0.5361387733
O   O31       1.0  0.38830  0.12860  0.50458  1.0000 -0.5361387733
O   O32       1.0  0.50458  0.97852  0.38830  1.0000 -0.5361387733
O   O33       1.0  0.97852  0.50458  0.12860  1.0000 -0.5361387733
O   O34       1.0  0.97852  0.38830  0.50458  1.0000 -0.5361387733
O   O35       1.0  0.12860  0.50458  0.38830  1.0000 -0.5361387733
O   O36       1.0  0.50458  0.12860  0.97852  1.0000 -0.5361387733
O   O37       1.0  0.02148  0.87140  0.49542  1.0000 -0.5361387733
O   O38       1.0  0.61170  0.49542  0.87140  1.0000 -0.5361387733
O   O39       1.0  0.49542  0.61170  0.02148  1.0000 -0.5361387733
O   O40       1.0  0.49542  0.02148  0.87140  1.0000 -0.5361387733
O   O41       1.0  0.87140  0.61170  0.49542  1.0000 -0.5361387733
O   O42       1.0  0.02148  0.49542  0.61170  1.0000 -0.5361387733
O   O43       1.0  0.87140  0.49542  0.02148  1.0000 -0.5361387733
O   O44       1.0  0.49542  0.87140  0.61170  1.0000 -0.5361387733
O   O45       1.0  0.61170  0.02148  0.49542  1.0000 -0.5361387733
O   O46       1.0  0.97852  0.12860  0.38830  1.0000 -0.5361387733
O   O47       1.0  0.12860  0.38830  0.97852  1.0000 -0.5361387733
O   O48       1.0  0.38830  0.97852  0.12860  1.0000 -0.5361387733
