# DDEC6 charges by PACMAN v1.1 (https://github.com/mtap-research/PACMAN-charge/)
data_2007[Pd][sod]3[ASR]1
_chemical_formula_sum              "H48 Pd12 C96 N48 O24 F24"
_cell_length_a       16.3113
_cell_length_b       16.3113
_cell_length_c       16.3113
_cell_angle_alpha    90
_cell_angle_beta     90
_cell_angle_gamma    90

_symmetry_space_group_name_H-M    "P 1"
_symmetry_Int_Tables_number       1

loop_
  _symmetry_equiv_pos_as_xyz
  'x, y, z'

loop_
  _atom_site_type_symbol
  _atom_site_label
  _atom_site_symmetry_multiplicity
  _atom_site_fract_x
  _atom_site_fract_y
  _atom_site_fract_z
  _atom_site_occupancy
  _atom_site_charge
H   H1        1.0  0.65906  0.82816  0.99917  1.0000 0.1537730727
H   H2        1.0  0.34094  0.82816  0.00083  1.0000 0.1537730727
H   H3        1.0  0.34094  0.17184  0.99917  1.0000 0.1537730727
H   H4        1.0  0.65906  0.17184  0.00083  1.0000 0.1537730727
H   H5        1.0  0.67184  0.15906  0.49917  1.0000 0.1537730727
H   H6        1.0  0.32816  0.84094  0.49917  1.0000 0.1537730727
H   H7        1.0  0.49917  0.32816  0.84094  1.0000 0.1537730727
H   H8        1.0  0.50083  0.32816  0.15906  1.0000 0.1537730727
H   H9        1.0  0.67184  0.84094  0.50083  1.0000 0.1537730727
H   H10       1.0  0.32816  0.15906  0.50083  1.0000 0.1537730727
H   H11       1.0  0.99917  0.65906  0.82816  1.0000 0.1537730727
H   H12       1.0  0.82816  0.99917  0.65906  1.0000 0.1537730727
H   H13       1.0  0.50083  0.67184  0.84094  1.0000 0.1537730727
H   H14       1.0  0.84094  0.50083  0.67184  1.0000 0.1537730727
H   H15       1.0  0.99917  0.34094  0.17184  1.0000 0.1537730727
H   H16       1.0  0.82816  0.00083  0.34094  1.0000 0.1537730727
H   H17       1.0  0.00083  0.65906  0.17184  1.0000 0.1537730727
H   H18       1.0  0.17184  0.99917  0.34094  1.0000 0.1537730727
H   H19       1.0  0.00083  0.34094  0.82816  1.0000 0.1537730727
H   H20       1.0  0.17184  0.00083  0.65906  1.0000 0.1537730727
H   H21       1.0  0.84094  0.49917  0.32816  1.0000 0.1537730727
H   H22       1.0  0.15906  0.50083  0.32816  1.0000 0.1537730727
H   H23       1.0  0.49917  0.67184  0.15906  1.0000 0.1537730727
H   H24       1.0  0.15906  0.49917  0.67184  1.0000 0.1537730727
H   H25       1.0  0.84094  0.67184  0.50083  1.0000 0.1537730727
H   H26       1.0  0.15906  0.67184  0.49917  1.0000 0.1537730727
H   H27       1.0  0.15906  0.32816  0.50083  1.0000 0.1537730727
H   H28       1.0  0.84094  0.32816  0.49917  1.0000 0.1537730727
H   H29       1.0  0.82816  0.34094  0.00083  1.0000 0.1537730727
H   H30       1.0  0.17184  0.65906  0.00083  1.0000 0.1537730727
H   H31       1.0  0.00083  0.17184  0.65906  1.0000 0.1537730727
H   H32       1.0  0.99917  0.17184  0.34094  1.0000 0.1537730727
H   H33       1.0  0.82816  0.65906  0.99917  1.0000 0.1537730727
H   H34       1.0  0.17184  0.34094  0.99917  1.0000 0.1537730727
H   H35       1.0  0.50083  0.84094  0.67184  1.0000 0.1537730727
H   H36       1.0  0.67184  0.50083  0.84094  1.0000 0.1537730727
H   H37       1.0  0.99917  0.82816  0.65906  1.0000 0.1537730727
H   H38       1.0  0.65906  0.99917  0.82816  1.0000 0.1537730727
H   H39       1.0  0.50083  0.15906  0.32816  1.0000 0.1537730727
H   H40       1.0  0.67184  0.49917  0.15906  1.0000 0.1537730727
H   H41       1.0  0.49917  0.84094  0.32816  1.0000 0.1537730727
H   H42       1.0  0.32816  0.50083  0.15906  1.0000 0.1537730727
H   H43       1.0  0.49917  0.15906  0.67184  1.0000 0.1537730727
H   H44       1.0  0.32816  0.49917  0.84094  1.0000 0.1537730727
H   H45       1.0  0.65906  0.00083  0.17184  1.0000 0.1537730727
H   H46       1.0  0.34094  0.99917  0.17184  1.0000 0.1537730727
H   H47       1.0  0.00083  0.82816  0.34094  1.0000 0.1537730727
H   H48       1.0  0.34094  0.00083  0.82816  1.0000 0.1537730727
Pd  Pd1       1.0  0.50000  0.00000  0.25000  1.0000 0.4248907993
Pd  Pd2       1.0  0.50000  0.00000  0.75000  1.0000 0.4248907993
Pd  Pd3       1.0  0.75000  0.50000  0.00000  1.0000 0.4248907993
Pd  Pd4       1.0  0.25000  0.50000  0.00000  1.0000 0.4248907993
Pd  Pd5       1.0  0.00000  0.25000  0.50000  1.0000 0.4248907993
Pd  Pd6       1.0  0.00000  0.75000  0.50000  1.0000 0.4248907993
Pd  Pd7       1.0  0.00000  0.50000  0.25000  1.0000 0.4248907993
Pd  Pd8       1.0  0.00000  0.50000  0.75000  1.0000 0.4248907993
Pd  Pd9       1.0  0.75000  0.00000  0.50000  1.0000 0.4248907993
Pd  Pd10      1.0  0.25000  0.00000  0.50000  1.0000 0.4248907993
Pd  Pd11      1.0  0.50000  0.25000  0.00000  1.0000 0.4248907993
Pd  Pd12      1.0  0.50000  0.75000  0.00000  1.0000 0.4248907993
C   C1        1.0  0.45786  0.13182  0.35647  1.0000 -0.035840538
C   C2        1.0  0.54214  0.13182  0.64353  1.0000 -0.035840538
C   C3        1.0  0.54214  0.86818  0.35647  1.0000 -0.035840538
C   C4        1.0  0.45786  0.86818  0.64353  1.0000 -0.035840538
C   C5        1.0  0.36818  0.95786  0.85647  1.0000 -0.035840538
C   C6        1.0  0.63182  0.04214  0.85647  1.0000 -0.035840538
C   C7        1.0  0.85647  0.63182  0.04214  1.0000 -0.035840538
C   C8        1.0  0.14353  0.63182  0.95786  1.0000 -0.035840538
C   C9        1.0  0.36818  0.04214  0.14353  1.0000 -0.035840538
C   C10       1.0  0.63182  0.95786  0.14353  1.0000 -0.035840538
C   C11       1.0  0.35647  0.45786  0.13182  1.0000 -0.035840538
C   C12       1.0  0.13182  0.35647  0.45786  1.0000 -0.035840538
C   C13       1.0  0.14353  0.36818  0.04214  1.0000 -0.035840538
C   C14       1.0  0.04214  0.14353  0.36818  1.0000 -0.035840538
C   C15       1.0  0.35647  0.54214  0.86818  1.0000 -0.035840538
C   C16       1.0  0.13182  0.64353  0.54214  1.0000 -0.035840538
C   C17       1.0  0.64353  0.45786  0.86818  1.0000 -0.035840538
C   C18       1.0  0.86818  0.35647  0.54214  1.0000 -0.035840538
C   C19       1.0  0.64353  0.54214  0.13182  1.0000 -0.035840538
C   C20       1.0  0.86818  0.64353  0.45786  1.0000 -0.035840538
C   C21       1.0  0.04214  0.85647  0.63182  1.0000 -0.035840538
C   C22       1.0  0.95786  0.14353  0.63182  1.0000 -0.035840538
C   C23       1.0  0.85647  0.36818  0.95786  1.0000 -0.035840538
C   C24       1.0  0.95786  0.85647  0.36818  1.0000 -0.035840538
C   C25       1.0  0.04214  0.36818  0.14353  1.0000 -0.035840538
C   C26       1.0  0.95786  0.36818  0.85647  1.0000 -0.035840538
C   C27       1.0  0.95786  0.63182  0.14353  1.0000 -0.035840538
C   C28       1.0  0.04214  0.63182  0.85647  1.0000 -0.035840538
C   C29       1.0  0.13182  0.54214  0.64353  1.0000 -0.035840538
C   C30       1.0  0.86818  0.45786  0.64353  1.0000 -0.035840538
C   C31       1.0  0.64353  0.86818  0.45786  1.0000 -0.035840538
C   C32       1.0  0.35647  0.86818  0.54214  1.0000 -0.035840538
C   C33       1.0  0.13182  0.45786  0.35647  1.0000 -0.035840538
C   C34       1.0  0.86818  0.54214  0.35647  1.0000 -0.035840538
C   C35       1.0  0.14353  0.04214  0.36818  1.0000 -0.035840538
C   C36       1.0  0.36818  0.14353  0.04214  1.0000 -0.035840538
C   C37       1.0  0.35647  0.13182  0.45786  1.0000 -0.035840538
C   C38       1.0  0.45786  0.35647  0.13182  1.0000 -0.035840538
C   C39       1.0  0.14353  0.95786  0.63182  1.0000 -0.035840538
C   C40       1.0  0.36818  0.85647  0.95786  1.0000 -0.035840538
C   C41       1.0  0.85647  0.04214  0.63182  1.0000 -0.035840538
C   C42       1.0  0.63182  0.14353  0.95786  1.0000 -0.035840538
C   C43       1.0  0.85647  0.95786  0.36818  1.0000 -0.035840538
C   C44       1.0  0.63182  0.85647  0.04214  1.0000 -0.035840538
C   C45       1.0  0.45786  0.64353  0.86818  1.0000 -0.035840538
C   C46       1.0  0.54214  0.35647  0.86818  1.0000 -0.035840538
C   C47       1.0  0.64353  0.13182  0.54214  1.0000 -0.035840538
C   C48       1.0  0.54214  0.64353  0.13182  1.0000 -0.035840538
C   C49       1.0  0.37600  0.01577  0.37600  1.0000 0.5548312793
C   C50       1.0  0.62401  0.01577  0.62401  1.0000 0.5548312793
C   C51       1.0  0.62401  0.98423  0.37600  1.0000 0.5548312793
C   C52       1.0  0.37600  0.98423  0.62401  1.0000 0.5548312793
C   C53       1.0  0.48423  0.87599  0.87599  1.0000 0.5548312793
C   C54       1.0  0.51577  0.12401  0.87599  1.0000 0.5548312793
C   C55       1.0  0.87599  0.51577  0.12401  1.0000 0.5548312793
C   C56       1.0  0.12401  0.51577  0.87599  1.0000 0.5548312793
C   C57       1.0  0.48423  0.12401  0.12401  1.0000 0.5548312793
C   C58       1.0  0.51577  0.87599  0.12401  1.0000 0.5548312793
C   C59       1.0  0.37600  0.37600  0.01577  1.0000 0.5548312793
C   C60       1.0  0.01577  0.37600  0.37600  1.0000 0.5548312793
C   C61       1.0  0.12401  0.48423  0.12401  1.0000 0.5548312793
C   C62       1.0  0.12401  0.12401  0.48423  1.0000 0.5548312793
C   C63       1.0  0.37600  0.62401  0.98423  1.0000 0.5548312793
C   C64       1.0  0.01577  0.62401  0.62401  1.0000 0.5548312793
C   C65       1.0  0.62401  0.37600  0.98423  1.0000 0.5548312793
C   C66       1.0  0.98423  0.37600  0.62401  1.0000 0.5548312793
C   C67       1.0  0.62401  0.62401  0.01577  1.0000 0.5548312793
C   C68       1.0  0.98423  0.62401  0.37600  1.0000 0.5548312793
C   C69       1.0  0.12401  0.87599  0.51577  1.0000 0.5548312793
C   C70       1.0  0.87599  0.12401  0.51577  1.0000 0.5548312793
C   C71       1.0  0.87599  0.48423  0.87599  1.0000 0.5548312793
C   C72       1.0  0.87599  0.87599  0.48423  1.0000 0.5548312793
C   C73       1.0  0.41757  0.17051  0.41757  1.0000 0.1754626959
C   C74       1.0  0.58244  0.17051  0.58244  1.0000 0.1754626959
C   C75       1.0  0.58244  0.82949  0.41757  1.0000 0.1754626959
C   C76       1.0  0.41757  0.82949  0.58244  1.0000 0.1754626959
C   C77       1.0  0.32949  0.91756  0.91756  1.0000 0.1754626959
C   C78       1.0  0.67051  0.08243  0.91756  1.0000 0.1754626959
C   C79       1.0  0.91756  0.67051  0.08243  1.0000 0.1754626959
C   C80       1.0  0.08243  0.67051  0.91756  1.0000 0.1754626959
C   C81       1.0  0.32949  0.08243  0.08243  1.0000 0.1754626959
C   C82       1.0  0.67051  0.91756  0.08243  1.0000 0.1754626959
C   C83       1.0  0.41757  0.41757  0.17051  1.0000 0.1754626959
C   C84       1.0  0.17051  0.41757  0.41757  1.0000 0.1754626959
C   C85       1.0  0.08243  0.32949  0.08243  1.0000 0.1754626959
C   C86       1.0  0.08243  0.08243  0.32949  1.0000 0.1754626959
C   C87       1.0  0.41757  0.58244  0.82949  1.0000 0.1754626959
C   C88       1.0  0.17051  0.58244  0.58244  1.0000 0.1754626959
C   C89       1.0  0.58244  0.41757  0.82949  1.0000 0.1754626959
C   C90       1.0  0.82949  0.41757  0.58244  1.0000 0.1754626959
C   C91       1.0  0.58244  0.58244  0.17051  1.0000 0.1754626959
C   C92       1.0  0.82949  0.58244  0.41757  1.0000 0.1754626959
C   C93       1.0  0.08243  0.91756  0.67051  1.0000 0.1754626959
C   C94       1.0  0.91756  0.08243  0.67051  1.0000 0.1754626959
C   C95       1.0  0.91756  0.32949  0.91756  1.0000 0.1754626959
C   C96       1.0  0.91756  0.91756  0.32949  1.0000 0.1754626959
N   N1        1.0  0.43707  0.05446  0.33572  1.0000 -0.2664559801
N   N2        1.0  0.56293  0.05446  0.66428  1.0000 -0.2664559801
N   N3        1.0  0.56293  0.94554  0.33572  1.0000 -0.2664559801
N   N4        1.0  0.43707  0.94554  0.66428  1.0000 -0.2664559801
N   N5        1.0  0.44554  0.93707  0.83572  1.0000 -0.2664559801
N   N6        1.0  0.55446  0.06293  0.83572  1.0000 -0.2664559801
N   N7        1.0  0.83572  0.55446  0.06293  1.0000 -0.2664559801
N   N8        1.0  0.16428  0.55446  0.93707  1.0000 -0.2664559801
N   N9        1.0  0.44554  0.06293  0.16428  1.0000 -0.2664559801
N   N10       1.0  0.55446  0.93707  0.16428  1.0000 -0.2664559801
N   N11       1.0  0.33572  0.43707  0.05446  1.0000 -0.2664559801
N   N12       1.0  0.05446  0.33572  0.43707  1.0000 -0.2664559801
N   N13       1.0  0.16428  0.44554  0.06293  1.0000 -0.2664559801
N   N14       1.0  0.06293  0.16428  0.44554  1.0000 -0.2664559801
N   N15       1.0  0.33572  0.56293  0.94554  1.0000 -0.2664559801
N   N16       1.0  0.05446  0.66428  0.56293  1.0000 -0.2664559801
N   N17       1.0  0.66428  0.43707  0.94554  1.0000 -0.2664559801
N   N18       1.0  0.94554  0.33572  0.56293  1.0000 -0.2664559801
N   N19       1.0  0.66428  0.56293  0.05446  1.0000 -0.2664559801
N   N20       1.0  0.94554  0.66428  0.43707  1.0000 -0.2664559801
N   N21       1.0  0.06293  0.83572  0.55446  1.0000 -0.2664559801
N   N22       1.0  0.93707  0.16428  0.55446  1.0000 -0.2664559801
N   N23       1.0  0.83572  0.44554  0.93707  1.0000 -0.2664559801
N   N24       1.0  0.93707  0.83572  0.44554  1.0000 -0.2664559801
N   N25       1.0  0.06293  0.44554  0.16428  1.0000 -0.2664559801
N   N26       1.0  0.93707  0.44554  0.83572  1.0000 -0.2664559801
N   N27       1.0  0.93707  0.55446  0.16428  1.0000 -0.2664559801
N   N28       1.0  0.06293  0.55446  0.83572  1.0000 -0.2664559801
N   N29       1.0  0.05446  0.56293  0.66428  1.0000 -0.2664559801
N   N30       1.0  0.94554  0.43707  0.66428  1.0000 -0.2664559801
N   N31       1.0  0.66428  0.94554  0.43707  1.0000 -0.2664559801
N   N32       1.0  0.33572  0.94554  0.56293  1.0000 -0.2664559801
N   N33       1.0  0.05446  0.43707  0.33572  1.0000 -0.2664559801
N   N34       1.0  0.94554  0.56293  0.33572  1.0000 -0.2664559801
N   N35       1.0  0.16428  0.06293  0.44554  1.0000 -0.2664559801
N   N36       1.0  0.44554  0.16428  0.06293  1.0000 -0.2664559801
N   N37       1.0  0.33572  0.05446  0.43707  1.0000 -0.2664559801
N   N38       1.0  0.43707  0.33572  0.05446  1.0000 -0.2664559801
N   N39       1.0  0.16428  0.93707  0.55446  1.0000 -0.2664559801
N   N40       1.0  0.44554  0.83572  0.93707  1.0000 -0.2664559801
N   N41       1.0  0.83572  0.06293  0.55446  1.0000 -0.2664559801
N   N42       1.0  0.55446  0.16428  0.93707  1.0000 -0.2664559801
N   N43       1.0  0.83572  0.93707  0.44554  1.0000 -0.2664559801
N   N44       1.0  0.55446  0.83572  0.06293  1.0000 -0.2664559801
N   N45       1.0  0.43707  0.66428  0.94554  1.0000 -0.2664559801
N   N46       1.0  0.56293  0.33572  0.94554  1.0000 -0.2664559801
N   N47       1.0  0.66428  0.05446  0.56293  1.0000 -0.2664559801
N   N48       1.0  0.56293  0.66428  0.05446  1.0000 -0.2664559801
O   O1        1.0  0.35675  0.94414  0.35675  1.0000 -0.5284039771
O   O2        1.0  0.64325  0.94414  0.64325  1.0000 -0.5284039771
O   O3        1.0  0.64325  0.05586  0.35675  1.0000 -0.5284039771
O   O4        1.0  0.35675  0.05586  0.64325  1.0000 -0.5284039771
O   O5        1.0  0.55586  0.85675  0.85675  1.0000 -0.5284039771
O   O6        1.0  0.44414  0.14325  0.85675  1.0000 -0.5284039771
O   O7        1.0  0.85675  0.44414  0.14325  1.0000 -0.5284039771
O   O8        1.0  0.14325  0.44414  0.85675  1.0000 -0.5284039771
O   O9        1.0  0.55586  0.14325  0.14325  1.0000 -0.5284039771
O   O10       1.0  0.44414  0.85675  0.14325  1.0000 -0.5284039771
O   O11       1.0  0.35675  0.35675  0.94414  1.0000 -0.5284039771
O   O12       1.0  0.94414  0.35675  0.35675  1.0000 -0.5284039771
O   O13       1.0  0.14325  0.55586  0.14325  1.0000 -0.5284039771
O   O14       1.0  0.14325  0.14325  0.55586  1.0000 -0.5284039771
O   O15       1.0  0.35675  0.64325  0.05586  1.0000 -0.5284039771
O   O16       1.0  0.94414  0.64325  0.64325  1.0000 -0.5284039771
O   O17       1.0  0.64325  0.35675  0.05586  1.0000 -0.5284039771
O   O18       1.0  0.05586  0.35675  0.64325  1.0000 -0.5284039771
O   O19       1.0  0.64325  0.64325  0.94414  1.0000 -0.5284039771
O   O20       1.0  0.05586  0.64325  0.35675  1.0000 -0.5284039771
O   O21       1.0  0.14325  0.85675  0.44414  1.0000 -0.5284039771
O   O22       1.0  0.85675  0.14325  0.44414  1.0000 -0.5284039771
O   O23       1.0  0.85675  0.55586  0.85675  1.0000 -0.5284039771
O   O24       1.0  0.85675  0.85675  0.55586  1.0000 -0.5284039771
F   F1        1.0  0.43835  0.24787  0.43835  1.0000 -0.117288507
F   F2        1.0  0.56165  0.24787  0.56165  1.0000 -0.117288507
F   F3        1.0  0.56165  0.75213  0.43835  1.0000 -0.117288507
F   F4        1.0  0.43835  0.75213  0.56165  1.0000 -0.117288507
F   F5        1.0  0.25213  0.93835  0.93835  1.0000 -0.117288507
F   F6        1.0  0.74787  0.06165  0.93835  1.0000 -0.117288507
F   F7        1.0  0.93835  0.74787  0.06165  1.0000 -0.117288507
F   F8        1.0  0.06165  0.74787  0.93835  1.0000 -0.117288507
F   F9        1.0  0.25213  0.06165  0.06165  1.0000 -0.117288507
F   F10       1.0  0.74787  0.93835  0.06165  1.0000 -0.117288507
F   F11       1.0  0.43835  0.43835  0.24787  1.0000 -0.117288507
F   F12       1.0  0.24787  0.43835  0.43835  1.0000 -0.117288507
F   F13       1.0  0.06165  0.25213  0.06165  1.0000 -0.117288507
F   F14       1.0  0.06165  0.06165  0.25213  1.0000 -0.117288507
F   F15       1.0  0.43835  0.56165  0.75213  1.0000 -0.117288507
F   F16       1.0  0.24787  0.56165  0.56165  1.0000 -0.117288507
F   F17       1.0  0.56165  0.43835  0.75213  1.0000 -0.117288507
F   F18       1.0  0.75213  0.43835  0.56165  1.0000 -0.117288507
F   F19       1.0  0.56165  0.56165  0.24787  1.0000 -0.117288507
F   F20       1.0  0.75213  0.56165  0.43835  1.0000 -0.117288507
F   F21       1.0  0.06165  0.93835  0.74787  1.0000 -0.117288507
F   F22       1.0  0.93835  0.06165  0.74787  1.0000 -0.117288507
F   F23       1.0  0.93835  0.25213  0.93835  1.0000 -0.117288507
F   F24       1.0  0.93835  0.93835  0.25213  1.0000 -0.117288507
