# DDEC6 charges by PACMAN v1.1 (https://github.com/mtap-research/PACMAN-charge/)
data_2007[EuCu][nan]3[ASR]1
_chemical_formula_sum              "Eu16 Cu12 H288 C576 N48 O96"
_cell_length_a       21.5909
_cell_length_b       24.0263
_cell_length_c       31.1146
_cell_angle_alpha    90
_cell_angle_beta     105.794
_cell_angle_gamma    90

_symmetry_space_group_name_H-M    "P 1"
_symmetry_Int_Tables_number       1

loop_
  _symmetry_equiv_pos_as_xyz
  'x, y, z'

loop_
  _atom_site_type_symbol
  _atom_site_label
  _atom_site_symmetry_multiplicity
  _atom_site_fract_x
  _atom_site_fract_y
  _atom_site_fract_z
  _atom_site_occupancy
  _atom_site_charge
Eu  Eu1       1.0  0.91378  0.22919  0.19866  1.0000 2.1261569848
Eu  Eu2       1.0  0.08622  0.77081  0.80134  1.0000 2.1261569848
Eu  Eu3       1.0  0.08622  0.22919  0.30134  1.0000 2.1261569848
Eu  Eu4       1.0  0.91378  0.77081  0.69866  1.0000 2.1261569848
Eu  Eu5       1.0  0.41378  0.72919  0.19866  1.0000 2.1261569848
Eu  Eu6       1.0  0.58622  0.27081  0.80134  1.0000 2.1261569848
Eu  Eu7       1.0  0.58622  0.72919  0.30134  1.0000 2.1261569848
Eu  Eu8       1.0  0.41378  0.27081  0.69866  1.0000 2.1261569848
Eu  Eu9       1.0  0.82479  0.30957  0.08727  1.0000 1.9682436695
Eu  Eu10      1.0  0.17521  0.69043  0.91273  1.0000 1.9682436695
Eu  Eu11      1.0  0.17521  0.30957  0.41273  1.0000 1.9682436695
Eu  Eu12      1.0  0.82479  0.69043  0.58727  1.0000 1.9682436695
Eu  Eu13      1.0  0.32479  0.80957  0.08727  1.0000 1.9636639347
Eu  Eu14      1.0  0.67521  0.19043  0.91273  1.0000 1.9636639347
Eu  Eu15      1.0  0.67521  0.80957  0.41273  1.0000 1.9682436695
Eu  Eu16      1.0  0.32479  0.19043  0.58727  1.0000 1.9636639347
Cu  Cu1       1.0  0.83170  0.19023  0.56940  1.0000 0.5899119964
Cu  Cu2       1.0  0.16830  0.80977  0.43060  1.0000 0.5899119964
Cu  Cu3       1.0  0.16830  0.19023  0.93060  1.0000 0.5899119964
Cu  Cu4       1.0  0.83170  0.80977  0.06940  1.0000 0.5899119964
Cu  Cu5       1.0  0.33170  0.69023  0.56940  1.0000 0.5899119964
Cu  Cu6       1.0  0.66830  0.30977  0.43060  1.0000 0.5899119964
Cu  Cu7       1.0  0.66830  0.69023  0.93060  1.0000 0.5899119964
Cu  Cu8       1.0  0.33170  0.30977  0.06940  1.0000 0.5899119964
Cu  Cu9       1.0  0.50000  0.22680  0.25000  1.0000 0.5717828711
Cu  Cu10      1.0  0.50000  0.77320  0.75000  1.0000 0.5717828711
Cu  Cu11      1.0  0.00000  0.72680  0.25000  1.0000 0.5717828711
Cu  Cu12      1.0  0.00000  0.27320  0.75000  1.0000 0.5717828711
H   H1        1.0  0.80770  0.37400  0.48350  1.0000 0.12790954
H   H2        1.0  0.19230  0.62600  0.51650  1.0000 0.12790954
H   H3        1.0  0.19230  0.37400  0.01650  1.0000 0.12790954
H   H4        1.0  0.80770  0.62600  0.98350  1.0000 0.12790954
H   H5        1.0  0.30770  0.87400  0.48350  1.0000 0.12790954
H   H6        1.0  0.69230  0.12600  0.51650  1.0000 0.12790954
H   H7        1.0  0.69230  0.87400  0.01650  1.0000 0.12790954
H   H8        1.0  0.30770  0.12600  0.98350  1.0000 0.12790954
H   H9        1.0  0.82320  0.30370  0.42900  1.0000 0.12790954
H   H10       1.0  0.17680  0.69630  0.57100  1.0000 0.12790954
H   H11       1.0  0.17680  0.30370  0.07100  1.0000 0.12790954
H   H12       1.0  0.82320  0.69630  0.92900  1.0000 0.12790954
H   H13       1.0  0.32320  0.80370  0.42900  1.0000 0.12790954
H   H14       1.0  0.67680  0.19630  0.57100  1.0000 0.12790954
H   H15       1.0  0.67680  0.80370  0.07100  1.0000 0.12790954
H   H16       1.0  0.32320  0.19630  0.92900  1.0000 0.12790954
H   H17       1.0  0.88880  0.08680  0.44220  1.0000 0.12790954
H   H18       1.0  0.11120  0.91320  0.55780  1.0000 0.12790954
H   H19       1.0  0.11120  0.08680  0.05780  1.0000 0.12790954
H   H20       1.0  0.88880  0.91320  0.94220  1.0000 0.12790954
H   H21       1.0  0.38880  0.58680  0.44220  1.0000 0.12790954
H   H22       1.0  0.61120  0.41320  0.55780  1.0000 0.12790954
H   H23       1.0  0.61120  0.58680  0.05780  1.0000 0.12790954
H   H24       1.0  0.38880  0.41320  0.94220  1.0000 0.12790954
H   H25       1.0  0.87840  0.01250  0.49440  1.0000 0.12790954
H   H26       1.0  0.12160  0.98750  0.50560  1.0000 0.12790954
H   H27       1.0  0.12160  0.01250  0.00560  1.0000 0.12790954
H   H28       1.0  0.87840  0.98750  0.99440  1.0000 0.12790954
H   H29       1.0  0.37840  0.51250  0.49440  1.0000 0.12790954
H   H30       1.0  0.62160  0.48750  0.50560  1.0000 0.12790954
H   H31       1.0  0.62160  0.51250  0.00560  1.0000 0.12790954
H   H32       1.0  0.37840  0.48750  0.99440  1.0000 0.12790954
H   H33       1.0  0.79260  0.00650  0.64000  1.0000 0.12790954
H   H34       1.0  0.20740  0.99350  0.36000  1.0000 0.12790954
H   H35       1.0  0.20740  0.00650  0.86000  1.0000 0.12790954
H   H36       1.0  0.79260  0.99350  0.14000  1.0000 0.12790954
H   H37       1.0  0.29260  0.50650  0.64000  1.0000 0.12790954
H   H38       1.0  0.70740  0.49350  0.36000  1.0000 0.12790954
H   H39       1.0  0.70740  0.50650  0.86000  1.0000 0.12790954
H   H40       1.0  0.29260  0.49350  0.14000  1.0000 0.12790954
H   H41       1.0  0.77570  0.07730  0.69370  1.0000 0.12790954
H   H42       1.0  0.22430  0.92270  0.30630  1.0000 0.12790954
H   H43       1.0  0.22430  0.07730  0.80630  1.0000 0.12790954
H   H44       1.0  0.77570  0.92270  0.19370  1.0000 0.12790954
H   H45       1.0  0.27570  0.57730  0.69370  1.0000 0.12790954
H   H46       1.0  0.72430  0.42270  0.30630  1.0000 0.12790954
H   H47       1.0  0.72430  0.57730  0.80630  1.0000 0.12790954
H   H48       1.0  0.27570  0.42270  0.19370  1.0000 0.12790954
H   H49       1.0  0.84110  0.29360  0.71510  1.0000 0.12790954
H   H50       1.0  0.15890  0.70640  0.28490  1.0000 0.12790954
H   H51       1.0  0.15890  0.29360  0.78490  1.0000 0.12790954
H   H52       1.0  0.84110  0.70640  0.21510  1.0000 0.12790954
H   H53       1.0  0.34110  0.79360  0.71510  1.0000 0.12790954
H   H54       1.0  0.65890  0.20640  0.28490  1.0000 0.12790954
H   H55       1.0  0.65890  0.79360  0.78490  1.0000 0.12790954
H   H56       1.0  0.34110  0.20640  0.21510  1.0000 0.12790954
H   H57       1.0  0.85850  0.36750  0.66380  1.0000 0.12790954
H   H58       1.0  0.14150  0.63250  0.33620  1.0000 0.12790954
H   H59       1.0  0.14150  0.36750  0.83620  1.0000 0.12790954
H   H60       1.0  0.85850  0.63250  0.16380  1.0000 0.12790954
H   H61       1.0  0.35850  0.86750  0.66380  1.0000 0.12790954
H   H62       1.0  0.64150  0.13250  0.33620  1.0000 0.12790954
H   H63       1.0  0.64150  0.86750  0.83620  1.0000 0.12790954
H   H64       1.0  0.35850  0.13250  0.16380  1.0000 0.12790954
H   H65       1.0  0.77940  0.19930  0.38100  1.0000 0.1121421524
H   H66       1.0  0.22060  0.80070  0.61900  1.0000 0.1121421524
H   H67       1.0  0.22060  0.19930  0.11900  1.0000 0.1121421524
H   H68       1.0  0.77940  0.80070  0.88100  1.0000 0.1121421524
H   H69       1.0  0.27940  0.69930  0.38100  1.0000 0.1121421524
H   H70       1.0  0.72060  0.30070  0.61900  1.0000 0.1121421524
H   H71       1.0  0.72060  0.69930  0.11900  1.0000 0.1121421524
H   H72       1.0  0.27940  0.30070  0.88100  1.0000 0.1121421524
H   H73       1.0  0.80770  0.21120  0.31450  1.0000 0.1192718359
H   H74       1.0  0.19230  0.78880  0.68550  1.0000 0.1192718359
H   H75       1.0  0.19230  0.21120  0.18550  1.0000 0.1192718359
H   H76       1.0  0.80770  0.78880  0.81450  1.0000 0.1192718359
H   H77       1.0  0.30770  0.71120  0.31450  1.0000 0.1192718359
H   H78       1.0  0.69230  0.28880  0.68550  1.0000 0.1192718359
H   H79       1.0  0.69230  0.71120  0.18550  1.0000 0.1192718359
H   H80       1.0  0.30770  0.28880  0.81450  1.0000 0.1192718359
H   H81       1.0  0.99540  0.20540  0.38140  1.0000 0.1192718359
H   H82       1.0  0.00460  0.79460  0.61860  1.0000 0.1192718359
H   H83       1.0  0.00460  0.20540  0.11860  1.0000 0.1192718359
H   H84       1.0  0.99540  0.79460  0.88140  1.0000 0.1192718359
H   H85       1.0  0.49540  0.70540  0.38140  1.0000 0.1192718359
H   H86       1.0  0.50460  0.29460  0.61860  1.0000 0.1192718359
H   H87       1.0  0.50460  0.70540  0.11860  1.0000 0.1192718359
H   H88       1.0  0.49540  0.29460  0.88140  1.0000 0.1192718359
H   H89       1.0  0.96670  0.19530  0.44850  1.0000 0.1192718359
H   H90       1.0  0.03330  0.80470  0.55150  1.0000 0.1192718359
H   H91       1.0  0.03330  0.19530  0.05150  1.0000 0.1192718359
H   H92       1.0  0.96670  0.80470  0.94850  1.0000 0.1192718359
H   H93       1.0  0.46670  0.69530  0.44850  1.0000 0.1192718359
H   H94       1.0  0.53330  0.30470  0.55150  1.0000 0.1192718359
H   H95       1.0  0.53330  0.69530  0.05150  1.0000 0.1192718359
H   H96       1.0  0.46670  0.30470  0.94850  1.0000 0.1192718359
H   H97       1.0  0.93120  0.98110  0.60930  1.0000 0.1192718359
H   H98       1.0  0.06880  0.01890  0.39070  1.0000 0.1192718359
H   H99       1.0  0.06880  0.98110  0.89070  1.0000 0.1192718359
H   H100      1.0  0.93120  0.01890  0.10930  1.0000 0.1192718359
H   H101      1.0  0.43120  0.48110  0.60930  1.0000 0.1192718359
H   H102      1.0  0.56880  0.51890  0.39070  1.0000 0.1192718359
H   H103      1.0  0.56880  0.48110  0.89070  1.0000 0.1192718359
H   H104      1.0  0.43120  0.51890  0.10930  1.0000 0.1192718359
H   H105      1.0  0.92900  0.88610  0.62260  1.0000 0.1192718359
H   H106      1.0  0.07100  0.11390  0.37740  1.0000 0.1192718359
H   H107      1.0  0.07100  0.88610  0.87740  1.0000 0.1192718359
H   H108      1.0  0.92900  0.11390  0.12260  1.0000 0.1192718359
H   H109      1.0  0.42900  0.38610  0.62260  1.0000 0.1192718359
H   H110      1.0  0.57100  0.61390  0.37740  1.0000 0.1192718359
H   H111      1.0  0.57100  0.38610  0.87740  1.0000 0.1192718359
H   H112      1.0  0.42900  0.61390  0.12260  1.0000 0.1192718359
H   H113      1.0  0.74640  0.87770  0.54280  1.0000 0.1374122342
H   H114      1.0  0.25360  0.12230  0.45720  1.0000 0.1374122342
H   H115      1.0  0.25360  0.87770  0.95720  1.0000 0.1374122342
H   H116      1.0  0.74640  0.12230  0.04280  1.0000 0.1374122342
H   H117      1.0  0.24640  0.37770  0.54280  1.0000 0.1374122342
H   H118      1.0  0.75360  0.62230  0.45720  1.0000 0.1374122342
H   H119      1.0  0.75360  0.37770  0.95720  1.0000 0.1374122342
H   H120      1.0  0.24640  0.62230  0.04280  1.0000 0.1374122342
H   H121      1.0  0.74740  0.97300  0.53090  1.0000 0.12790954
H   H122      1.0  0.25260  0.02700  0.46910  1.0000 0.12790954
H   H123      1.0  0.25260  0.97300  0.96910  1.0000 0.1192718359
H   H124      1.0  0.74740  0.02700  0.03090  1.0000 0.12790954
H   H125      1.0  0.24740  0.47300  0.53090  1.0000 0.12790954
H   H126      1.0  0.75260  0.52700  0.46910  1.0000 0.1192718359
H   H127      1.0  0.75260  0.47300  0.96910  1.0000 0.1192718359
H   H128      1.0  0.24740  0.52700  0.03090  1.0000 0.1192718359
H   H129      1.0  0.69590  0.16610  0.69010  1.0000 0.1192718359
H   H130      1.0  0.30410  0.83390  0.30990  1.0000 0.1192718359
H   H131      1.0  0.30410  0.16610  0.80990  1.0000 0.1192718359
H   H132      1.0  0.69590  0.83390  0.19010  1.0000 0.1192718359
H   H133      1.0  0.19590  0.66610  0.69010  1.0000 0.1192718359
H   H134      1.0  0.80410  0.33390  0.30990  1.0000 0.1192718359
H   H135      1.0  0.80410  0.66610  0.80990  1.0000 0.1192718359
H   H136      1.0  0.19590  0.33390  0.19010  1.0000 0.1192718359
H   H137      1.0  0.66350  0.16920  0.75570  1.0000 0.1192718359
H   H138      1.0  0.33650  0.83080  0.24430  1.0000 0.1192718359
H   H139      1.0  0.33650  0.16920  0.74430  1.0000 0.1192718359
H   H140      1.0  0.66350  0.83080  0.25570  1.0000 0.1192718359
H   H141      1.0  0.16350  0.66920  0.75570  1.0000 0.1192718359
H   H142      1.0  0.83650  0.33080  0.24430  1.0000 0.1192718359
H   H143      1.0  0.83650  0.66920  0.74430  1.0000 0.1192718359
H   H144      1.0  0.16350  0.33080  0.25570  1.0000 0.1192718359
H   H145      1.0  0.84570  0.20480  0.82580  1.0000 0.1121421524
H   H146      1.0  0.15430  0.79520  0.17420  1.0000 0.1121421524
H   H147      1.0  0.15430  0.20480  0.67420  1.0000 0.1121421524
H   H148      1.0  0.84570  0.79520  0.32580  1.0000 0.1121421524
H   H149      1.0  0.34570  0.70480  0.82580  1.0000 0.1121421524
H   H150      1.0  0.65430  0.29520  0.17420  1.0000 0.1121421524
H   H151      1.0  0.65430  0.70480  0.67420  1.0000 0.1121421524
H   H152      1.0  0.34570  0.29520  0.32580  1.0000 0.1121421524
H   H153      1.0  0.87890  0.20360  0.75960  1.0000 0.1121421524
H   H154      1.0  0.12110  0.79640  0.24040  1.0000 0.1121421524
H   H155      1.0  0.12110  0.20360  0.74040  1.0000 0.1121421524
H   H156      1.0  0.87890  0.79640  0.25960  1.0000 0.1121421524
H   H157      1.0  0.37890  0.70360  0.75960  1.0000 0.1121421524
H   H158      1.0  0.62110  0.29640  0.24040  1.0000 0.1121421524
H   H159      1.0  0.62110  0.70360  0.74040  1.0000 0.1121421524
H   H160      1.0  0.37890  0.29640  0.25960  1.0000 0.1121421524
H   H161      1.0  0.90750  0.40730  0.54830  1.0000 0.1192718359
H   H162      1.0  0.09250  0.59270  0.45170  1.0000 0.1192718359
H   H163      1.0  0.09250  0.40730  0.95170  1.0000 0.1192718359
H   H164      1.0  0.90750  0.59270  0.04830  1.0000 0.1192718359
H   H165      1.0  0.40750  0.90730  0.54830  1.0000 0.1192718359
H   H166      1.0  0.59250  0.09270  0.45170  1.0000 0.1192718359
H   H167      1.0  0.59250  0.90730  0.95170  1.0000 0.1192718359
H   H168      1.0  0.40750  0.09270  0.04830  1.0000 0.1192718359
H   H169      1.0  0.90860  0.50400  0.55230  1.0000 0.1192718359
H   H170      1.0  0.09140  0.49600  0.44770  1.0000 0.1192718359
H   H171      1.0  0.09140  0.50400  0.94770  1.0000 0.1192718359
H   H172      1.0  0.90860  0.49600  0.05230  1.0000 0.1192718359
H   H173      1.0  0.40860  0.00400  0.55230  1.0000 0.1192718359
H   H174      1.0  0.59140  0.99600  0.44770  1.0000 0.1192718359
H   H175      1.0  0.59140  0.00400  0.94770  1.0000 0.1192718359
H   H176      1.0  0.40860  0.99600  0.05230  1.0000 0.1192718359
H   H177      1.0  0.75650  0.49950  0.60510  1.0000 0.1192718359
H   H178      1.0  0.24350  0.50050  0.39490  1.0000 0.1192718359
H   H179      1.0  0.24350  0.49950  0.89490  1.0000 0.1192718359
H   H180      1.0  0.75650  0.50050  0.10510  1.0000 0.1192718359
H   H181      1.0  0.25650  0.99950  0.60510  1.0000 0.1192718359
H   H182      1.0  0.74350  0.00050  0.39490  1.0000 0.1192718359
H   H183      1.0  0.74350  0.99950  0.89490  1.0000 0.1192718359
H   H184      1.0  0.25650  0.00050  0.10510  1.0000 0.1192718359
H   H185      1.0  0.75520  0.40260  0.60050  1.0000 0.1121421524
H   H186      1.0  0.24480  0.59740  0.39950  1.0000 0.1121421524
H   H187      1.0  0.24480  0.40260  0.89950  1.0000 0.1121421524
H   H188      1.0  0.75520  0.59740  0.10050  1.0000 0.1121421524
H   H189      1.0  0.25520  0.90260  0.60050  1.0000 0.1121421524
H   H190      1.0  0.74480  0.09740  0.39950  1.0000 0.1121421524
H   H191      1.0  0.74480  0.90260  0.89950  1.0000 0.1121421524
H   H192      1.0  0.25520  0.09740  0.10050  1.0000 0.1121421524
H   H193      1.0  0.00750  0.91160  0.16540  1.0000 0.1192718359
H   H194      1.0  0.99250  0.08840  0.83460  1.0000 0.1192718359
H   H195      1.0  0.99250  0.91160  0.33460  1.0000 0.1192718359
H   H196      1.0  0.00750  0.08840  0.66540  1.0000 0.1192718359
H   H197      1.0  0.50750  0.41160  0.16540  1.0000 0.1192718359
H   H198      1.0  0.49250  0.58840  0.83460  1.0000 0.1192718359
H   H199      1.0  0.49250  0.41160  0.33460  1.0000 0.1192718359
H   H200      1.0  0.50750  0.58840  0.66540  1.0000 0.1192718359
H   H201      1.0  0.02050  0.83790  0.11280  1.0000 0.12790954
H   H202      1.0  0.97950  0.16210  0.88720  1.0000 0.12790954
H   H203      1.0  0.97950  0.83790  0.38720  1.0000 0.12790954
H   H204      1.0  0.02050  0.16210  0.61280  1.0000 0.12790954
H   H205      1.0  0.52050  0.33790  0.11280  1.0000 0.12790954
H   H206      1.0  0.47950  0.66210  0.88720  1.0000 0.12790954
H   H207      1.0  0.47950  0.33790  0.38720  1.0000 0.12790954
H   H208      1.0  0.52050  0.66210  0.61280  1.0000 0.12790954
H   H209      1.0  0.02510  0.61730  0.11390  1.0000 0.12790954
H   H210      1.0  0.97490  0.38270  0.88610  1.0000 0.12790954
H   H211      1.0  0.97490  0.61730  0.38610  1.0000 0.12790954
H   H212      1.0  0.02510  0.38270  0.61390  1.0000 0.12790954
H   H213      1.0  0.52510  0.11730  0.11390  1.0000 0.12790954
H   H214      1.0  0.47490  0.88270  0.88610  1.0000 0.12790954
H   H215      1.0  0.47490  0.11730  0.38610  1.0000 0.12790954
H   H216      1.0  0.52510  0.88270  0.61390  1.0000 0.12790954
H   H217      1.0  0.01210  0.54410  0.16710  1.0000 0.12790954
H   H218      1.0  0.98790  0.45590  0.83290  1.0000 0.12790954
H   H219      1.0  0.98790  0.54410  0.33290  1.0000 0.12790954
H   H220      1.0  0.01210  0.45590  0.66710  1.0000 0.12790954
H   H221      1.0  0.51210  0.04410  0.16710  1.0000 0.12790954
H   H222      1.0  0.48790  0.95590  0.83290  1.0000 0.12790954
H   H223      1.0  0.48790  0.04410  0.33290  1.0000 0.12790954
H   H224      1.0  0.51210  0.95590  0.66710  1.0000 0.12790954
H   H225      1.0  0.91470  0.94620  0.20260  1.0000 0.1121421524
H   H226      1.0  0.08530  0.05380  0.79740  1.0000 0.1121421524
H   H227      1.0  0.08530  0.94620  0.29740  1.0000 0.1121421524
H   H228      1.0  0.91470  0.05380  0.70260  1.0000 0.1121421524
H   H229      1.0  0.41470  0.44620  0.20260  1.0000 0.1121421524
H   H230      1.0  0.58530  0.55380  0.79740  1.0000 0.1121421524
H   H231      1.0  0.58530  0.44620  0.29740  1.0000 0.1121421524
H   H232      1.0  0.41470  0.55380  0.70260  1.0000 0.1121421524
H   H233      1.0  0.91540  0.04250  0.20240  1.0000 0.1192718359
H   H234      1.0  0.08460  0.95750  0.79760  1.0000 0.1192718359
H   H235      1.0  0.08460  0.04250  0.29760  1.0000 0.1192718359
H   H236      1.0  0.91540  0.95750  0.70240  1.0000 0.1192718359
H   H237      1.0  0.41540  0.54250  0.20240  1.0000 0.1192718359
H   H238      1.0  0.58460  0.45750  0.79760  1.0000 0.1192718359
H   H239      1.0  0.58460  0.54250  0.29760  1.0000 0.1192718359
H   H240      1.0  0.41540  0.45750  0.70240  1.0000 0.1192718359
H   H241      1.0  0.13260  0.72490  0.12490  1.0000 0.1192718359
H   H242      1.0  0.86740  0.27510  0.87510  1.0000 0.1192718359
H   H243      1.0  0.86740  0.72490  0.37510  1.0000 0.1192718359
H   H244      1.0  0.13260  0.27510  0.62490  1.0000 0.1192718359
H   H245      1.0  0.63260  0.22490  0.12490  1.0000 0.1192718359
H   H246      1.0  0.36740  0.77510  0.87510  1.0000 0.1192718359
H   H247      1.0  0.36740  0.22490  0.37510  1.0000 0.1192718359
H   H248      1.0  0.63260  0.77510  0.62490  1.0000 0.1192718359
H   H249      1.0  0.15830  0.71710  0.05810  1.0000 0.1374122342
H   H250      1.0  0.84170  0.28290  0.94190  1.0000 0.1374122342
H   H251      1.0  0.84170  0.71710  0.44190  1.0000 0.1374122342
H   H252      1.0  0.15830  0.28290  0.55810  1.0000 0.1374122342
H   H253      1.0  0.65830  0.21710  0.05810  1.0000 0.1374122342
H   H254      1.0  0.34170  0.78290  0.94190  1.0000 0.1374122342
H   H255      1.0  0.34170  0.21710  0.44190  1.0000 0.1374122342
H   H256      1.0  0.65830  0.78290  0.55810  1.0000 0.1374122342
H   H257      1.0  0.97040  0.71760  0.99450  1.0000 0.1192718359
H   H258      1.0  0.02960  0.28240  0.00550  1.0000 0.1192718359
H   H259      1.0  0.02960  0.71760  0.50550  1.0000 0.1192718359
H   H260      1.0  0.97040  0.28240  0.49450  1.0000 0.1192718359
H   H261      1.0  0.47040  0.21760  0.99450  1.0000 0.1192718359
H   H262      1.0  0.52960  0.78240  0.00550  1.0000 0.1192718359
H   H263      1.0  0.52960  0.21760  0.50550  1.0000 0.1192718359
H   H264      1.0  0.47040  0.78240  0.49450  1.0000 0.1192718359
H   H265      1.0  0.94650  0.72930  0.06160  1.0000 0.1192718359
H   H266      1.0  0.05350  0.27070  0.93840  1.0000 0.1192718359
H   H267      1.0  0.05350  0.72930  0.43840  1.0000 0.1192718359
H   H268      1.0  0.94650  0.27070  0.56160  1.0000 0.1192718359
H   H269      1.0  0.44650  0.22930  0.06160  1.0000 0.1192718359
H   H270      1.0  0.55350  0.77070  0.93840  1.0000 0.1192718359
H   H271      1.0  0.55350  0.22930  0.43840  1.0000 0.1192718359
H   H272      1.0  0.44650  0.77070  0.56160  1.0000 0.1192718359
H   H273      1.0  0.91090  0.51140  0.20700  1.0000 0.1192718359
H   H274      1.0  0.08910  0.48860  0.79300  1.0000 0.1192718359
H   H275      1.0  0.08910  0.51140  0.29300  1.0000 0.1192718359
H   H276      1.0  0.91090  0.48860  0.70700  1.0000 0.1192718359
H   H277      1.0  0.41090  0.01140  0.20700  1.0000 0.1192718359
H   H278      1.0  0.58910  0.98860  0.79300  1.0000 0.1192718359
H   H279      1.0  0.58910  0.01140  0.29300  1.0000 0.1192718359
H   H280      1.0  0.41090  0.98860  0.70700  1.0000 0.1192718359
H   H281      1.0  0.91080  0.41380  0.20720  1.0000 0.12790954
H   H282      1.0  0.08920  0.58620  0.79280  1.0000 0.12790954
H   H283      1.0  0.08920  0.41380  0.29280  1.0000 0.12790954
H   H284      1.0  0.91080  0.58620  0.70720  1.0000 0.12790954
H   H285      1.0  0.41080  0.91380  0.20720  1.0000 0.12790954
H   H286      1.0  0.58920  0.08620  0.79280  1.0000 0.12790954
H   H287      1.0  0.58920  0.91380  0.29280  1.0000 0.12790954
H   H288      1.0  0.41080  0.08620  0.70720  1.0000 0.12790954
C   C1        1.0  0.82430  0.30742  0.53066  1.0000 0.1793214611
C   C2        1.0  0.17570  0.69258  0.46934  1.0000 0.1793214611
C   C3        1.0  0.17570  0.30742  0.96934  1.0000 0.1793214611
C   C4        1.0  0.82430  0.69258  0.03066  1.0000 0.1715455124
C   C5        1.0  0.32430  0.80742  0.53066  1.0000 0.1793214611
C   C6        1.0  0.67570  0.19258  0.46934  1.0000 0.1793214611
C   C7        1.0  0.67570  0.80742  0.96934  1.0000 0.1793214611
C   C8        1.0  0.32430  0.19258  0.03066  1.0000 0.1793214611
C   C9        1.0  0.81670  0.33557  0.48909  1.0000 -0.188536942
C   C10       1.0  0.18330  0.66443  0.51091  1.0000 -0.188536942
C   C11       1.0  0.18330  0.33557  0.01091  1.0000 -0.188536942
C   C12       1.0  0.81670  0.66443  0.98909  1.0000 -0.188536942
C   C13       1.0  0.31670  0.83557  0.48909  1.0000 -0.188536942
C   C14       1.0  0.68330  0.16443  0.51091  1.0000 -0.188536942
C   C15       1.0  0.68330  0.83557  0.01091  1.0000 -0.188536942
C   C16       1.0  0.31670  0.16443  0.98909  1.0000 -0.188536942
C   C17       1.0  0.82470  0.29720  0.45935  1.0000 -0.188536942
C   C18       1.0  0.17530  0.70280  0.54065  1.0000 -0.188536942
C   C19       1.0  0.17530  0.29720  0.04065  1.0000 -0.188536942
C   C20       1.0  0.82470  0.70280  0.95935  1.0000 -0.188536942
C   C21       1.0  0.32470  0.79720  0.45935  1.0000 -0.188536942
C   C22       1.0  0.67530  0.20280  0.54065  1.0000 -0.188536942
C   C23       1.0  0.67530  0.79720  0.04065  1.0000 -0.188536942
C   C24       1.0  0.32470  0.20280  0.95935  1.0000 -0.188536942
C   C25       1.0  0.83590  0.24463  0.48235  1.0000 0.1893827012
C   C26       1.0  0.16410  0.75537  0.51765  1.0000 0.1893827012
C   C27       1.0  0.16410  0.24463  0.01765  1.0000 0.1893827012
C   C28       1.0  0.83590  0.75537  0.98235  1.0000 0.1893827012
C   C29       1.0  0.33590  0.74463  0.48235  1.0000 0.1893827012
C   C30       1.0  0.66410  0.25537  0.51765  1.0000 0.1893827012
C   C31       1.0  0.66410  0.74463  0.01765  1.0000 0.1893827012
C   C32       1.0  0.33590  0.25537  0.98235  1.0000 0.1893827012
C   C33       1.0  0.85400  0.19467  0.46511  1.0000 -0.0624369607
C   C34       1.0  0.14600  0.80533  0.53489  1.0000 -0.0624369607
C   C35       1.0  0.14600  0.19467  0.03489  1.0000 -0.0624369607
C   C36       1.0  0.85400  0.80533  0.96511  1.0000 -0.0624369607
C   C37       1.0  0.35400  0.69467  0.46511  1.0000 -0.0624369607
C   C38       1.0  0.64600  0.30533  0.53489  1.0000 -0.0624369607
C   C39       1.0  0.64600  0.69467  0.03489  1.0000 -0.0624369607
C   C40       1.0  0.35400  0.30533  0.96511  1.0000 -0.0624369607
C   C41       1.0  0.86050  0.14305  0.48629  1.0000 0.1793214611
C   C42       1.0  0.13950  0.85695  0.51371  1.0000 0.1793214611
C   C43       1.0  0.13950  0.14305  0.01371  1.0000 0.1793214611
C   C44       1.0  0.86050  0.85695  0.98629  1.0000 0.1793214611
C   C45       1.0  0.36050  0.64305  0.48629  1.0000 0.1793214611
C   C46       1.0  0.63950  0.35695  0.51371  1.0000 0.1793214611
C   C47       1.0  0.63950  0.64305  0.01371  1.0000 0.1793214611
C   C48       1.0  0.36050  0.35695  0.98629  1.0000 0.1793214611
C   C49       1.0  0.87640  0.09158  0.46904  1.0000 -0.1797307397
C   C50       1.0  0.12360  0.90842  0.53096  1.0000 -0.1797307397
C   C51       1.0  0.12360  0.09158  0.03096  1.0000 -0.1797307397
C   C52       1.0  0.87640  0.90842  0.96904  1.0000 -0.1797307397
C   C53       1.0  0.37640  0.59158  0.46904  1.0000 -0.1797307397
C   C54       1.0  0.62360  0.40842  0.53096  1.0000 -0.1797307397
C   C55       1.0  0.62360  0.59158  0.03096  1.0000 -0.1797307397
C   C56       1.0  0.37640  0.40842  0.96904  1.0000 -0.1797307397
C   C57       1.0  0.87070  0.05100  0.49745  1.0000 -0.1747620664
C   C58       1.0  0.12930  0.94900  0.50255  1.0000 -0.1797307397
C   C59       1.0  0.12930  0.05100  0.00255  1.0000 -0.1797307397
C   C60       1.0  0.87070  0.94900  0.99745  1.0000 -0.1797307397
C   C61       1.0  0.37070  0.55100  0.49745  1.0000 -0.1797307397
C   C62       1.0  0.62930  0.44900  0.50255  1.0000 -0.1747620664
C   C63       1.0  0.62930  0.55100  0.00255  1.0000 -0.1747620664
C   C64       1.0  0.37070  0.44900  0.99745  1.0000 -0.1797307397
C   C65       1.0  0.85100  0.07676  0.53335  1.0000 0.1793214611
C   C66       1.0  0.14900  0.92324  0.46665  1.0000 0.1793214611
C   C67       1.0  0.14900  0.07676  0.96665  1.0000 0.1793214611
C   C68       1.0  0.85100  0.92324  0.03335  1.0000 0.1793214611
C   C69       1.0  0.35100  0.57676  0.53335  1.0000 0.1793214611
C   C70       1.0  0.64900  0.42324  0.46665  1.0000 0.1793214611
C   C71       1.0  0.64900  0.57676  0.96665  1.0000 0.1793214611
C   C72       1.0  0.35100  0.42324  0.03335  1.0000 0.1793214611
C   C73       1.0  0.83570  0.04920  0.56858  1.0000 -0.0704676891
C   C74       1.0  0.16430  0.95080  0.43142  1.0000 -0.0704676891
C   C75       1.0  0.16430  0.04920  0.93142  1.0000 -0.0704676891
C   C76       1.0  0.83570  0.95080  0.06858  1.0000 -0.0704676891
C   C77       1.0  0.33570  0.54920  0.56858  1.0000 -0.0704676891
C   C78       1.0  0.66430  0.45080  0.43142  1.0000 -0.0704676891
C   C79       1.0  0.66430  0.54920  0.93142  1.0000 -0.0704676891
C   C80       1.0  0.33570  0.45080  0.06858  1.0000 -0.0704676891
C   C81       1.0  0.81740  0.07494  0.60352  1.0000 0.1893827012
C   C82       1.0  0.18260  0.92506  0.39648  1.0000 0.1893827012
C   C83       1.0  0.18260  0.07494  0.89648  1.0000 0.1893827012
C   C84       1.0  0.81740  0.92506  0.10352  1.0000 0.1893827012
C   C85       1.0  0.31740  0.57494  0.60352  1.0000 0.1893827012
C   C86       1.0  0.68260  0.42506  0.39648  1.0000 0.1893827012
C   C87       1.0  0.68260  0.57494  0.89648  1.0000 0.1893827012
C   C88       1.0  0.31740  0.42506  0.10352  1.0000 0.1893827012
C   C89       1.0  0.79800  0.04562  0.63812  1.0000 -0.188536942
C   C90       1.0  0.20200  0.95438  0.36188  1.0000 -0.188536942
C   C91       1.0  0.20200  0.04562  0.86188  1.0000 -0.188536942
C   C92       1.0  0.79800  0.95438  0.13812  1.0000 -0.188536942
C   C93       1.0  0.29800  0.54562  0.63812  1.0000 -0.188536942
C   C94       1.0  0.70200  0.45438  0.36188  1.0000 -0.188536942
C   C95       1.0  0.70200  0.54562  0.86188  1.0000 -0.188536942
C   C96       1.0  0.29800  0.45438  0.13812  1.0000 -0.188536942
C   C97       1.0  0.78890  0.08416  0.66740  1.0000 -0.1797307397
C   C98       1.0  0.21110  0.91584  0.33260  1.0000 -0.1797307397
C   C99       1.0  0.21110  0.08416  0.83260  1.0000 -0.1797307397
C   C100      1.0  0.78890  0.91584  0.16740  1.0000 -0.1797307397
C   C101      1.0  0.28890  0.58416  0.66740  1.0000 -0.1797307397
C   C102      1.0  0.71110  0.41584  0.33260  1.0000 -0.1797307397
C   C103      1.0  0.71110  0.58416  0.83260  1.0000 -0.1797307397
C   C104      1.0  0.28890  0.41584  0.16740  1.0000 -0.1797307397
C   C105      1.0  0.80290  0.13783  0.65126  1.0000 0.1793214611
C   C106      1.0  0.19710  0.86217  0.34874  1.0000 0.1793214611
C   C107      1.0  0.19710  0.13783  0.84874  1.0000 0.1793214611
C   C108      1.0  0.80290  0.86217  0.15126  1.0000 0.1793214611
C   C109      1.0  0.30290  0.63783  0.65126  1.0000 0.1793214611
C   C110      1.0  0.69710  0.36217  0.34874  1.0000 0.1793214611
C   C111      1.0  0.69710  0.63783  0.84874  1.0000 0.1793214611
C   C112      1.0  0.30290  0.36217  0.15126  1.0000 0.1793214611
C   C113      1.0  0.80860  0.18802  0.67522  1.0000 -0.0704676891
C   C114      1.0  0.19140  0.81198  0.32478  1.0000 -0.0704676891
C   C115      1.0  0.19140  0.18802  0.82478  1.0000 -0.0704676891
C   C116      1.0  0.80860  0.81198  0.17522  1.0000 -0.0704676891
C   C117      1.0  0.30860  0.68802  0.67522  1.0000 -0.0704676891
C   C118      1.0  0.69140  0.31198  0.32478  1.0000 -0.0704676891
C   C119      1.0  0.69140  0.68802  0.82478  1.0000 -0.0704676891
C   C120      1.0  0.30860  0.31198  0.17522  1.0000 -0.0704676891
C   C121      1.0  0.82620  0.23876  0.65964  1.0000 0.1893827012
C   C122      1.0  0.17380  0.76124  0.34036  1.0000 0.1893827012
C   C123      1.0  0.17380  0.23876  0.84036  1.0000 0.1893827012
C   C124      1.0  0.82620  0.76124  0.15964  1.0000 0.1893827012
C   C125      1.0  0.32620  0.73876  0.65964  1.0000 0.1893827012
C   C126      1.0  0.67380  0.26124  0.34036  1.0000 0.1893827012
C   C127      1.0  0.67380  0.73876  0.84036  1.0000 0.1893827012
C   C128      1.0  0.32620  0.26124  0.15964  1.0000 0.1893827012
C   C129      1.0  0.83900  0.28915  0.68435  1.0000 -0.1967216293
C   C130      1.0  0.16100  0.71085  0.31565  1.0000 -0.1967216293
C   C131      1.0  0.16100  0.28915  0.81565  1.0000 -0.1967216293
C   C132      1.0  0.83900  0.71085  0.18435  1.0000 -0.1967216293
C   C133      1.0  0.33900  0.78915  0.68435  1.0000 -0.1967216293
C   C134      1.0  0.66100  0.21085  0.31565  1.0000 -0.1967216293
C   C135      1.0  0.66100  0.78915  0.81565  1.0000 -0.1967216293
C   C136      1.0  0.33900  0.21085  0.18435  1.0000 -0.1967216293
C   C137      1.0  0.84770  0.32974  0.65630  1.0000 -0.1797307397
C   C138      1.0  0.15230  0.67026  0.34370  1.0000 -0.1797307397
C   C139      1.0  0.15230  0.32974  0.84370  1.0000 -0.1797307397
C   C140      1.0  0.84770  0.67026  0.15630  1.0000 -0.1797307397
C   C141      1.0  0.34770  0.82974  0.65630  1.0000 -0.1797307397
C   C142      1.0  0.65230  0.17026  0.34370  1.0000 -0.1797307397
C   C143      1.0  0.65230  0.82974  0.84370  1.0000 -0.1797307397
C   C144      1.0  0.34770  0.17026  0.15630  1.0000 -0.1797307397
C   C145      1.0  0.83760  0.30486  0.61312  1.0000 0.1715455124
C   C146      1.0  0.16240  0.69514  0.38688  1.0000 0.1715455124
C   C147      1.0  0.16240  0.30486  0.88688  1.0000 0.1715455124
C   C148      1.0  0.83760  0.69514  0.11312  1.0000 0.1715455124
C   C149      1.0  0.33760  0.80486  0.61312  1.0000 0.1715455124
C   C150      1.0  0.66240  0.19514  0.38688  1.0000 0.1715455124
C   C151      1.0  0.66240  0.80486  0.88688  1.0000 0.1715455124
C   C152      1.0  0.33760  0.19514  0.11312  1.0000 0.1715455124
C   C153      1.0  0.83080  0.33333  0.57280  1.0000 -0.0624369607
C   C154      1.0  0.16920  0.66667  0.42720  1.0000 -0.0624369607
C   C155      1.0  0.16920  0.33333  0.92720  1.0000 -0.0704676891
C   C156      1.0  0.83080  0.66667  0.07280  1.0000 -0.0624369607
C   C157      1.0  0.33080  0.83331  0.57280  1.0000 -0.0624369607
C   C158      1.0  0.66920  0.16669  0.42720  1.0000 -0.0624369607
C   C159      1.0  0.66920  0.83331  0.92720  1.0000 -0.0704676891
C   C160      1.0  0.33080  0.16669  0.07280  1.0000 -0.0704676891
C   C161      1.0  0.87110  0.19846  0.42151  1.0000 0.0899711812
C   C162      1.0  0.12890  0.80154  0.57849  1.0000 0.0899711812
C   C163      1.0  0.12890  0.19846  0.07849  1.0000 0.0899711812
C   C164      1.0  0.87110  0.80154  0.92151  1.0000 0.0899711812
C   C165      1.0  0.37110  0.69846  0.42151  1.0000 0.0899711812
C   C166      1.0  0.62890  0.30154  0.57849  1.0000 0.0899711812
C   C167      1.0  0.62890  0.69846  0.07849  1.0000 0.0899711812
C   C168      1.0  0.37110  0.30154  0.92151  1.0000 0.0899711812
C   C169      1.0  0.82350  0.20171  0.38138  1.0000 -0.1493735847
C   C170      1.0  0.17650  0.79829  0.61862  1.0000 -0.1493735847
C   C171      1.0  0.17650  0.20171  0.11862  1.0000 -0.1493735847
C   C172      1.0  0.82350  0.79829  0.88138  1.0000 -0.1493735847
C   C173      1.0  0.32350  0.70171  0.38138  1.0000 -0.1493735847
C   C174      1.0  0.67650  0.29829  0.61862  1.0000 -0.1493735847
C   C175      1.0  0.67650  0.70171  0.11862  1.0000 -0.1493735847
C   C176      1.0  0.32350  0.29829  0.88138  1.0000 -0.1493735847
C   C177      1.0  0.84040  0.20847  0.34187  1.0000 -0.0882299242
C   C178      1.0  0.15960  0.79153  0.65813  1.0000 -0.0882299242
C   C179      1.0  0.15960  0.20847  0.15813  1.0000 -0.0882299242
C   C180      1.0  0.84040  0.79153  0.84187  1.0000 -0.0882299242
C   C181      1.0  0.34040  0.70847  0.34187  1.0000 -0.0882299242
C   C182      1.0  0.65960  0.29153  0.65813  1.0000 -0.0882299242
C   C183      1.0  0.65960  0.70847  0.15813  1.0000 -0.0882299242
C   C184      1.0  0.34040  0.29153  0.84187  1.0000 -0.0882299242
C   C185      1.0  0.90440  0.21134  0.34179  1.0000 -0.0497282146
C   C186      1.0  0.09560  0.78866  0.65821  1.0000 -0.0497282146
C   C187      1.0  0.09560  0.21134  0.15821  1.0000 -0.0497282146
C   C188      1.0  0.90440  0.78866  0.84179  1.0000 -0.0497282146
C   C189      1.0  0.40440  0.71134  0.34179  1.0000 -0.0497282146
C   C190      1.0  0.59560  0.28866  0.65821  1.0000 -0.0497282146
C   C191      1.0  0.59560  0.71134  0.15821  1.0000 -0.0497282146
C   C192      1.0  0.40440  0.28866  0.84179  1.0000 -0.0497282146
C   C193      1.0  0.95140  0.20530  0.38118  1.0000 -0.0704676891
C   C194      1.0  0.04860  0.79470  0.61882  1.0000 -0.0704676891
C   C195      1.0  0.04860  0.20530  0.11882  1.0000 -0.0704676891
C   C196      1.0  0.95140  0.79470  0.88118  1.0000 -0.0704676891
C   C197      1.0  0.45140  0.70530  0.38118  1.0000 -0.0704676891
C   C198      1.0  0.54860  0.29470  0.61882  1.0000 -0.0704676891
C   C199      1.0  0.54860  0.70530  0.11882  1.0000 -0.0704676891
C   C200      1.0  0.45140  0.29470  0.88118  1.0000 -0.0704676891
C   C201      1.0  0.93400  0.19910  0.42118  1.0000 -0.1373145739
C   C202      1.0  0.06600  0.80090  0.57882  1.0000 -0.1373145739
C   C203      1.0  0.06600  0.19910  0.07882  1.0000 -0.1373145739
C   C204      1.0  0.93400  0.80090  0.92118  1.0000 -0.1373145739
C   C205      1.0  0.43400  0.69910  0.42118  1.0000 -0.1373145739
C   C206      1.0  0.56600  0.30090  0.57882  1.0000 -0.1373145739
C   C207      1.0  0.56600  0.69910  0.07882  1.0000 -0.1373145739
C   C208      1.0  0.43400  0.30090  0.92118  1.0000 -0.1373145739
C   C209      1.0  0.92160  0.22126  0.29960  1.0000 0.6517514577
C   C210      1.0  0.07840  0.77874  0.70040  1.0000 0.6517514577
C   C211      1.0  0.07840  0.22126  0.20040  1.0000 0.6517514577
C   C212      1.0  0.92160  0.77874  0.79960  1.0000 0.6517514577
C   C213      1.0  0.42160  0.72126  0.29960  1.0000 0.6517514577
C   C214      1.0  0.57840  0.27874  0.70040  1.0000 0.6517514577
C   C215      1.0  0.57840  0.72126  0.20040  1.0000 0.6517514577
C   C216      1.0  0.42160  0.27874  0.79960  1.0000 0.6517514577
C   C217      1.0  0.83850  0.98697  0.57052  1.0000 0.0899711812
C   C218      1.0  0.16150  0.01303  0.42948  1.0000 0.0899711812
C   C219      1.0  0.16150  0.98697  0.92948  1.0000 0.0899711812
C   C220      1.0  0.83850  0.01303  0.07052  1.0000 0.0899711812
C   C221      1.0  0.33850  0.48697  0.57052  1.0000 0.0899711812
C   C222      1.0  0.66150  0.51303  0.42948  1.0000 0.0899711812
C   C223      1.0  0.66150  0.48697  0.92948  1.0000 0.0899711812
C   C224      1.0  0.33850  0.51303  0.07052  1.0000 0.0899711812
C   C225      1.0  0.89320  0.96035  0.59662  1.0000 -0.1593067358
C   C226      1.0  0.10680  0.03965  0.40338  1.0000 -0.1593067358
C   C227      1.0  0.10680  0.96035  0.90338  1.0000 -0.1593067358
C   C228      1.0  0.89320  0.03965  0.09662  1.0000 -0.1593067358
C   C229      1.0  0.39320  0.46035  0.59662  1.0000 -0.1593067358
C   C230      1.0  0.60680  0.53965  0.40338  1.0000 -0.1593067358
C   C231      1.0  0.60680  0.46035  0.90338  1.0000 -0.1593067358
C   C232      1.0  0.39320  0.53965  0.09662  1.0000 -0.1593067358
C   C233      1.0  0.89200  0.90382  0.60401  1.0000 -0.0882299242
C   C234      1.0  0.10800  0.09618  0.39599  1.0000 -0.0882299242
C   C235      1.0  0.10800  0.90382  0.89599  1.0000 -0.0882299242
C   C236      1.0  0.89200  0.09618  0.10401  1.0000 -0.0882299242
C   C237      1.0  0.39200  0.40382  0.60401  1.0000 -0.0882299242
C   C238      1.0  0.60800  0.59618  0.39599  1.0000 -0.0882299242
C   C239      1.0  0.60800  0.40382  0.89599  1.0000 -0.0882299242
C   C240      1.0  0.39200  0.59618  0.10401  1.0000 -0.0882299242
C   C241      1.0  0.83760  0.87256  0.58469  1.0000 -0.0415032925
C   C242      1.0  0.16240  0.12744  0.41531  1.0000 -0.0415032925
C   C243      1.0  0.16240  0.87256  0.91531  1.0000 -0.0415032925
C   C244      1.0  0.83760  0.12744  0.08469  1.0000 -0.0415032925
C   C245      1.0  0.33760  0.37256  0.58469  1.0000 -0.0415032925
C   C246      1.0  0.66240  0.62744  0.41531  1.0000 -0.0415032925
C   C247      1.0  0.66240  0.37256  0.91531  1.0000 -0.0415032925
C   C248      1.0  0.33760  0.62744  0.08469  1.0000 -0.0415032925
C   C249      1.0  0.78350  0.89889  0.55687  1.0000 -0.0767509295
C   C250      1.0  0.21650  0.10111  0.44313  1.0000 -0.0767509295
C   C251      1.0  0.21650  0.89889  0.94313  1.0000 -0.0767509295
C   C252      1.0  0.78350  0.10111  0.05687  1.0000 -0.0767509295
C   C253      1.0  0.28350  0.39889  0.55687  1.0000 -0.0767509295
C   C254      1.0  0.71650  0.60111  0.44313  1.0000 -0.0767509295
C   C255      1.0  0.71650  0.39889  0.94313  1.0000 -0.0767509295
C   C256      1.0  0.28350  0.60111  0.05687  1.0000 -0.0767509295
C   C257      1.0  0.78420  0.95531  0.54988  1.0000 -0.1493735847
C   C258      1.0  0.21580  0.04469  0.45012  1.0000 -0.1493735847
C   C259      1.0  0.21580  0.95531  0.95012  1.0000 -0.1493735847
C   C260      1.0  0.78420  0.04469  0.04988  1.0000 -0.1493735847
C   C261      1.0  0.28420  0.45531  0.54988  1.0000 -0.1493735847
C   C262      1.0  0.71580  0.54469  0.45012  1.0000 -0.1493735847
C   C263      1.0  0.71580  0.45531  0.95012  1.0000 -0.1493735847
C   C264      1.0  0.28420  0.54469  0.04988  1.0000 -0.1493735847
C   C265      1.0  0.83470  0.81209  0.59256  1.0000 0.6128115048
C   C266      1.0  0.16530  0.18791  0.40744  1.0000 0.6128115048
C   C267      1.0  0.16530  0.81209  0.90744  1.0000 0.6128115048
C   C268      1.0  0.83470  0.18791  0.09256  1.0000 0.6128115048
C   C269      1.0  0.33470  0.31209  0.59256  1.0000 0.6128115048
C   C270      1.0  0.66530  0.68791  0.40744  1.0000 0.6128115048
C   C271      1.0  0.66530  0.31209  0.90744  1.0000 0.6128115048
C   C272      1.0  0.33470  0.68791  0.09256  1.0000 0.6128115048
C   C273      1.0  0.78970  0.18675  0.71798  1.0000 0.0899711812
C   C274      1.0  0.21030  0.81325  0.28202  1.0000 0.0899711812
C   C275      1.0  0.21030  0.18675  0.78202  1.0000 0.0899711812
C   C276      1.0  0.78970  0.81325  0.21798  1.0000 0.0899711812
C   C277      1.0  0.28970  0.68675  0.71798  1.0000 0.0899711812
C   C278      1.0  0.71030  0.31325  0.28202  1.0000 0.0899711812
C   C279      1.0  0.71030  0.68675  0.78202  1.0000 0.0899711812
C   C280      1.0  0.28970  0.31325  0.21798  1.0000 0.0899711812
C   C281      1.0  0.72630  0.17523  0.71755  1.0000 -0.1493735847
C   C282      1.0  0.27370  0.82477  0.28245  1.0000 -0.1493735847
C   C283      1.0  0.27370  0.17523  0.78245  1.0000 -0.1493735847
C   C284      1.0  0.72630  0.82477  0.21755  1.0000 -0.1493735847
C   C285      1.0  0.22630  0.67523  0.71755  1.0000 -0.1493735847
C   C286      1.0  0.77370  0.32477  0.28245  1.0000 -0.1493735847
C   C287      1.0  0.77370  0.67523  0.78245  1.0000 -0.1493735847
C   C288      1.0  0.22630  0.32477  0.21755  1.0000 -0.1493735847
C   C289      1.0  0.70690  0.17694  0.75646  1.0000 -0.0882299242
C   C290      1.0  0.29310  0.82306  0.24354  1.0000 -0.0882299242
C   C291      1.0  0.29310  0.17694  0.74354  1.0000 -0.0882299242
C   C292      1.0  0.70690  0.82306  0.25646  1.0000 -0.0882299242
C   C293      1.0  0.20690  0.67694  0.75646  1.0000 -0.0882299242
C   C294      1.0  0.79310  0.32306  0.24354  1.0000 -0.0882299242
C   C295      1.0  0.79310  0.67694  0.74354  1.0000 -0.0882299242
C   C296      1.0  0.20690  0.32306  0.25646  1.0000 -0.0882299242
C   C297      1.0  0.75120  0.19002  0.79656  1.0000 -0.0234441234
C   C298      1.0  0.24880  0.80998  0.20344  1.0000 -0.0234441234
C   C299      1.0  0.24880  0.19002  0.70344  1.0000 -0.0234441234
C   C300      1.0  0.75120  0.80998  0.29656  1.0000 -0.0234441234
C   C301      1.0  0.25120  0.69002  0.79656  1.0000 -0.0234441234
C   C302      1.0  0.74880  0.30998  0.20344  1.0000 -0.0234441234
C   C303      1.0  0.74880  0.69002  0.70344  1.0000 -0.0234441234
C   C304      1.0  0.25120  0.30998  0.29656  1.0000 -0.0234441234
C   C305      1.0  0.81500  0.19834  0.79797  1.0000 -0.0998503387
C   C306      1.0  0.18500  0.80166  0.20203  1.0000 -0.0998503387
C   C307      1.0  0.18500  0.19834  0.70203  1.0000 -0.0998503387
C   C308      1.0  0.81500  0.80166  0.29797  1.0000 -0.0998503387
C   C309      1.0  0.31500  0.69834  0.79797  1.0000 -0.0998503387
C   C310      1.0  0.68500  0.30166  0.20203  1.0000 -0.0998503387
C   C311      1.0  0.68500  0.69834  0.70203  1.0000 -0.0998503387
C   C312      1.0  0.31500  0.30166  0.29797  1.0000 -0.0998503387
C   C313      1.0  0.83510  0.19726  0.75854  1.0000 -0.1493735847
C   C314      1.0  0.16490  0.80274  0.24146  1.0000 -0.1493735847
C   C315      1.0  0.16490  0.19726  0.74146  1.0000 -0.1493735847
C   C316      1.0  0.83510  0.80274  0.25854  1.0000 -0.1493735847
C   C317      1.0  0.33510  0.69726  0.75854  1.0000 -0.1493735847
C   C318      1.0  0.66490  0.30274  0.24146  1.0000 -0.1493735847
C   C319      1.0  0.66490  0.69726  0.74146  1.0000 -0.1493735847
C   C320      1.0  0.33510  0.30274  0.25854  1.0000 -0.1493735847
C   C321      1.0  0.72950  0.19682  0.83813  1.0000 0.6207922092
C   C322      1.0  0.27050  0.80318  0.16187  1.0000 0.6207922092
C   C323      1.0  0.27050  0.19682  0.66187  1.0000 0.6207922092
C   C324      1.0  0.72950  0.80318  0.33813  1.0000 0.6207922092
C   C325      1.0  0.22950  0.69682  0.83813  1.0000 0.6207922092
C   C326      1.0  0.77050  0.30318  0.16187  1.0000 0.6207922092
C   C327      1.0  0.77050  0.69682  0.66187  1.0000 0.6207922092
C   C328      1.0  0.22950  0.30318  0.33813  1.0000 0.6207922092
C   C329      1.0  0.83100  0.39537  0.57436  1.0000 0.0899711812
C   C330      1.0  0.16900  0.60463  0.42564  1.0000 0.0843352889
C   C331      1.0  0.16900  0.39537  0.92564  1.0000 0.0899711812
C   C332      1.0  0.83100  0.60463  0.07436  1.0000 0.0843352889
C   C333      1.0  0.33100  0.89537  0.57436  1.0000 0.0899711812
C   C334      1.0  0.66900  0.10463  0.42564  1.0000 0.0843352889
C   C335      1.0  0.66900  0.89537  0.92564  1.0000 0.0899711812
C   C336      1.0  0.33100  0.10463  0.07436  1.0000 0.0843352889
C   C337      1.0  0.87680  0.42612  0.55984  1.0000 -0.1493735847
C   C338      1.0  0.12320  0.57388  0.44016  1.0000 -0.1493735847
C   C339      1.0  0.12320  0.42612  0.94016  1.0000 -0.1493735847
C   C340      1.0  0.87680  0.57388  0.05984  1.0000 -0.1493735847
C   C341      1.0  0.37680  0.92612  0.55984  1.0000 -0.1493735847
C   C342      1.0  0.62320  0.07388  0.44016  1.0000 -0.1493735847
C   C343      1.0  0.62320  0.92612  0.94016  1.0000 -0.1493735847
C   C344      1.0  0.37680  0.07388  0.05984  1.0000 -0.1493735847
C   C345      1.0  0.87760  0.48340  0.56227  1.0000 -0.0998503387
C   C346      1.0  0.12240  0.51660  0.43773  1.0000 -0.0998503387
C   C347      1.0  0.12240  0.48340  0.93773  1.0000 -0.0998503387
C   C348      1.0  0.87760  0.51660  0.06227  1.0000 -0.0998503387
C   C349      1.0  0.37760  0.98340  0.56227  1.0000 -0.0998503387
C   C350      1.0  0.62240  0.01660  0.43773  1.0000 -0.0998503387
C   C351      1.0  0.62240  0.98340  0.93773  1.0000 -0.0998503387
C   C352      1.0  0.37760  0.01660  0.06227  1.0000 -0.0998503387
C   C353      1.0  0.83260  0.51130  0.57935  1.0000 -0.0234441234
C   C354      1.0  0.16740  0.48870  0.42065  1.0000 -0.0234441234
C   C355      1.0  0.16740  0.51130  0.92065  1.0000 -0.0234441234
C   C356      1.0  0.83260  0.48870  0.07935  1.0000 -0.0234441234
C   C357      1.0  0.33260  0.01130  0.57935  1.0000 -0.0234441234
C   C358      1.0  0.66740  0.98870  0.42065  1.0000 -0.0234441234
C   C359      1.0  0.66740  0.01130  0.92065  1.0000 -0.0234441234
C   C360      1.0  0.33260  0.98870  0.07935  1.0000 -0.0234441234
C   C361      1.0  0.78720  0.48084  0.59355  1.0000 -0.0998503387
C   C362      1.0  0.21280  0.51916  0.40645  1.0000 -0.0998503387
C   C363      1.0  0.21280  0.48084  0.90645  1.0000 -0.0998503387
C   C364      1.0  0.78720  0.51916  0.09355  1.0000 -0.0998503387
C   C365      1.0  0.28720  0.98084  0.59355  1.0000 -0.0998503387
C   C366      1.0  0.71280  0.01916  0.40645  1.0000 -0.0998503387
C   C367      1.0  0.71280  0.98084  0.90645  1.0000 -0.0998503387
C   C368      1.0  0.28720  0.01916  0.09355  1.0000 -0.0998503387
C   C369      1.0  0.78660  0.42312  0.59086  1.0000 -0.1493735847
C   C370      1.0  0.21340  0.57688  0.40914  1.0000 -0.1493735847
C   C371      1.0  0.21340  0.42312  0.90914  1.0000 -0.1493735847
C   C372      1.0  0.78660  0.57688  0.09086  1.0000 -0.1493735847
C   C373      1.0  0.28660  0.92312  0.59086  1.0000 -0.1493735847
C   C374      1.0  0.71340  0.07688  0.40914  1.0000 -0.1493735847
C   C375      1.0  0.71340  0.92312  0.90914  1.0000 -0.1493735847
C   C376      1.0  0.28660  0.07688  0.09086  1.0000 -0.1493735847
C   C377      1.0  0.83190  0.57350  0.58190  1.0000 0.5717828711
C   C378      1.0  0.16810  0.42650  0.41810  1.0000 0.5717828711
C   C379      1.0  0.16810  0.57350  0.91810  1.0000 0.5717828711
C   C380      1.0  0.83190  0.42650  0.08190  1.0000 0.5717828711
C   C381      1.0  0.33190  0.07350  0.58190  1.0000 0.5717828711
C   C382      1.0  0.66810  0.92650  0.41810  1.0000 0.5717828711
C   C383      1.0  0.66810  0.07350  0.91810  1.0000 0.5717828711
C   C384      1.0  0.33190  0.92650  0.08190  1.0000 0.5717828711
C   C385      1.0  0.00000  0.87330  0.25000  1.0000 -0.0624369607
C   C386      1.0  0.00000  0.12670  0.75000  1.0000 -0.0624369607
C   C387      1.0  0.50000  0.37330  0.25000  1.0000 -0.0624369607
C   C388      1.0  0.50000  0.62670  0.75000  1.0000 -0.0624369607
C   C389      1.0  0.00200  0.84578  0.21024  1.0000 0.1715455124
C   C390      1.0  0.99800  0.15422  0.78976  1.0000 0.1715455124
C   C391      1.0  0.99800  0.84578  0.28976  1.0000 0.1715455124
C   C392      1.0  0.00200  0.15422  0.71024  1.0000 0.1715455124
C   C393      1.0  0.50200  0.34578  0.21024  1.0000 0.1715455124
C   C394      1.0  0.49800  0.65422  0.78976  1.0000 0.1715455124
C   C395      1.0  0.49800  0.34578  0.28976  1.0000 0.1715455124
C   C396      1.0  0.50200  0.65422  0.71024  1.0000 0.1715455124
C   C397      1.0  0.00810  0.87259  0.17059  1.0000 -0.1797307397
C   C398      1.0  0.99190  0.12741  0.82941  1.0000 -0.1797307397
C   C399      1.0  0.99190  0.87259  0.32941  1.0000 -0.1797307397
C   C400      1.0  0.00810  0.12741  0.67059  1.0000 -0.1797307397
C   C401      1.0  0.50810  0.37259  0.17059  1.0000 -0.1797307397
C   C402      1.0  0.49190  0.62741  0.82941  1.0000 -0.1797307397
C   C403      1.0  0.49190  0.37259  0.32941  1.0000 -0.1797307397
C   C404      1.0  0.50810  0.62741  0.67059  1.0000 -0.1797307397
C   C405      1.0  0.01500  0.83232  0.14176  1.0000 -0.1747620664
C   C406      1.0  0.98500  0.16768  0.85824  1.0000 -0.1747620664
C   C407      1.0  0.98500  0.83232  0.35824  1.0000 -0.1747620664
C   C408      1.0  0.01500  0.16768  0.64176  1.0000 -0.1747620664
C   C409      1.0  0.51500  0.33232  0.14176  1.0000 -0.1747620664
C   C410      1.0  0.48500  0.66768  0.85824  1.0000 -0.1747620664
C   C411      1.0  0.48500  0.33232  0.35824  1.0000 -0.1747620664
C   C412      1.0  0.51500  0.66768  0.64176  1.0000 -0.1747620664
C   C413      1.0  0.01250  0.77982  0.16287  1.0000 0.1793214611
C   C414      1.0  0.98750  0.22018  0.83713  1.0000 0.1793214611
C   C415      1.0  0.98750  0.77982  0.33713  1.0000 0.1715455124
C   C416      1.0  0.01250  0.22018  0.66287  1.0000 0.1715455124
C   C417      1.0  0.51250  0.27982  0.16287  1.0000 0.1793214611
C   C418      1.0  0.48750  0.72018  0.83713  1.0000 0.1715455124
C   C419      1.0  0.48750  0.27982  0.33713  1.0000 0.1793214611
C   C420      1.0  0.51250  0.72018  0.66287  1.0000 0.1715455124
C   C421      1.0  0.02100  0.72818  0.14455  1.0000 -0.0497282146
C   C422      1.0  0.97900  0.27182  0.85545  1.0000 -0.0497282146
C   C423      1.0  0.97900  0.72818  0.35545  1.0000 -0.0497282146
C   C424      1.0  0.02100  0.27182  0.64455  1.0000 -0.0497282146
C   C425      1.0  0.52100  0.22818  0.14455  1.0000 -0.0497282146
C   C426      1.0  0.47900  0.77182  0.85545  1.0000 -0.0497282146
C   C427      1.0  0.47900  0.22818  0.35545  1.0000 -0.0497282146
C   C428      1.0  0.52100  0.77182  0.64455  1.0000 -0.0497282146
C   C429      1.0  0.01650  0.67601  0.16418  1.0000 0.1793214611
C   C430      1.0  0.98350  0.32399  0.83582  1.0000 0.1793214611
C   C431      1.0  0.98350  0.67601  0.33582  1.0000 0.1793214611
C   C432      1.0  0.01650  0.32399  0.66418  1.0000 0.1793214611
C   C433      1.0  0.51650  0.17601  0.16418  1.0000 0.1793214611
C   C434      1.0  0.48350  0.82399  0.83582  1.0000 0.1793214611
C   C435      1.0  0.48350  0.17601  0.33582  1.0000 0.1793214611
C   C436      1.0  0.51650  0.82399  0.66418  1.0000 0.1793214611
C   C437      1.0  0.01950  0.62308  0.14278  1.0000 -0.1747620664
C   C438      1.0  0.98050  0.37692  0.85722  1.0000 -0.1747620664
C   C439      1.0  0.98050  0.62308  0.35722  1.0000 -0.1747620664
C   C440      1.0  0.01950  0.37692  0.64278  1.0000 -0.1747620664
C   C441      1.0  0.51950  0.12308  0.14278  1.0000 -0.1747620664
C   C442      1.0  0.48050  0.87692  0.85722  1.0000 -0.1747620664
C   C443      1.0  0.48050  0.12308  0.35722  1.0000 -0.1747620664
C   C444      1.0  0.51950  0.87692  0.64278  1.0000 -0.1747620664
C   C445      1.0  0.01260  0.58314  0.17208  1.0000 -0.188536942
C   C446      1.0  0.98740  0.41686  0.82792  1.0000 -0.188536942
C   C447      1.0  0.98740  0.58314  0.32792  1.0000 -0.188536942
C   C448      1.0  0.01260  0.41686  0.67208  1.0000 -0.188536942
C   C449      1.0  0.51260  0.08314  0.17208  1.0000 -0.188536942
C   C450      1.0  0.48740  0.91686  0.82792  1.0000 -0.188536942
C   C451      1.0  0.48740  0.08314  0.32792  1.0000 -0.188536942
C   C452      1.0  0.51260  0.91686  0.67208  1.0000 -0.188536942
C   C453      1.0  0.00610  0.60993  0.21147  1.0000 0.1793214611
C   C454      1.0  0.99390  0.39007  0.78853  1.0000 0.1793214611
C   C455      1.0  0.99390  0.60993  0.28853  1.0000 0.1793214611
C   C456      1.0  0.00610  0.39007  0.71147  1.0000 0.1793214611
C   C457      1.0  0.50610  0.10993  0.21147  1.0000 0.1793214611
C   C458      1.0  0.49390  0.89007  0.78853  1.0000 0.1793214611
C   C459      1.0  0.49390  0.10993  0.28853  1.0000 0.1793214611
C   C460      1.0  0.50610  0.89007  0.71147  1.0000 0.1793214611
C   C461      1.0  0.00000  0.58340  0.25000  1.0000 -0.0704676891
C   C462      1.0  0.00000  0.41660  0.75000  1.0000 -0.0704676891
C   C463      1.0  0.50000  0.08340  0.25000  1.0000 -0.0704676891
C   C464      1.0  0.50000  0.91660  0.75000  1.0000 -0.0704676891
C   C465      1.0  0.00000  0.93500  0.25000  1.0000 0.0899711812
C   C466      1.0  0.00000  0.06500  0.75000  1.0000 0.0899711812
C   C467      1.0  0.50000  0.43500  0.25000  1.0000 0.0899711812
C   C468      1.0  0.50000  0.56500  0.75000  1.0000 0.0899711812
C   C469      1.0  0.94970  0.96544  0.22201  1.0000 -0.1493735847
C   C470      1.0  0.05030  0.03456  0.77799  1.0000 -0.1493735847
C   C471      1.0  0.05030  0.96544  0.27799  1.0000 -0.1493735847
C   C472      1.0  0.94970  0.03456  0.72201  1.0000 -0.1493735847
C   C473      1.0  0.44970  0.46544  0.22201  1.0000 -0.1493735847
C   C474      1.0  0.55030  0.53456  0.77799  1.0000 -0.1493735847
C   C475      1.0  0.55030  0.46544  0.27799  1.0000 -0.1493735847
C   C476      1.0  0.44970  0.53456  0.72201  1.0000 -0.1493735847
C   C477      1.0  0.95000  0.02291  0.22198  1.0000 -0.0998503387
C   C478      1.0  0.05000  0.97709  0.77802  1.0000 -0.0998503387
C   C479      1.0  0.05000  0.02291  0.27802  1.0000 -0.0998503387
C   C480      1.0  0.95000  0.97709  0.72198  1.0000 -0.0998503387
C   C481      1.0  0.45000  0.52291  0.22198  1.0000 -0.0998503387
C   C482      1.0  0.55000  0.47709  0.77802  1.0000 -0.0998503387
C   C483      1.0  0.55000  0.52291  0.27802  1.0000 -0.0998503387
C   C484      1.0  0.45000  0.47709  0.72198  1.0000 -0.0998503387
C   C485      1.0  0.00000  0.05220  0.25000  1.0000 -0.030712192
C   C486      1.0  0.00000  0.94780  0.75000  1.0000 -0.030712192
C   C487      1.0  0.50000  0.55220  0.25000  1.0000 -0.030712192
C   C488      1.0  0.50000  0.44780  0.75000  1.0000 -0.030712192
C   C489      1.0  0.00000  0.11530  0.25000  1.0000 0.6638718089
C   C490      1.0  0.00000  0.88470  0.75000  1.0000 0.6638718089
C   C491      1.0  0.50000  0.61530  0.25000  1.0000 0.6638718089
C   C492      1.0  0.50000  0.38470  0.75000  1.0000 0.6638718089
C   C493      1.0  0.03660  0.72670  0.10056  1.0000 0.0721665015
C   C494      1.0  0.96340  0.27330  0.89944  1.0000 0.0721665015
C   C495      1.0  0.96340  0.72670  0.39944  1.0000 0.0721665015
C   C496      1.0  0.03660  0.27330  0.60056  1.0000 0.0721665015
C   C497      1.0  0.53660  0.22670  0.10056  1.0000 0.0721665015
C   C498      1.0  0.46340  0.77330  0.89944  1.0000 0.0721665015
C   C499      1.0  0.46340  0.22670  0.39944  1.0000 0.0721665015
C   C500      1.0  0.53660  0.77330  0.60056  1.0000 0.0721665015
C   C501      1.0  0.09880  0.72360  0.09793  1.0000 -0.1373145739
C   C502      1.0  0.90120  0.27640  0.90207  1.0000 -0.1373145739
C   C503      1.0  0.90120  0.72360  0.40207  1.0000 -0.1373145739
C   C504      1.0  0.09880  0.27640  0.59793  1.0000 -0.1373145739
C   C505      1.0  0.59880  0.22360  0.09793  1.0000 -0.1373145739
C   C506      1.0  0.40120  0.77640  0.90207  1.0000 -0.1373145739
C   C507      1.0  0.40120  0.22360  0.40207  1.0000 -0.1373145739
C   C508      1.0  0.59880  0.77640  0.59793  1.0000 -0.1373145739
C   C509      1.0  0.11450  0.71890  0.05850  1.0000 -0.0767509295
C   C510      1.0  0.88550  0.28110  0.94150  1.0000 -0.0767509295
C   C511      1.0  0.88550  0.71890  0.44150  1.0000 -0.0767509295
C   C512      1.0  0.11450  0.28110  0.55850  1.0000 -0.0767509295
C   C513      1.0  0.61450  0.21890  0.05850  1.0000 -0.0767509295
C   C514      1.0  0.38550  0.78110  0.94150  1.0000 -0.0767509295
C   C515      1.0  0.38550  0.21890  0.44150  1.0000 -0.0767509295
C   C516      1.0  0.61450  0.78110  0.55850  1.0000 -0.0767509295
C   C517      1.0  0.06600  0.71670  0.01915  1.0000 -0.0034134537
C   C518      1.0  0.93400  0.28330  0.98085  1.0000 -0.0034134537
C   C519      1.0  0.93400  0.71670  0.48085  1.0000 -0.0034134537
C   C520      1.0  0.06600  0.28330  0.51915  1.0000 -0.0034134537
C   C521      1.0  0.56600  0.21670  0.01915  1.0000 -0.0034134537
C   C522      1.0  0.43400  0.78330  0.98085  1.0000 -0.0034134537
C   C523      1.0  0.43400  0.21670  0.48085  1.0000 -0.0034134537
C   C524      1.0  0.56600  0.78330  0.51915  1.0000 -0.0034134537
C   C525      1.0  0.00440  0.71970  0.02129  1.0000 -0.1061778292
C   C526      1.0  0.99560  0.28030  0.97871  1.0000 -0.1061778292
C   C527      1.0  0.99560  0.71970  0.47871  1.0000 -0.1061778292
C   C528      1.0  0.00440  0.28030  0.52129  1.0000 -0.1061778292
C   C529      1.0  0.50440  0.21970  0.02129  1.0000 -0.1061778292
C   C530      1.0  0.49560  0.78030  0.97871  1.0000 -0.1061778292
C   C531      1.0  0.49560  0.21970  0.47871  1.0000 -0.1061778292
C   C532      1.0  0.50440  0.78030  0.52129  1.0000 -0.1061778292
C   C533      1.0  0.99020  0.72570  0.06140  1.0000 -0.1493735847
C   C534      1.0  0.00980  0.27430  0.93860  1.0000 -0.1493735847
C   C535      1.0  0.00980  0.72570  0.43860  1.0000 -0.1493735847
C   C536      1.0  0.99020  0.27430  0.56140  1.0000 -0.1493735847
C   C537      1.0  0.49020  0.22570  0.06140  1.0000 -0.1493735847
C   C538      1.0  0.50980  0.77430  0.93860  1.0000 -0.1493735847
C   C539      1.0  0.50980  0.22570  0.43860  1.0000 -0.1493735847
C   C540      1.0  0.49020  0.77430  0.56140  1.0000 -0.1493735847
C   C541      1.0  0.07960  0.71030  0.97290  1.0000 0.577072679
C   C542      1.0  0.92040  0.28970  0.02710  1.0000 0.577072679
C   C543      1.0  0.92040  0.71030  0.52710  1.0000 0.577072679
C   C544      1.0  0.07960  0.28970  0.47290  1.0000 0.577072679
C   C545      1.0  0.57960  0.21030  0.97290  1.0000 0.577072679
C   C546      1.0  0.42040  0.78970  0.02710  1.0000 0.577072679
C   C547      1.0  0.42040  0.21030  0.52710  1.0000 0.577072679
C   C548      1.0  0.57960  0.78970  0.47290  1.0000 0.577072679
C   C549      1.0  0.00000  0.52110  0.25000  1.0000 0.0843352889
C   C550      1.0  0.00000  0.47890  0.75000  1.0000 0.0843352889
C   C551      1.0  0.50000  0.02110  0.25000  1.0000 0.0843352889
C   C552      1.0  0.50000  0.97890  0.75000  1.0000 0.0843352889
C   C553      1.0  0.94720  0.49174  0.22455  1.0000 -0.1593067358
C   C554      1.0  0.05280  0.50826  0.77545  1.0000 -0.1593067358
C   C555      1.0  0.05280  0.49174  0.27545  1.0000 -0.1593067358
C   C556      1.0  0.94720  0.50826  0.72455  1.0000 -0.1593067358
C   C557      1.0  0.44720  0.99174  0.22455  1.0000 -0.1593067358
C   C558      1.0  0.55280  0.00826  0.77545  1.0000 -0.1593067358
C   C559      1.0  0.55280  0.99174  0.27545  1.0000 -0.1593067358
C   C560      1.0  0.44720  0.00826  0.72455  1.0000 -0.1593067358
C   C561      1.0  0.94720  0.43344  0.22463  1.0000 -0.0882299242
C   C562      1.0  0.05280  0.56656  0.77537  1.0000 -0.0882299242
C   C563      1.0  0.05280  0.43344  0.27537  1.0000 -0.0882299242
C   C564      1.0  0.94720  0.56656  0.72463  1.0000 -0.0882299242
C   C565      1.0  0.44720  0.93344  0.22463  1.0000 -0.0882299242
C   C566      1.0  0.55280  0.06656  0.77537  1.0000 -0.0882299242
C   C567      1.0  0.55280  0.93344  0.27537  1.0000 -0.0882299242
C   C568      1.0  0.44720  0.06656  0.72463  1.0000 -0.0882299242
C   C569      1.0  0.00000  0.40420  0.25000  1.0000 -0.0497282146
C   C570      1.0  0.00000  0.59580  0.75000  1.0000 -0.0497282146
C   C571      1.0  0.50000  0.90420  0.25000  1.0000 -0.0497282146
C   C572      1.0  0.50000  0.09580  0.75000  1.0000 -0.0497282146
C   C573      1.0  0.00000  0.34210  0.25000  1.0000 0.6638718089
C   C574      1.0  0.00000  0.65790  0.75000  1.0000 0.6638718089
C   C575      1.0  0.50000  0.84210  0.25000  1.0000 0.6638718089
C   C576      1.0  0.50000  0.15790  0.75000  1.0000 0.6638718089
N   N1        1.0  0.83239  0.25076  0.52513  1.0000 -0.3674489518
N   N2        1.0  0.16761  0.74924  0.47487  1.0000 -0.3674489518
N   N3        1.0  0.16761  0.25076  0.97487  1.0000 -0.3674489518
N   N4        1.0  0.83239  0.74924  0.02513  1.0000 -0.3674489518
N   N5        1.0  0.33239  0.75076  0.52513  1.0000 -0.3674489518
N   N6        1.0  0.66761  0.24924  0.47487  1.0000 -0.3674489518
N   N7        1.0  0.66761  0.75076  0.97487  1.0000 -0.3674489518
N   N8        1.0  0.33239  0.24924  0.02513  1.0000 -0.3674489518
N   N9        1.0  0.84687  0.13319  0.52627  1.0000 -0.3674489518
N   N10       1.0  0.15313  0.86681  0.47373  1.0000 -0.3674489518
N   N11       1.0  0.15313  0.13319  0.97373  1.0000 -0.3674489518
N   N12       1.0  0.84687  0.86681  0.02627  1.0000 -0.3674489518
N   N13       1.0  0.34687  0.63319  0.52627  1.0000 -0.3674489518
N   N14       1.0  0.65313  0.36681  0.47373  1.0000 -0.3674489518
N   N15       1.0  0.65313  0.63319  0.97373  1.0000 -0.3674489518
N   N16       1.0  0.34687  0.36681  0.02627  1.0000 -0.3674489518
N   N17       1.0  0.81866  0.13067  0.61138  1.0000 -0.3674489518
N   N18       1.0  0.18134  0.86933  0.38862  1.0000 -0.3674489518
N   N19       1.0  0.18134  0.13067  0.88862  1.0000 -0.3674489518
N   N20       1.0  0.81866  0.86933  0.11138  1.0000 -0.3674489518
N   N21       1.0  0.31866  0.63067  0.61138  1.0000 -0.3674489518
N   N22       1.0  0.68134  0.36933  0.38862  1.0000 -0.3674489518
N   N23       1.0  0.68134  0.63067  0.88862  1.0000 -0.3674489518
N   N24       1.0  0.31866  0.36933  0.11138  1.0000 -0.3674489518
N   N25       1.0  0.82911  0.24850  0.61722  1.0000 -0.3630994605
N   N26       1.0  0.17089  0.75150  0.38278  1.0000 -0.3630994605
N   N27       1.0  0.17089  0.24850  0.88278  1.0000 -0.3630994605
N   N28       1.0  0.82911  0.75150  0.11722  1.0000 -0.3630994605
N   N29       1.0  0.32911  0.74850  0.61722  1.0000 -0.3630994605
N   N30       1.0  0.67089  0.25150  0.38278  1.0000 -0.3630994605
N   N31       1.0  0.67089  0.74850  0.88278  1.0000 -0.3630994605
N   N32       1.0  0.32911  0.25150  0.11722  1.0000 -0.3630994605
N   N33       1.0  0.00355  0.78881  0.20461  1.0000 -0.377044146
N   N34       1.0  0.99645  0.21119  0.79539  1.0000 -0.377044146
N   N35       1.0  0.99645  0.78881  0.29539  1.0000 -0.377044146
N   N36       1.0  0.00355  0.21119  0.70461  1.0000 -0.377044146
N   N37       1.0  0.50355  0.28881  0.20461  1.0000 -0.377044146
N   N38       1.0  0.49645  0.71119  0.79539  1.0000 -0.377044146
N   N39       1.0  0.49645  0.28881  0.29539  1.0000 -0.377044146
N   N40       1.0  0.50355  0.71119  0.70461  1.0000 -0.377044146
N   N41       1.0  0.00862  0.66706  0.20602  1.0000 -0.3630994605
N   N42       1.0  0.99138  0.33294  0.79398  1.0000 -0.3630994605
N   N43       1.0  0.99138  0.66706  0.29398  1.0000 -0.3630994605
N   N44       1.0  0.00862  0.33294  0.70602  1.0000 -0.3630994605
N   N45       1.0  0.50862  0.16706  0.20602  1.0000 -0.3630994605
N   N46       1.0  0.49138  0.83294  0.79398  1.0000 -0.3630994605
N   N47       1.0  0.49138  0.16706  0.29398  1.0000 -0.3630994605
N   N48       1.0  0.50862  0.83294  0.70602  1.0000 -0.3630994605
O   O1        1.0  0.87734  0.22344  0.26352  1.0000 -0.6472913632
O   O2        1.0  0.12266  0.77656  0.73648  1.0000 -0.6472913632
O   O3        1.0  0.12266  0.22344  0.23648  1.0000 -0.6472913632
O   O4        1.0  0.87734  0.77656  0.76352  1.0000 -0.6472913632
O   O5        1.0  0.37734  0.72344  0.26352  1.0000 -0.6472913632
O   O6        1.0  0.62266  0.27656  0.73648  1.0000 -0.6472913632
O   O7        1.0  0.62266  0.72344  0.23648  1.0000 -0.6472913632
O   O8        1.0  0.37734  0.27656  0.76352  1.0000 -0.6472913632
O   O9        1.0  0.98061  0.22695  0.30058  1.0000 -0.7480053315
O   O10       1.0  0.01939  0.77305  0.69942  1.0000 -0.7480053315
O   O11       1.0  0.01939  0.22695  0.19942  1.0000 -0.7480053315
O   O12       1.0  0.98061  0.77305  0.80058  1.0000 -0.7480053315
O   O13       1.0  0.48061  0.72695  0.30058  1.0000 -0.7480053315
O   O14       1.0  0.51939  0.27305  0.69942  1.0000 -0.7480053315
O   O15       1.0  0.51939  0.72695  0.19942  1.0000 -0.7480053315
O   O16       1.0  0.48061  0.27305  0.80058  1.0000 -0.7480053315
O   O17       1.0  0.78593  0.78516  0.57285  1.0000 -0.5900816592
O   O18       1.0  0.21407  0.21484  0.42715  1.0000 -0.5900816592
O   O19       1.0  0.21407  0.78516  0.92715  1.0000 -0.5900816592
O   O20       1.0  0.78593  0.21484  0.07285  1.0000 -0.5900816592
O   O21       1.0  0.28593  0.28516  0.57285  1.0000 -0.5900816592
O   O22       1.0  0.71407  0.71484  0.42715  1.0000 -0.5900816592
O   O23       1.0  0.71407  0.28516  0.92715  1.0000 -0.5900816592
O   O24       1.0  0.28593  0.71484  0.07285  1.0000 -0.5900816592
O   O25       1.0  0.88297  0.78853  0.61986  1.0000 -0.7723087604
O   O26       1.0  0.11703  0.21147  0.38014  1.0000 -0.7723087604
O   O27       1.0  0.11703  0.78853  0.88014  1.0000 -0.7723087604
O   O28       1.0  0.88297  0.21147  0.11986  1.0000 -0.7723087604
O   O29       1.0  0.38297  0.28853  0.61986  1.0000 -0.7723087604
O   O30       1.0  0.61703  0.71147  0.38014  1.0000 -0.7723087604
O   O31       1.0  0.61703  0.28853  0.88014  1.0000 -0.7723087604
O   O32       1.0  0.38297  0.71147  0.11986  1.0000 -0.7723087604
O   O33       1.0  0.66933  0.20530  0.83369  1.0000 -0.7940236414
O   O34       1.0  0.33067  0.79470  0.16631  1.0000 -0.7940236414
O   O35       1.0  0.33067  0.20530  0.66631  1.0000 -0.7940236414
O   O36       1.0  0.66933  0.79470  0.33369  1.0000 -0.7940236414
O   O37       1.0  0.16933  0.70530  0.83369  1.0000 -0.7940236414
O   O38       1.0  0.83067  0.29470  0.16631  1.0000 -0.7940236414
O   O39       1.0  0.83067  0.70530  0.66631  1.0000 -0.7940236414
O   O40       1.0  0.16933  0.29470  0.33369  1.0000 -0.7940236414
O   O41       1.0  0.76844  0.19433  0.87614  1.0000 -0.5704624886
O   O42       1.0  0.23156  0.80567  0.12386  1.0000 -0.5704624886
O   O43       1.0  0.23156  0.19433  0.62386  1.0000 -0.5704624886
O   O44       1.0  0.76844  0.80567  0.37614  1.0000 -0.5704624886
O   O45       1.0  0.26844  0.69433  0.87614  1.0000 -0.5704624886
O   O46       1.0  0.73156  0.30567  0.12386  1.0000 -0.5704624886
O   O47       1.0  0.73156  0.69433  0.62386  1.0000 -0.5704624886
O   O48       1.0  0.26844  0.30567  0.37614  1.0000 -0.5704624886
O   O49       1.0  0.80670  0.59678  0.60965  1.0000 -0.6339940289
O   O50       1.0  0.19330  0.40322  0.39035  1.0000 -0.6339940289
O   O51       1.0  0.19330  0.59678  0.89035  1.0000 -0.6339940289
O   O52       1.0  0.80670  0.40322  0.10965  1.0000 -0.6339940289
O   O53       1.0  0.30670  0.09678  0.60965  1.0000 -0.6339940289
O   O54       1.0  0.69330  0.90322  0.39035  1.0000 -0.6339940289
O   O55       1.0  0.69330  0.09678  0.89035  1.0000 -0.6339940289
O   O56       1.0  0.30670  0.90322  0.10965  1.0000 -0.6339940289
O   O57       1.0  0.85550  0.60282  0.55580  1.0000 -0.6420450518
O   O58       1.0  0.14450  0.39718  0.44420  1.0000 -0.6420450518
O   O59       1.0  0.14450  0.60282  0.94420  1.0000 -0.6420450518
O   O60       1.0  0.85550  0.39718  0.05580  1.0000 -0.6420450518
O   O61       1.0  0.35550  0.10282  0.55580  1.0000 -0.6420450518
O   O62       1.0  0.64450  0.89718  0.44420  1.0000 -0.6420450518
O   O63       1.0  0.64450  0.10282  0.94420  1.0000 -0.6420450518
O   O64       1.0  0.35550  0.89718  0.05580  1.0000 -0.6420450518
O   O65       1.0  0.04841  0.13924  0.27498  1.0000 -0.6796480427
O   O66       1.0  0.95159  0.86076  0.72502  1.0000 -0.6796480427
O   O67       1.0  0.95159  0.13924  0.22502  1.0000 -0.6796480427
O   O68       1.0  0.04841  0.86076  0.77498  1.0000 -0.6796480427
O   O69       1.0  0.54841  0.63924  0.27498  1.0000 -0.6796480427
O   O70       1.0  0.45159  0.36076  0.72502  1.0000 -0.6796480427
O   O71       1.0  0.45159  0.63924  0.22502  1.0000 -0.6796480427
O   O72       1.0  0.54841  0.36076  0.77498  1.0000 -0.6796480427
O   O73       1.0  0.03340  0.69590  0.94100  1.0000 -0.5537042255
O   O74       1.0  0.96660  0.30410  0.05900  1.0000 -0.5537042255
O   O75       1.0  0.96660  0.69590  0.55900  1.0000 -0.5537042255
O   O76       1.0  0.03340  0.30410  0.44100  1.0000 -0.5537042255
O   O77       1.0  0.53340  0.19590  0.94100  1.0000 -0.5537042255
O   O78       1.0  0.46660  0.80410  0.05900  1.0000 -0.5537042255
O   O79       1.0  0.46660  0.19590  0.55900  1.0000 -0.5537042255
O   O80       1.0  0.53340  0.80410  0.44100  1.0000 -0.5537042255
O   O81       1.0  0.13290  0.71874  0.97045  1.0000 -0.5900816592
O   O82       1.0  0.86710  0.28126  0.02955  1.0000 -0.5900816592
O   O83       1.0  0.86710  0.71874  0.52955  1.0000 -0.5900816592
O   O84       1.0  0.13290  0.28126  0.47045  1.0000 -0.5900816592
O   O85       1.0  0.63290  0.21874  0.97045  1.0000 -0.5900816592
O   O86       1.0  0.36710  0.78126  0.02955  1.0000 -0.5900816592
O   O87       1.0  0.36710  0.21874  0.52955  1.0000 -0.5900816592
O   O88       1.0  0.63290  0.78126  0.47045  1.0000 -0.5900816592
O   O89       1.0  0.95009  0.31737  0.22745  1.0000 -0.6858791293
O   O90       1.0  0.04991  0.68263  0.77255  1.0000 -0.6858791293
O   O91       1.0  0.04991  0.31737  0.27255  1.0000 -0.6858791293
O   O92       1.0  0.95009  0.68263  0.72745  1.0000 -0.6796480427
O   O93       1.0  0.45009  0.81737  0.22745  1.0000 -0.6858791293
O   O94       1.0  0.54991  0.18263  0.77255  1.0000 -0.6858791293
O   O95       1.0  0.54991  0.81737  0.27255  1.0000 -0.6858791293
O   O96       1.0  0.45009  0.18263  0.72745  1.0000 -0.6858791293
