# DDEC6 charges by PACMAN v1.1 (https://github.com/mtap-research/PACMAN-charge/)
data_2007[Zn][rob]3[ASR]2
_chemical_formula_sum              "Zn4 H48 C60 N4 O20"
_cell_length_a       12.7428
_cell_length_b       12.7428
_cell_length_c       10.363
_cell_angle_alpha    86.7951
_cell_angle_beta     93.2049
_cell_angle_gamma    107.822

_symmetry_space_group_name_H-M    "P 1"
_symmetry_Int_Tables_number       1

loop_
  _symmetry_equiv_pos_as_xyz
  'x, y, z'

loop_
  _atom_site_type_symbol
  _atom_site_label
  _atom_site_symmetry_multiplicity
  _atom_site_fract_x
  _atom_site_fract_y
  _atom_site_fract_z
  _atom_site_occupancy
  _atom_site_charge
Zn  Zn1       1.0  0.42005  0.02185  0.89971  1.0000 0.8336438609
Zn  Zn2       1.0  0.02185  0.42005  0.60029  1.0000 0.8336438609
Zn  Zn3       1.0  0.57995  0.97815  0.10029  1.0000 0.8336438609
Zn  Zn4       1.0  0.97815  0.57995  0.39971  1.0000 0.8336438609
H   H1        1.0  0.61790  0.35230  0.77820  1.0000 0.1173334815
H   H2        1.0  0.35230  0.61790  0.72180  1.0000 0.1173334815
H   H3        1.0  0.38210  0.64770  0.22180  1.0000 0.1173334815
H   H4        1.0  0.64770  0.38210  0.27820  1.0000 0.1173334815
H   H5        1.0  0.74070  0.52410  0.73830  1.0000 0.1279782725
H   H6        1.0  0.52410  0.74070  0.76170  1.0000 0.1279782725
H   H7        1.0  0.25930  0.47590  0.26170  1.0000 0.1279782725
H   H8        1.0  0.47590  0.25930  0.23830  1.0000 0.1279782725
H   H9        1.0  0.90700  0.49280  0.07230  1.0000 0.140145499
H   H10       1.0  0.49280  0.90700  0.42770  1.0000 0.140145499
H   H11       1.0  0.09300  0.50720  0.92770  1.0000 0.140145499
H   H12       1.0  0.50720  0.09300  0.57230  1.0000 0.140145499
H   H13       1.0  0.78690  0.31830  0.10680  1.0000 0.1173334815
H   H14       1.0  0.31830  0.78690  0.39320  1.0000 0.1173334815
H   H15       1.0  0.21310  0.68170  0.89320  1.0000 0.1173334815
H   H16       1.0  0.68170  0.21310  0.60680  1.0000 0.1173334815
H   H17       1.0  0.84620  0.69360  0.74310  1.0000 0.113352915
H   H18       1.0  0.69360  0.84620  0.75690  1.0000 0.113352915
H   H19       1.0  0.15380  0.30640  0.25690  1.0000 0.113352915
H   H20       1.0  0.30640  0.15380  0.24310  1.0000 0.113352915
H   H21       1.0  0.97070  0.75710  0.77220  1.0000 0.1279782725
H   H22       1.0  0.75710  0.97070  0.72780  1.0000 0.1279782725
H   H23       1.0  0.02930  0.24290  0.22780  1.0000 0.1279782725
H   H24       1.0  0.24290  0.02930  0.27220  1.0000 0.1279782725
H   H25       1.0  0.33160  0.17980  0.73490  1.0000 0.113352915
H   H26       1.0  0.17980  0.33160  0.76510  1.0000 0.113352915
H   H27       1.0  0.66840  0.82020  0.26510  1.0000 0.113352915
H   H28       1.0  0.82020  0.66840  0.23490  1.0000 0.113352915
H   H29       1.0  0.19420  0.17560  0.58160  1.0000 0.140145499
H   H30       1.0  0.17560  0.19420  0.91840  1.0000 0.140145499
H   H31       1.0  0.80580  0.82440  0.41840  1.0000 0.140145499
H   H32       1.0  0.82440  0.80580  0.08160  1.0000 0.140145499
H   H33       1.0  0.13810  0.85210  0.56340  1.0000 0.1473600564
H   H34       1.0  0.85210  0.13810  0.93660  1.0000 0.1473600564
H   H35       1.0  0.86190  0.14790  0.43660  1.0000 0.1473600564
H   H36       1.0  0.14790  0.86190  0.06340  1.0000 0.1473600564
H   H37       1.0  0.27650  0.86370  0.71840  1.0000 0.113352915
H   H38       1.0  0.86370  0.27650  0.78160  1.0000 0.113352915
H   H39       1.0  0.72350  0.13630  0.28160  1.0000 0.113352915
H   H40       1.0  0.13630  0.72350  0.21840  1.0000 0.113352915
H   H41       1.0  0.06790  0.07330  0.40850  1.0000 0.113352915
H   H42       1.0  0.07330  0.06790  0.09150  1.0000 0.113352915
H   H43       1.0  0.93210  0.92670  0.59150  1.0000 0.113352915
H   H44       1.0  0.92670  0.93210  0.90850  1.0000 0.113352915
H   H45       1.0  0.04060  0.94440  0.40870  1.0000 0.1173334815
H   H46       1.0  0.94440  0.04060  0.09130  1.0000 0.1173334815
H   H47       1.0  0.95940  0.05560  0.59130  1.0000 0.1173334815
H   H48       1.0  0.05560  0.95940  0.90870  1.0000 0.1173334815
C   C1        1.0  0.61200  0.20320  0.96760  1.0000 0.5822819841
C   C2        1.0  0.20320  0.61200  0.53240  1.0000 0.5822819841
C   C3        1.0  0.38800  0.79680  0.03240  1.0000 0.5822819841
C   C4        1.0  0.79680  0.38800  0.46760  1.0000 0.5822819841
C   C5        1.0  0.68870  0.31590  0.94630  1.0000 -0.0691119658
C   C6        1.0  0.31590  0.68870  0.55370  1.0000 -0.0691119658
C   C7        1.0  0.31130  0.68410  0.05370  1.0000 -0.0691119658
C   C8        1.0  0.68410  0.31130  0.44630  1.0000 -0.0691119658
C   C9        1.0  0.67670  0.37990  0.83680  1.0000 -0.0840576219
C   C10       1.0  0.37990  0.67670  0.66320  1.0000 -0.0840576219
C   C11       1.0  0.32330  0.62010  0.16320  1.0000 -0.0840576219
C   C12       1.0  0.62010  0.32330  0.33680  1.0000 -0.0840576219
C   C13       1.0  0.74970  0.48310  0.81290  1.0000 -0.2209233768
C   C14       1.0  0.48310  0.74970  0.68710  1.0000 -0.2209233768
C   C15       1.0  0.25030  0.51690  0.18710  1.0000 -0.2209233768
C   C16       1.0  0.51690  0.25030  0.31290  1.0000 -0.2209233768
C   C17       1.0  0.83720  0.52560  0.90110  1.0000 0.256788261
C   C18       1.0  0.52560  0.83720  0.59890  1.0000 0.256788261
C   C19       1.0  0.16280  0.47440  0.09890  1.0000 0.256788261
C   C20       1.0  0.47440  0.16280  0.40110  1.0000 0.256788261
C   C21       1.0  0.84980  0.46420  0.01220  1.0000 -0.2209233768
C   C22       1.0  0.46420  0.84980  0.48780  1.0000 -0.2209233768
C   C23       1.0  0.15020  0.53580  0.98780  1.0000 -0.2209233768
C   C24       1.0  0.53580  0.15020  0.51220  1.0000 -0.2209233768
C   C25       1.0  0.77690  0.35990  0.03320  1.0000 -0.0920203554
C   C26       1.0  0.35990  0.77690  0.46680  1.0000 -0.0920203554
C   C27       1.0  0.22310  0.64010  0.96680  1.0000 -0.0920203554
C   C28       1.0  0.64010  0.22310  0.53320  1.0000 -0.0920203554
C   C29       1.0  0.91780  0.68420  0.76540  1.0000 -0.1767742413
C   C30       1.0  0.68420  0.91780  0.73460  1.0000 -0.1767742413
C   C31       1.0  0.08220  0.31580  0.23460  1.0000 -0.1767742413
C   C32       1.0  0.31580  0.08220  0.26540  1.0000 -0.1767742413
C   C33       1.0  0.95010  0.62590  0.65700  1.0000 0.5885955168
C   C34       1.0  0.62590  0.95010  0.84300  1.0000 0.5885955168
C   C35       1.0  0.04990  0.37410  0.34300  1.0000 0.5885955168
C   C36       1.0  0.37410  0.04990  0.15700  1.0000 0.5885955168
C   C37       1.0  0.29100  0.11240  0.70170  1.0000 0.0775485484
C   C38       1.0  0.11240  0.29100  0.79830  1.0000 0.0775485484
C   C39       1.0  0.70900  0.88760  0.29830  1.0000 0.0775485484
C   C40       1.0  0.88760  0.70900  0.20170  1.0000 0.0775485484
C   C41       1.0  0.20870  0.11050  0.60910  1.0000 -0.2009120996
C   C42       1.0  0.11050  0.20870  0.89090  1.0000 -0.2009120996
C   C43       1.0  0.79130  0.88950  0.39090  1.0000 -0.2009120996
C   C44       1.0  0.88950  0.79130  0.10910  1.0000 -0.2009120996
C   C45       1.0  0.14840  0.01280  0.55760  1.0000 0.1578115222
C   C46       1.0  0.01280  0.14840  0.94240  1.0000 0.1578115222
C   C47       1.0  0.85160  0.98720  0.44240  1.0000 0.1578115222
C   C48       1.0  0.98720  0.85160  0.05760  1.0000 0.1578115222
C   C49       1.0  0.17550  0.91970  0.59840  1.0000 -0.2009120996
C   C50       1.0  0.91970  0.17550  0.90160  1.0000 -0.2009120996
C   C51       1.0  0.82450  0.08030  0.40160  1.0000 -0.2009120996
C   C52       1.0  0.08030  0.82450  0.09840  1.0000 -0.2009120996
C   C53       1.0  0.25870  0.92730  0.69180  1.0000 0.0947683451
C   C54       1.0  0.92730  0.25870  0.80820  1.0000 0.0947683451
C   C55       1.0  0.74130  0.07270  0.30820  1.0000 0.0947683451
C   C56       1.0  0.07270  0.74130  0.19180  1.0000 0.0947683451
C   C57       1.0  0.05200  0.00660  0.46340  1.0000 -0.2412080245
C   C58       1.0  0.00660  0.05200  0.03660  1.0000 -0.2412080245
C   C59       1.0  0.94800  0.99340  0.53660  1.0000 -0.2412080245
C   C60       1.0  0.99340  0.94800  0.96340  1.0000 -0.2412080245
N   N1        1.0  0.31491  0.02169  0.74570  1.0000 -0.2209233768
N   N2        1.0  0.02169  0.31491  0.75430  1.0000 -0.2209233768
N   N3        1.0  0.68509  0.97831  0.25430  1.0000 -0.2209233768
N   N4        1.0  0.97831  0.68509  0.24570  1.0000 -0.2209233768
O   O1        1.0  0.52136  0.17736  0.90390  1.0000 -0.5383764433
O   O2        1.0  0.17736  0.52136  0.59610  1.0000 -0.5383764433
O   O3        1.0  0.47864  0.82264  0.09610  1.0000 -0.5383764433
O   O4        1.0  0.82264  0.47864  0.40390  1.0000 -0.5383764433
O   O5        1.0  0.64363  0.13967  0.04820  1.0000 -0.5604295435
O   O6        1.0  0.13967  0.64363  0.45180  1.0000 -0.5604295435
O   O7        1.0  0.35637  0.86033  0.95180  1.0000 -0.5604295435
O   O8        1.0  0.86033  0.35637  0.54820  1.0000 -0.5604295435
O   O9        1.0  0.91321  0.62717  0.88730  1.0000 -0.1666610989
O   O10       1.0  0.62717  0.91321  0.61270  1.0000 -0.1666610989
O   O11       1.0  0.08679  0.37283  0.11270  1.0000 -0.1666610989
O   O12       1.0  0.37283  0.08679  0.38730  1.0000 -0.1666610989
O   O13       1.0  0.94204  0.66716  0.54490  1.0000 -0.5604295435
O   O14       1.0  0.66716  0.94204  0.95510  1.0000 -0.5604295435
O   O15       1.0  0.05796  0.33284  0.45510  1.0000 -0.5604295435
O   O16       1.0  0.33284  0.05796  0.04490  1.0000 -0.5604295435
O   O17       1.0  0.98358  0.54570  0.68780  1.0000 -0.5267945754
O   O18       1.0  0.54570  0.98358  0.81220  1.0000 -0.5267945754
O   O19       1.0  0.01642  0.45430  0.31220  1.0000 -0.5267945754
O   O20       1.0  0.45430  0.01642  0.18780  1.0000 -0.5267945754
