# DDEC6 charges by PACMAN v1.1 (https://github.com/mtap-research/PACMAN-charge/)
data_2007[Co][nan]3[ASR]3
_chemical_formula_sum              "Co6 H12 C28 N4 O20"
_cell_length_a       11.1389
_cell_length_b       11.2652
_cell_length_c       11.4139
_cell_angle_alpha    76.38
_cell_angle_beta     66.369
_cell_angle_gamma    78.964

_symmetry_space_group_name_H-M    "P 1"
_symmetry_Int_Tables_number       1

loop_
  _symmetry_equiv_pos_as_xyz
  'x, y, z'

loop_
  _atom_site_type_symbol
  _atom_site_label
  _atom_site_symmetry_multiplicity
  _atom_site_fract_x
  _atom_site_fract_y
  _atom_site_fract_z
  _atom_site_occupancy
  _atom_site_charge
Co  Co1       1.0  0.52942  0.57098  0.71019  1.0000 1.1112615862
Co  Co2       1.0  0.47058  0.42902  0.28981  1.0000 1.1112615862
Co  Co3       1.0  0.39376  0.60917  0.50041  1.0000 0.8417035141
Co  Co4       1.0  0.60624  0.39083  0.49959  1.0000 0.8417035141
Co  Co5       1.0  0.50478  0.64104  0.99076  1.0000 1.1112615862
Co  Co6       1.0  0.49522  0.35896  0.00924  1.0000 1.1112615862
H   H1        1.0  0.95510  0.58290  0.86050  1.0000 0.151973004
H   H2        1.0  0.04490  0.41710  0.13950  1.0000 0.151973004
H   H3        1.0  0.92290  0.64140  0.50870  1.0000 0.138262263
H   H4        1.0  0.07710  0.35860  0.49130  1.0000 0.138262263
H   H5        1.0  0.14660  0.66110  0.41190  1.0000 0.1168113765
H   H6        1.0  0.85340  0.33890  0.58810  1.0000 0.1168113765
H   H7        1.0  0.67580  0.12990  0.41150  1.0000 0.1168113765
H   H8        1.0  0.32420  0.87010  0.58850  1.0000 0.1168113765
H   H9        1.0  0.63860  0.92710  0.50810  1.0000 0.138262263
H   H10       1.0  0.36140  0.07290  0.49190  1.0000 0.138262263
H   H11       1.0  0.47110  0.03510  0.85740  1.0000 0.151973004
H   H12       1.0  0.52890  0.96490  0.14260  1.0000 0.151973004
C   C1        1.0  0.21930  0.58590  0.77420  1.0000 0.5502180853
C   C2        1.0  0.78070  0.41410  0.22580  1.0000 0.5502180853
C   C3        1.0  0.12660  0.60530  0.70310  1.0000 0.1015355114
C   C4        1.0  0.87340  0.39470  0.29690  1.0000 0.1015355114
C   C5        1.0  0.99260  0.59770  0.76830  1.0000 -0.135401418
C   C6        1.0  0.00740  0.40230  0.23170  1.0000 -0.135401418
C   C7        1.0  0.91370  0.61230  0.69530  1.0000 0.0392173217
C   C8        1.0  0.08630  0.38770  0.30470  1.0000 0.0392173217
C   C9        1.0  0.97340  0.63330  0.56090  1.0000 -0.1591821699
C   C10       1.0  0.02660  0.36670  0.43910  1.0000 -0.1591821699
C   C11       1.0  0.10730  0.64230  0.50390  1.0000 0.1015355114
C   C12       1.0  0.89270  0.35770  0.49610  1.0000 0.1015355114
C   C13       1.0  0.76870  0.59930  0.76110  1.0000 0.5777695575
C   C14       1.0  0.23130  0.40070  0.23890  1.0000 0.5777695575
C   C15       1.0  0.63370  0.11020  0.50330  1.0000 0.1015355114
C   C16       1.0  0.36630  0.88980  0.49670  1.0000 0.1015355114
C   C17       1.0  0.61090  0.98920  0.56000  1.0000 -0.1591821699
C   C18       1.0  0.38910  0.01080  0.44000  1.0000 -0.1591821699
C   C19       1.0  0.54720  0.96040  0.69320  1.0000 0.0268123695
C   C20       1.0  0.45280  0.03960  0.30680  1.0000 0.0268123695
C   C21       1.0  0.51460  0.83010  0.75760  1.0000 0.5777695575
C   C22       1.0  0.48540  0.16990  0.24240  1.0000 0.5777695575
C   C23       1.0  0.51270  0.05280  0.76550  1.0000 -0.135401418
C   C24       1.0  0.48730  0.94720  0.23450  1.0000 -0.1344720325
C   C25       1.0  0.53960  0.17290  0.70190  1.0000 0.1110214242
C   C26       1.0  0.46040  0.82710  0.29810  1.0000 0.1110214242
C   C27       1.0  0.51050  0.27600  0.77360  1.0000 0.5598116317
C   C28       1.0  0.48950  0.72400  0.22640  1.0000 0.5598116317
N   N1        1.0  0.18410  0.62590  0.57250  1.0000 -0.2413212162
N   N2        1.0  0.81590  0.37410  0.42750  1.0000 -0.2457494638
N   N3        1.0  0.59870  0.19950  0.57260  1.0000 -0.2413212162
N   N4        1.0  0.40130  0.80050  0.42740  1.0000 -0.2413212162
O   O1        1.0  0.34050  0.59490  0.69880  1.0000 -0.5322353444
O   O2        1.0  0.65950  0.40510  0.30120  1.0000 -0.5322353444
O   O3        1.0  0.17850  0.56580  0.89250  1.0000 -0.398314794
O   O4        1.0  0.82150  0.43420  0.10750  1.0000 -0.398314794
O   O5        1.0  0.70700  0.63940  0.86520  1.0000 -0.4980225912
O   O6        1.0  0.29300  0.36060  0.13480  1.0000 -0.4980225912
O   O7        1.0  0.72320  0.54680  0.70410  1.0000 -0.5413707695
O   O8        1.0  0.27680  0.45320  0.29590  1.0000 -0.5413707695
O   O9        1.0  0.47100  0.80790  0.87880  1.0000 -0.5223597091
O   O10       1.0  0.52900  0.19210  0.12120  1.0000 -0.5223597091
O   O11       1.0  0.53680  0.75740  0.68250  1.0000 -0.5223597091
O   O12       1.0  0.46320  0.24260  0.31750  1.0000 -0.5223597091
O   O13       1.0  0.45750  0.25760  0.89490  1.0000 -0.4862192473
O   O14       1.0  0.54250  0.74240  0.10510  1.0000 -0.4862192473
O   O15       1.0  0.54550  0.37720  0.70140  1.0000 -0.5223597091
O   O16       1.0  0.45450  0.62280  0.29860  1.0000 -0.5223597091
O   O17       1.0  0.58170  0.57510  0.51170  1.0000 -0.6896695695
O   O18       1.0  0.41830  0.42490  0.48830  1.0000 -0.6896695695
O   O19       1.0  0.45060  0.52950  0.90530  1.0000 -0.8390759728
O   O20       1.0  0.54940  0.47050  0.09470  1.0000 -0.8390759728
