# DDEC6 charges by PACMAN v1.1 (https://github.com/mtap-research/PACMAN-charge/)
data_2007[Fe][the]3[ASR]2
_chemical_formula_sum              "Fe12 H120 C216 O54"
_cell_length_a       23.1463
_cell_length_b       23.1463
_cell_length_c       23.1463
_cell_angle_alpha    111.415
_cell_angle_beta     111.415
_cell_angle_gamma    111.415

_symmetry_space_group_name_H-M    "P 1"
_symmetry_Int_Tables_number       1

loop_
  _symmetry_equiv_pos_as_xyz
  'x, y, z'

loop_
  _atom_site_type_symbol
  _atom_site_label
  _atom_site_symmetry_multiplicity
  _atom_site_fract_x
  _atom_site_fract_y
  _atom_site_fract_z
  _atom_site_occupancy
  _atom_site_charge
Fe  Fe1       1.0  0.08987  0.96381  0.59775  1.0000 1.2989756491
Fe  Fe2       1.0  0.96381  0.59775  0.08987  1.0000 1.2939427124
Fe  Fe3       1.0  0.59775  0.08987  0.96381  1.0000 1.2939427124
Fe  Fe4       1.0  0.91013  0.03619  0.40225  1.0000 1.2939427124
Fe  Fe5       1.0  0.03619  0.40225  0.91013  1.0000 1.2989756491
Fe  Fe6       1.0  0.40225  0.91013  0.03619  1.0000 1.2989756491
Fe  Fe7       1.0  0.03272  0.99420  0.45733  1.0000 1.2127158071
Fe  Fe8       1.0  0.99420  0.45733  0.03272  1.0000 1.2127158071
Fe  Fe9       1.0  0.45733  0.03272  0.99420  1.0000 1.2127158071
Fe  Fe10      1.0  0.96728  0.00580  0.54267  1.0000 1.2127158071
Fe  Fe11      1.0  0.00580  0.54267  0.96728  1.0000 1.2127158071
Fe  Fe12      1.0  0.54267  0.96728  0.00580  1.0000 1.2127158071
H   H1        1.0  0.39030  0.01960  0.41320  1.0000 0.1125318515
H   H2        1.0  0.01960  0.41320  0.39030  1.0000 0.1125318515
H   H3        1.0  0.41320  0.39030  0.01960  1.0000 0.1125318515
H   H4        1.0  0.60970  0.98040  0.58680  1.0000 0.1125318515
H   H5        1.0  0.98040  0.58680  0.60970  1.0000 0.1125318515
H   H6        1.0  0.58680  0.60970  0.98040  1.0000 0.1125318515
H   H7        1.0  0.61590  0.12670  0.53620  1.0000 0.1201455355
H   H8        1.0  0.12670  0.53620  0.61590  1.0000 0.1201455355
H   H9        1.0  0.53620  0.61590  0.12670  1.0000 0.1201455355
H   H10       1.0  0.38410  0.87330  0.46380  1.0000 0.1201455355
H   H11       1.0  0.87330  0.46380  0.38410  1.0000 0.1201455355
H   H12       1.0  0.46380  0.38410  0.87330  1.0000 0.1201455355
H   H13       1.0  0.50770  0.11640  0.63760  1.0000 0.1201455355
H   H14       1.0  0.11640  0.63760  0.50770  1.0000 0.1201455355
H   H15       1.0  0.63760  0.50770  0.11640  1.0000 0.1201455355
H   H16       1.0  0.49230  0.88360  0.36240  1.0000 0.1201455355
H   H17       1.0  0.88360  0.36240  0.49230  1.0000 0.1201455355
H   H18       1.0  0.36240  0.49230  0.88360  1.0000 0.1201455355
H   H19       1.0  0.39410  0.02250  0.60180  1.0000 0.1291437244
H   H20       1.0  0.02250  0.60180  0.39410  1.0000 0.1291437244
H   H21       1.0  0.60180  0.39410  0.02250  1.0000 0.1291437244
H   H22       1.0  0.60590  0.97750  0.39820  1.0000 0.1291437244
H   H23       1.0  0.97750  0.39820  0.60590  1.0000 0.1291437244
H   H24       1.0  0.39820  0.60590  0.97750  1.0000 0.1291437244
H   H25       1.0  0.28650  0.99430  0.60140  1.0000 0.1291437244
H   H26       1.0  0.99430  0.60140  0.28650  1.0000 0.1291437244
H   H27       1.0  0.60140  0.28650  0.99430  1.0000 0.1291437244
H   H28       1.0  0.71350  0.00570  0.39860  1.0000 0.1291437244
H   H29       1.0  0.00570  0.39860  0.71350  1.0000 0.1291437244
H   H30       1.0  0.39860  0.71350  0.00570  1.0000 0.1291437244
H   H31       1.0  0.20460  0.01540  0.43360  1.0000 0.1291437244
H   H32       1.0  0.01540  0.43360  0.20460  1.0000 0.1291437244
H   H33       1.0  0.43360  0.20460  0.01540  1.0000 0.1291437244
H   H34       1.0  0.79540  0.98460  0.56640  1.0000 0.1291437244
H   H35       1.0  0.98460  0.56640  0.79540  1.0000 0.1291437244
H   H36       1.0  0.56640  0.79540  0.98460  1.0000 0.1291437244
H   H37       1.0  0.31360  0.05040  0.43780  1.0000 0.1201455355
H   H38       1.0  0.05040  0.43780  0.31360  1.0000 0.1201455355
H   H39       1.0  0.43780  0.31360  0.05040  1.0000 0.1201455355
H   H40       1.0  0.68640  0.94960  0.56220  1.0000 0.1201455355
H   H41       1.0  0.94960  0.56220  0.68640  1.0000 0.1201455355
H   H42       1.0  0.56220  0.68640  0.94960  1.0000 0.1201455355
H   H43       1.0  0.40350  0.95280  0.31800  1.0000 0.1125318515
H   H44       1.0  0.95280  0.31800  0.40350  1.0000 0.1125318515
H   H45       1.0  0.31800  0.40350  0.95280  1.0000 0.1125318515
H   H46       1.0  0.59650  0.04720  0.68200  1.0000 0.1125318515
H   H47       1.0  0.04720  0.68200  0.59650  1.0000 0.1125318515
H   H48       1.0  0.68200  0.59650  0.04720  1.0000 0.1125318515
H   H49       1.0  0.41110  0.92980  0.21610  1.0000 0.1201455355
H   H50       1.0  0.92980  0.21610  0.41110  1.0000 0.1201455355
H   H51       1.0  0.21610  0.41110  0.92980  1.0000 0.1201455355
H   H52       1.0  0.58890  0.07020  0.78390  1.0000 0.1201455355
H   H53       1.0  0.07020  0.78390  0.58890  1.0000 0.1201455355
H   H54       1.0  0.78390  0.58890  0.07020  1.0000 0.1201455355
H   H55       1.0  0.60820  0.13510  0.34770  1.0000 0.1201455355
H   H56       1.0  0.13510  0.34770  0.60820  1.0000 0.1201455355
H   H57       1.0  0.34770  0.60820  0.13510  1.0000 0.1201455355
H   H58       1.0  0.39180  0.86490  0.65230  1.0000 0.1201455355
H   H59       1.0  0.86490  0.65230  0.39180  1.0000 0.1201455355
H   H60       1.0  0.65230  0.39180  0.86490  1.0000 0.1201455355
H   H61       1.0  0.60210  0.15730  0.45070  1.0000 0.1201455355
H   H62       1.0  0.15730  0.45070  0.60210  1.0000 0.1201455355
H   H63       1.0  0.45070  0.60210  0.15730  1.0000 0.1201455355
H   H64       1.0  0.39790  0.84270  0.54930  1.0000 0.1201455355
H   H65       1.0  0.84270  0.54930  0.39790  1.0000 0.1201455355
H   H66       1.0  0.54930  0.39790  0.84270  1.0000 0.1201455355
H   H67       1.0  0.69410  0.12370  0.63050  1.0000 0.1125318515
H   H68       1.0  0.12370  0.63050  0.69410  1.0000 0.1125318515
H   H69       1.0  0.63050  0.69410  0.12370  1.0000 0.1125318515
H   H70       1.0  0.30590  0.87630  0.36950  1.0000 0.1125318515
H   H71       1.0  0.87630  0.36950  0.30590  1.0000 0.1125318515
H   H72       1.0  0.36950  0.30590  0.87630  1.0000 0.1125318515
H   H73       1.0  0.81400  0.19990  0.74070  1.0000 0.1201455355
H   H74       1.0  0.19990  0.74070  0.81400  1.0000 0.1201455355
H   H75       1.0  0.74070  0.81400  0.19990  1.0000 0.1201455355
H   H76       1.0  0.18600  0.80010  0.25930  1.0000 0.1201455355
H   H77       1.0  0.80010  0.25930  0.18600  1.0000 0.1201455355
H   H78       1.0  0.25930  0.18600  0.80010  1.0000 0.1201455355
H   H79       1.0  0.75130  0.31270  0.84990  1.0000 0.138569904
H   H80       1.0  0.31270  0.84990  0.75130  1.0000 0.138569904
H   H81       1.0  0.84990  0.75130  0.31270  1.0000 0.138569904
H   H82       1.0  0.24870  0.68730  0.15010  1.0000 0.138569904
H   H83       1.0  0.68730  0.15010  0.24870  1.0000 0.138569904
H   H84       1.0  0.15010  0.24870  0.68730  1.0000 0.138569904
H   H85       1.0  0.63030  0.23710  0.73990  1.0000 0.1291437244
H   H86       1.0  0.23710  0.73990  0.63030  1.0000 0.1291437244
H   H87       1.0  0.73990  0.63030  0.23710  1.0000 0.1291437244
H   H88       1.0  0.36970  0.76290  0.26010  1.0000 0.1291437244
H   H89       1.0  0.76290  0.26010  0.36970  1.0000 0.1291437244
H   H90       1.0  0.26010  0.36970  0.76290  1.0000 0.1291437244
H   H91       1.0  0.79840  0.89690  0.78820  1.0000 0.1125318515
H   H92       1.0  0.89690  0.78820  0.79840  1.0000 0.1125318515
H   H93       1.0  0.78820  0.79840  0.89690  1.0000 0.1125318515
H   H94       1.0  0.20160  0.10310  0.21180  1.0000 0.1125318515
H   H95       1.0  0.10310  0.21180  0.20160  1.0000 0.1125318515
H   H96       1.0  0.21180  0.20160  0.10310  1.0000 0.1125318515
H   H97       1.0  0.81760  0.90000  0.70680  1.0000 0.1201455355
H   H98       1.0  0.90000  0.70680  0.81760  1.0000 0.1201455355
H   H99       1.0  0.70680  0.81760  0.90000  1.0000 0.1201455355
H   H100      1.0  0.18240  0.10000  0.29320  1.0000 0.1201455355
H   H101      1.0  0.10000  0.29320  0.18240  1.0000 0.1201455355
H   H102      1.0  0.29320  0.18240  0.10000  1.0000 0.1201455355
H   H103      1.0  0.86940  0.94480  0.65370  1.0000 0.1291437244
H   H104      1.0  0.94480  0.65370  0.86940  1.0000 0.1291437244
H   H105      1.0  0.65370  0.86940  0.94480  1.0000 0.1291437244
H   H106      1.0  0.13060  0.05520  0.34630  1.0000 0.1291437244
H   H107      1.0  0.05520  0.34630  0.13060  1.0000 0.1291437244
H   H108      1.0  0.34630  0.13060  0.05520  1.0000 0.1291437244
H   H109      1.0  0.02110  0.90130  0.72640  1.0000 0.138569904
H   H110      1.0  0.90130  0.72640  0.02110  1.0000 0.138569904
H   H111      1.0  0.72640  0.02110  0.90130  1.0000 0.138569904
H   H112      1.0  0.97890  0.09870  0.27360  1.0000 0.138569904
H   H113      1.0  0.09870  0.27360  0.97890  1.0000 0.138569904
H   H114      1.0  0.27360  0.97890  0.09870  1.0000 0.138569904
H   H115      1.0  0.96420  0.85180  0.77670  1.0000 0.1201455355
H   H116      1.0  0.85180  0.77670  0.96420  1.0000 0.1201455355
H   H117      1.0  0.77670  0.96420  0.85180  1.0000 0.1201455355
H   H118      1.0  0.03580  0.14820  0.22330  1.0000 0.1201455355
H   H119      1.0  0.14820  0.22330  0.03580  1.0000 0.1201455355
H   H120      1.0  0.22330  0.03580  0.14820  1.0000 0.1201455355
C   C1        1.0  0.43821  0.06469  0.52600  1.0000 0.0801276667
C   C2        1.0  0.06469  0.52600  0.43821  1.0000 0.0857951785
C   C3        1.0  0.52600  0.43821  0.06469  1.0000 0.0857951785
C   C4        1.0  0.56179  0.93531  0.47400  1.0000 0.0857951785
C   C5        1.0  0.93531  0.47400  0.56179  1.0000 0.0857951785
C   C6        1.0  0.47400  0.56179  0.93531  1.0000 0.0857951785
C   C7        1.0  0.43627  0.04687  0.45966  1.0000 -0.1978873494
C   C8        1.0  0.04687  0.45966  0.43627  1.0000 -0.1978873494
C   C9        1.0  0.45966  0.43627  0.04687  1.0000 -0.1978873494
C   C10       1.0  0.56373  0.95313  0.54034  1.0000 -0.1978873494
C   C11       1.0  0.95313  0.54034  0.56373  1.0000 -0.1978873494
C   C12       1.0  0.54034  0.56373  0.95313  1.0000 -0.1978873494
C   C13       1.0  0.50395  0.07051  0.46434  1.0000 0.0857951785
C   C14       1.0  0.07051  0.46434  0.50395  1.0000 0.0857951785
C   C15       1.0  0.46434  0.50395  0.07051  1.0000 0.0857951785
C   C16       1.0  0.49605  0.92949  0.53566  1.0000 0.0857951785
C   C17       1.0  0.92949  0.53566  0.49605  1.0000 0.0857951785
C   C18       1.0  0.53566  0.49605  0.92949  1.0000 0.0857951785
C   C19       1.0  0.57123  0.11068  0.53329  1.0000 -0.1978873494
C   C20       1.0  0.11068  0.53329  0.57123  1.0000 -0.1978873494
C   C21       1.0  0.53329  0.57123  0.11068  1.0000 -0.1978873494
C   C22       1.0  0.42877  0.88932  0.46671  1.0000 -0.1978873494
C   C23       1.0  0.88932  0.46671  0.42877  1.0000 -0.1978873494
C   C24       1.0  0.46671  0.42877  0.88932  1.0000 -0.1978873494
C   C25       1.0  0.57434  0.12812  0.59914  1.0000 0.0801276667
C   C26       1.0  0.12812  0.59914  0.57434  1.0000 0.0801276667
C   C27       1.0  0.59914  0.57434  0.12812  1.0000 0.0857951785
C   C28       1.0  0.42566  0.87188  0.40086  1.0000 0.0801276667
C   C29       1.0  0.87188  0.40086  0.42566  1.0000 0.0801276667
C   C30       1.0  0.40086  0.42566  0.87188  1.0000 0.0801276667
C   C31       1.0  0.50638  0.10460  0.59402  1.0000 -0.1925797188
C   C32       1.0  0.10460  0.59402  0.50638  1.0000 -0.1925797188
C   C33       1.0  0.59402  0.50638  0.10460  1.0000 -0.1925797188
C   C34       1.0  0.49362  0.89540  0.40598  1.0000 -0.1925797188
C   C35       1.0  0.89540  0.40598  0.49362  1.0000 -0.1925797188
C   C36       1.0  0.40598  0.49362  0.89540  1.0000 -0.1925797188
C   C37       1.0  0.36650  0.04066  0.52124  1.0000 0.0801276667
C   C38       1.0  0.04066  0.52124  0.36650  1.0000 0.0801276667
C   C39       1.0  0.52124  0.36650  0.04066  1.0000 0.0801276667
C   C40       1.0  0.63350  0.95934  0.47876  1.0000 0.0708583658
C   C41       1.0  0.95934  0.47876  0.63350  1.0000 0.0708583658
C   C42       1.0  0.47876  0.63350  0.95934  1.0000 0.0801276667
C   C43       1.0  0.35679  0.02290  0.56851  1.0000 -0.1519475907
C   C44       1.0  0.02290  0.56851  0.35679  1.0000 -0.1519475907
C   C45       1.0  0.56851  0.35679  0.02290  1.0000 -0.1519475907
C   C46       1.0  0.64321  0.97710  0.43149  1.0000 -0.1519475907
C   C47       1.0  0.97710  0.43149  0.64321  1.0000 -0.1519475907
C   C48       1.0  0.43149  0.64321  0.97710  1.0000 -0.1519475907
C   C49       1.0  0.29144  0.00499  0.56777  1.0000 -0.0815481747
C   C50       1.0  0.00499  0.56777  0.29144  1.0000 -0.0815481747
C   C51       1.0  0.56777  0.29144  0.00499  1.0000 -0.0815481747
C   C52       1.0  0.70856  0.99501  0.43223  1.0000 -0.0815481747
C   C53       1.0  0.99501  0.43223  0.70856  1.0000 -0.0815481747
C   C54       1.0  0.43223  0.70856  0.99501  1.0000 -0.0815481747
C   C55       1.0  0.23486  0.00343  0.51761  1.0000 -0.0371779153
C   C56       1.0  0.00343  0.51761  0.23486  1.0000 -0.0371779153
C   C57       1.0  0.51761  0.23486  0.00343  1.0000 -0.0371779153
C   C58       1.0  0.76514  0.99657  0.48239  1.0000 -0.0371779153
C   C59       1.0  0.99657  0.48239  0.76514  1.0000 -0.0371779153
C   C60       1.0  0.48239  0.76514  0.99657  1.0000 -0.0371779153
C   C61       1.0  0.24358  0.01852  0.46920  1.0000 -0.0815481747
C   C62       1.0  0.01852  0.46920  0.24358  1.0000 -0.0815481747
C   C63       1.0  0.46920  0.24358  0.01852  1.0000 -0.0815481747
C   C64       1.0  0.75642  0.98148  0.53080  1.0000 -0.0815481747
C   C65       1.0  0.98148  0.53080  0.75642  1.0000 -0.0815481747
C   C66       1.0  0.53080  0.75642  0.98148  1.0000 -0.0815481747
C   C67       1.0  0.30876  0.03851  0.47073  1.0000 -0.1519475907
C   C68       1.0  0.03851  0.47073  0.30876  1.0000 -0.1519475907
C   C69       1.0  0.47073  0.30876  0.03851  1.0000 -0.1519475907
C   C70       1.0  0.69124  0.96149  0.52927  1.0000 -0.1519475907
C   C71       1.0  0.96149  0.52927  0.69124  1.0000 -0.1519475907
C   C72       1.0  0.52927  0.69124  0.96149  1.0000 -0.1519475907
C   C73       1.0  0.16760  0.98718  0.51952  1.0000 0.6113390125
C   C74       1.0  0.98718  0.51952  0.16760  1.0000 0.6113390125
C   C75       1.0  0.51952  0.16760  0.98718  1.0000 0.6113390125
C   C76       1.0  0.83240  0.01282  0.48048  1.0000 0.6113390125
C   C77       1.0  0.01282  0.48048  0.83240  1.0000 0.6113390125
C   C78       1.0  0.48048  0.83240  0.01282  1.0000 0.6113390125
C   C79       1.0  0.50352  0.05592  0.39536  1.0000 0.0708583658
C   C80       1.0  0.05592  0.39536  0.50352  1.0000 0.0708583658
C   C81       1.0  0.39536  0.50352  0.05592  1.0000 0.0708583658
C   C82       1.0  0.49648  0.94408  0.60464  1.0000 0.0708583658
C   C83       1.0  0.94408  0.60464  0.49648  1.0000 0.0708583658
C   C84       1.0  0.60464  0.49648  0.94408  1.0000 0.0708583658
C   C85       1.0  0.44512  0.98904  0.32444  1.0000 -0.1596317657
C   C86       1.0  0.98904  0.32444  0.44512  1.0000 -0.1596317657
C   C87       1.0  0.32444  0.44512  0.98904  1.0000 -0.1596317657
C   C88       1.0  0.55488  0.01096  0.67556  1.0000 -0.1596317657
C   C89       1.0  0.01096  0.67556  0.55488  1.0000 -0.1596317657
C   C90       1.0  0.67556  0.55488  0.01096  1.0000 -0.1596317657
C   C91       1.0  0.44891  0.97619  0.26300  1.0000 -0.0907990948
C   C92       1.0  0.97619  0.26300  0.44891  1.0000 -0.0907990948
C   C93       1.0  0.26300  0.44891  0.97619  1.0000 -0.0907990948
C   C94       1.0  0.55109  0.02381  0.73700  1.0000 -0.0907990948
C   C95       1.0  0.02381  0.73700  0.55109  1.0000 -0.0907990948
C   C96       1.0  0.73700  0.55109  0.02381  1.0000 -0.0907990948
C   C97       1.0  0.50812  0.03136  0.27012  1.0000 -0.0191157264
C   C98       1.0  0.03136  0.27012  0.50812  1.0000 -0.0191157264
C   C99       1.0  0.27012  0.50812  0.03136  1.0000 -0.0191157264
C   C100      1.0  0.49188  0.96864  0.72988  1.0000 -0.0191157264
C   C101      1.0  0.96864  0.72988  0.49188  1.0000 -0.0191157264
C   C102      1.0  0.72988  0.49188  0.96864  1.0000 -0.0191157264
C   C103      1.0  0.56695  0.09878  0.34157  1.0000 -0.0907990948
C   C104      1.0  0.09878  0.34157  0.56695  1.0000 -0.0907990948
C   C105      1.0  0.34157  0.56695  0.09878  1.0000 -0.0907990948
C   C106      1.0  0.43305  0.90122  0.65843  1.0000 -0.0907990948
C   C107      1.0  0.90122  0.65843  0.43305  1.0000 -0.0907990948
C   C108      1.0  0.65843  0.43305  0.90122  1.0000 -0.0907990948
C   C109      1.0  0.56376  0.11150  0.40344  1.0000 -0.1596317657
C   C110      1.0  0.11150  0.40344  0.56376  1.0000 -0.1596317657
C   C111      1.0  0.40344  0.56376  0.11150  1.0000 -0.1596317657
C   C112      1.0  0.43624  0.88850  0.59656  1.0000 -0.1596317657
C   C113      1.0  0.88850  0.59656  0.43624  1.0000 -0.1596317657
C   C114      1.0  0.59656  0.43624  0.88850  1.0000 -0.1596317657
C   C115      1.0  0.50699  0.01848  0.20103  1.0000 0.5757611817
C   C116      1.0  0.01848  0.20103  0.50699  1.0000 0.5757611817
C   C117      1.0  0.20103  0.50699  0.01848  1.0000 0.5757611817
C   C118      1.0  0.49301  0.98152  0.79897  1.0000 0.5757611817
C   C119      1.0  0.98152  0.79897  0.49301  1.0000 0.5757611817
C   C120      1.0  0.79897  0.49301  0.98152  1.0000 0.5757611817
C   C121      1.0  0.64907  0.17377  0.67286  1.0000 0.0708583658
C   C122      1.0  0.17377  0.67286  0.64907  1.0000 0.0708583658
C   C123      1.0  0.67286  0.64907  0.17377  1.0000 0.0708583658
C   C124      1.0  0.35093  0.82623  0.32714  1.0000 0.0708583658
C   C125      1.0  0.82623  0.32714  0.35093  1.0000 0.0708583658
C   C126      1.0  0.32714  0.35093  0.82623  1.0000 0.0708583658
C   C127      1.0  0.70559  0.16236  0.67425  1.0000 -0.1596317657
C   C128      1.0  0.16236  0.67425  0.70559  1.0000 -0.1596317657
C   C129      1.0  0.67425  0.70559  0.16236  1.0000 -0.1596317657
C   C130      1.0  0.29441  0.83764  0.32575  1.0000 -0.1596317657
C   C131      1.0  0.83764  0.32575  0.29441  1.0000 -0.1596317657
C   C132      1.0  0.32575  0.29441  0.83764  1.0000 -0.1596317657
C   C133      1.0  0.77755  0.20824  0.74001  1.0000 -0.0815481747
C   C134      1.0  0.20824  0.74001  0.77755  1.0000 -0.0815481747
C   C135      1.0  0.74001  0.77755  0.20824  1.0000 -0.0815481747
C   C136      1.0  0.22245  0.79176  0.25999  1.0000 -0.0815481747
C   C137      1.0  0.79176  0.25999  0.22245  1.0000 -0.0815481747
C   C138      1.0  0.25999  0.22245  0.79176  1.0000 -0.0815481747
C   C139      1.0  0.79582  0.26717  0.80561  1.0000 -0.0293921051
C   C140      1.0  0.26717  0.80561  0.79582  1.0000 -0.0293921051
C   C141      1.0  0.80561  0.79582  0.26717  1.0000 -0.0293921051
C   C142      1.0  0.20418  0.73283  0.19439  1.0000 -0.0293921051
C   C143      1.0  0.73283  0.19439  0.20418  1.0000 -0.0293921051
C   C144      1.0  0.19439  0.20418  0.73283  1.0000 -0.0293921051
C   C145      1.0  0.74018  0.27573  0.80529  1.0000 -0.0680589576
C   C146      1.0  0.27573  0.80529  0.74018  1.0000 -0.0680589576
C   C147      1.0  0.80529  0.74018  0.27573  1.0000 -0.0680589576
C   C148      1.0  0.25982  0.72427  0.19471  1.0000 -0.0680589576
C   C149      1.0  0.72427  0.19471  0.25982  1.0000 -0.0680589576
C   C150      1.0  0.19471  0.25982  0.72427  1.0000 -0.0680589576
C   C151      1.0  0.66710  0.22980  0.73920  1.0000 -0.1519475907
C   C152      1.0  0.22980  0.73920  0.66710  1.0000 -0.1519475907
C   C153      1.0  0.73920  0.66710  0.22980  1.0000 -0.1519475907
C   C154      1.0  0.33290  0.77020  0.26080  1.0000 -0.1519475907
C   C155      1.0  0.77020  0.26080  0.33290  1.0000 -0.1519475907
C   C156      1.0  0.26080  0.33290  0.77020  1.0000 -0.1519475907
C   C157      1.0  0.87691  0.32201  0.87308  1.0000 0.6154370532
C   C158      1.0  0.32201  0.87308  0.87691  1.0000 0.6154370532
C   C159      1.0  0.87308  0.87691  0.32201  1.0000 0.6113390125
C   C160      1.0  0.12309  0.67799  0.12692  1.0000 0.6154370532
C   C161      1.0  0.67799  0.12692  0.12309  1.0000 0.6154370532
C   C162      1.0  0.12692  0.12309  0.67799  1.0000 0.6113390125
C   C163      1.0  0.81214  0.87088  0.80618  1.0000 -0.1978873494
C   C164      1.0  0.87088  0.80618  0.81214  1.0000 -0.1978873494
C   C165      1.0  0.80618  0.81214  0.87088  1.0000 -0.1978873494
C   C166      1.0  0.18786  0.12912  0.19382  1.0000 -0.1978873494
C   C167      1.0  0.12912  0.19382  0.18786  1.0000 -0.1978873494
C   C168      1.0  0.19382  0.18786  0.12912  1.0000 -0.1978873494
C   C169      1.0  0.85512  0.84883  0.78915  1.0000 0.0801276667
C   C170      1.0  0.84883  0.78915  0.85512  1.0000 0.0801276667
C   C171      1.0  0.78915  0.85512  0.84883  1.0000 0.0801276667
C   C172      1.0  0.14488  0.15117  0.21085  1.0000 0.0801276667
C   C173      1.0  0.15117  0.21085  0.14488  1.0000 0.0801276667
C   C174      1.0  0.21085  0.14488  0.15117  1.0000 0.0801276667
C   C175      1.0  0.88423  0.87048  0.74679  1.0000 0.0801276667
C   C176      1.0  0.87048  0.74679  0.88423  1.0000 0.0801276667
C   C177      1.0  0.74679  0.88423  0.87048  1.0000 0.0801276667
C   C178      1.0  0.11577  0.12952  0.25321  1.0000 0.0801276667
C   C179      1.0  0.12952  0.25321  0.11577  1.0000 0.0801276667
C   C180      1.0  0.25321  0.11577  0.12952  1.0000 0.0801276667
C   C181      1.0  0.85835  0.89865  0.71000  1.0000 -0.1519475907
C   C182      1.0  0.89865  0.71000  0.85835  1.0000 -0.1519475907
C   C183      1.0  0.71000  0.85835  0.89865  1.0000 -0.1519475907
C   C184      1.0  0.14165  0.10135  0.29000  1.0000 -0.1519475907
C   C185      1.0  0.10135  0.29000  0.14165  1.0000 -0.1519475907
C   C186      1.0  0.29000  0.14165  0.10135  1.0000 -0.1519475907
C   C187      1.0  0.88854  0.92481  0.67735  1.0000 -0.0907990948
C   C188      1.0  0.92481  0.67735  0.88854  1.0000 -0.0907990948
C   C189      1.0  0.67735  0.88854  0.92481  1.0000 -0.0907990948
C   C190      1.0  0.11146  0.07519  0.32265  1.0000 -0.0907990948
C   C191      1.0  0.07519  0.32265  0.11146  1.0000 -0.0907990948
C   C192      1.0  0.32265  0.11146  0.07519  1.0000 -0.0907990948
C   C193      1.0  0.94738  0.92206  0.67916  1.0000 -0.0293921051
C   C194      1.0  0.92206  0.67916  0.94738  1.0000 -0.0293921051
C   C195      1.0  0.67916  0.94738  0.92206  1.0000 -0.0293921051
C   C196      1.0  0.05262  0.07794  0.32084  1.0000 -0.0293921051
C   C197      1.0  0.07794  0.32084  0.05262  1.0000 -0.0293921051
C   C198      1.0  0.32084  0.05262  0.07794  1.0000 -0.0293921051
C   C199      1.0  0.97791  0.89864  0.71975  1.0000 -0.0815481747
C   C200      1.0  0.89864  0.71975  0.97791  1.0000 -0.0815481747
C   C201      1.0  0.71975  0.97791  0.89864  1.0000 -0.0815481747
C   C202      1.0  0.02209  0.10136  0.28025  1.0000 -0.0815481747
C   C203      1.0  0.10136  0.28025  0.02209  1.0000 -0.0815481747
C   C204      1.0  0.28025  0.02209  0.10136  1.0000 -0.0815481747
C   C205      1.0  0.94464  0.87056  0.75170  1.0000 -0.1596317657
C   C206      1.0  0.87056  0.75170  0.94464  1.0000 -0.1596317657
C   C207      1.0  0.75170  0.94464  0.87056  1.0000 -0.1596317657
C   C208      1.0  0.05536  0.12944  0.24830  1.0000 -0.1596317657
C   C209      1.0  0.12944  0.24830  0.05536  1.0000 -0.1596317657
C   C210      1.0  0.24830  0.05536  0.12944  1.0000 -0.1596317657
C   C211      1.0  0.98049  0.94917  0.64204  1.0000 0.6113390125
C   C212      1.0  0.94917  0.64204  0.98049  1.0000 0.6113390125
C   C213      1.0  0.64204  0.98049  0.94917  1.0000 0.6113390125
C   C214      1.0  0.01951  0.05083  0.35796  1.0000 0.6113390125
C   C215      1.0  0.05083  0.35796  0.01951  1.0000 0.6113390125
C   C216      1.0  0.35796  0.01951  0.05083  1.0000 0.6113390125
O   O1        1.0  0.17083  0.99110  0.57645  1.0000 -0.5411470639
O   O2        1.0  0.99110  0.57645  0.17083  1.0000 -0.5411470639
O   O3        1.0  0.57645  0.17083  0.99110  1.0000 -0.5411470639
O   O4        1.0  0.82917  0.00890  0.42355  1.0000 -0.5411470639
O   O5        1.0  0.00890  0.42355  0.82917  1.0000 -0.5411470639
O   O6        1.0  0.42355  0.82917  0.00890  1.0000 -0.5411470639
O   O7        1.0  0.11053  0.97158  0.46316  1.0000 -0.5411470639
O   O8        1.0  0.97158  0.46316  0.11053  1.0000 -0.5411470639
O   O9        1.0  0.46316  0.11053  0.97158  1.0000 -0.5411470639
O   O10       1.0  0.88947  0.02842  0.53684  1.0000 -0.5411470639
O   O11       1.0  0.02842  0.53684  0.88947  1.0000 -0.5411470639
O   O12       1.0  0.53684  0.88947  0.02842  1.0000 -0.5411470639
O   O13       1.0  0.46398  0.95000  0.14350  1.0000 -0.5623738939
O   O14       1.0  0.95000  0.14350  0.46398  1.0000 -0.5623738939
O   O15       1.0  0.14350  0.46398  0.95000  1.0000 -0.5623738939
O   O16       1.0  0.53602  0.05000  0.85650  1.0000 -0.5623738939
O   O17       1.0  0.05000  0.85650  0.53602  1.0000 -0.5623738939
O   O18       1.0  0.85650  0.53602  0.05000  1.0000 -0.5623738939
O   O19       1.0  0.54460  0.07543  0.20328  1.0000 -0.5289251952
O   O20       1.0  0.07543  0.20328  0.54460  1.0000 -0.5246644988
O   O21       1.0  0.20328  0.54460  0.07543  1.0000 -0.5246644988
O   O22       1.0  0.45540  0.92457  0.79672  1.0000 -0.5289251952
O   O23       1.0  0.92457  0.79672  0.45540  1.0000 -0.5289251952
O   O24       1.0  0.79672  0.45540  0.92457  1.0000 -0.5289251952
O   O25       1.0  0.92530  0.32108  0.86180  1.0000 -0.5623738939
O   O26       1.0  0.32108  0.86180  0.92530  1.0000 -0.5623738939
O   O27       1.0  0.86180  0.92530  0.32108  1.0000 -0.5623738939
O   O28       1.0  0.07470  0.67892  0.13820  1.0000 -0.5623738939
O   O29       1.0  0.67892  0.13820  0.07470  1.0000 -0.5623738939
O   O30       1.0  0.13820  0.07470  0.67892  1.0000 -0.5623738939
O   O31       1.0  0.89111  0.36487  0.93821  1.0000 -0.5289251952
O   O32       1.0  0.36487  0.93821  0.89111  1.0000 -0.5289251952
O   O33       1.0  0.93821  0.89111  0.36487  1.0000 -0.5289251952
O   O34       1.0  0.10889  0.63513  0.06179  1.0000 -0.5289251952
O   O35       1.0  0.63513  0.06179  0.10889  1.0000 -0.5289251952
O   O36       1.0  0.06179  0.10889  0.63513  1.0000 -0.5289251952
O   O37       1.0  0.95878  0.98201  0.61666  1.0000 -0.5289251952
O   O38       1.0  0.98201  0.61666  0.95878  1.0000 -0.5289251952
O   O39       1.0  0.61666  0.95878  0.98201  1.0000 -0.5289251952
O   O40       1.0  0.04122  0.01799  0.38334  1.0000 -0.5289251952
O   O41       1.0  0.01799  0.38334  0.04122  1.0000 -0.5289251952
O   O42       1.0  0.38334  0.04122  0.01799  1.0000 -0.5289251952
O   O43       1.0  0.02448  0.93199  0.63488  1.0000 -0.5411470639
O   O44       1.0  0.93199  0.63488  0.02448  1.0000 -0.5411470639
O   O45       1.0  0.63488  0.02448  0.93199  1.0000 -0.5411470639
O   O46       1.0  0.97552  0.06801  0.36512  1.0000 -0.5411470639
O   O47       1.0  0.06801  0.36512  0.97552  1.0000 -0.5411470639
O   O48       1.0  0.36512  0.97552  0.06801  1.0000 -0.5411470639
O   O49       1.0  0.02694  0.96975  0.52734  1.0000 -0.8588785603
O   O50       1.0  0.96975  0.52734  0.02694  1.0000 -0.8588785603
O   O51       1.0  0.52734  0.02694  0.96975  1.0000 -0.8588785603
O   O52       1.0  0.97306  0.03025  0.47266  1.0000 -0.8588785603
O   O53       1.0  0.03025  0.47266  0.97306  1.0000 -0.8588785603
O   O54       1.0  0.47266  0.97306  0.03025  1.0000 -0.8588785603
