# DDEC6 charges by PACMAN v1.1 (https://github.com/mtap-research/PACMAN-charge/)
data_2008[Ni][ins]3[ASR]1
_chemical_formula_sum              "Ni4 H40 C40 N8 O16"
_cell_length_a       6.429
_cell_length_b       25.18
_cell_length_c       7.874
_cell_angle_alpha    90
_cell_angle_beta     90.101
_cell_angle_gamma    90

_symmetry_space_group_name_H-M    "P 1"
_symmetry_Int_Tables_number       1

loop_
  _symmetry_equiv_pos_as_xyz
  'x, y, z'

loop_
  _atom_site_type_symbol
  _atom_site_label
  _atom_site_symmetry_multiplicity
  _atom_site_fract_x
  _atom_site_fract_y
  _atom_site_fract_z
  _atom_site_occupancy
  _atom_site_charge
Ni  Ni1       1.0  0.88090  0.26470  0.81600  1.0000 0.7779648517
Ni  Ni2       1.0  0.11910  0.76470  0.18400  1.0000 0.7779648517
Ni  Ni3       1.0  0.38080  0.19450  0.31190  1.0000 0.7894424711
Ni  Ni4       1.0  0.61920  0.69450  0.68810  1.0000 0.7894424711
H   H1        1.0  0.78580  0.10670  0.71460  1.0000 0.1286946276
H   H2        1.0  0.21420  0.60670  0.28540  1.0000 0.1286946276
H   H3        1.0  0.57810  0.12030  0.81620  1.0000 0.1375089091
H   H4        1.0  0.42190  0.62030  0.18380  1.0000 0.1375089091
H   H5        1.0  0.89310  0.12660  0.97610  1.0000 0.0892151087
H   H6        1.0  0.10690  0.62660  0.02390  1.0000 0.0892151087
H   H7        1.0  0.11060  0.19220  0.92750  1.0000 0.2995428209
H   H8        1.0  0.88940  0.69220  0.07250  1.0000 0.2995428209
H   H9        1.0  0.05560  0.17830  0.74840  1.0000 0.2995428209
H   H10       1.0  0.94440  0.67830  0.25160  1.0000 0.2995428209
H   H11       1.0  0.30100  0.34680  0.45720  1.0000 0.1216685587
H   H12       1.0  0.69900  0.84680  0.54280  1.0000 0.1216685587
H   H13       1.0  0.08410  0.33600  0.36350  1.0000 0.1375089091
H   H14       1.0  0.91590  0.83600  0.63650  1.0000 0.1375089091
H   H15       1.0  0.39770  0.33540  0.17700  1.0000 0.084437481
H   H16       1.0  0.60230  0.83540  0.82300  1.0000 0.084437481
H   H17       1.0  0.63160  0.27210  0.26770  1.0000 0.3071015988
H   H18       1.0  0.36840  0.77210  0.73230  1.0000 0.3071015988
H   H19       1.0  0.52540  0.28090  0.43500  1.0000 0.2776110683
H   H20       1.0  0.47460  0.78090  0.56500  1.0000 0.2776110683
H   H21       1.0  0.92230  0.37600  0.66910  1.0000 0.1022006561
H   H22       1.0  0.07770  0.87600  0.33090  1.0000 0.1022006561
H   H23       1.0  0.71130  0.44580  0.58290  1.0000 0.1286946276
H   H24       1.0  0.28870  0.94580  0.41710  1.0000 0.1286946276
H   H25       1.0  0.25240  0.38350  0.87350  1.0000 0.1286946276
H   H26       1.0  0.74760  0.88350  0.12650  1.0000 0.1286946276
H   H27       1.0  0.44510  0.30640  0.88260  1.0000 0.1095127937
H   H28       1.0  0.55490  0.80640  0.11740  1.0000 0.1095127937
H   H29       1.0  0.40350  0.50150  0.64390  1.0000 0.1286946276
H   H30       1.0  0.59650  0.00150  0.35610  1.0000 0.1286946276
H   H31       1.0  0.03760  0.65380  0.60290  1.0000 0.1216685587
H   H32       1.0  0.96240  0.15380  0.39710  1.0000 0.1216685587
H   H33       1.0  0.25030  0.58050  0.63920  1.0000 0.1286946276
H   H34       1.0  0.74970  0.08050  0.36080  1.0000 0.1286946276
H   H35       1.0  0.77410  0.50760  0.88210  1.0000 0.1216685587
H   H36       1.0  0.22590  0.00760  0.11790  1.0000 0.1216685587
H   H37       1.0  0.59960  0.58740  0.87440  1.0000 0.1095127937
H   H38       1.0  0.40040  0.08740  0.12560  1.0000 0.1095127937
H   H39       1.0  0.12020  0.46300  0.87260  1.0000 0.1286946276
H   H40       1.0  0.87980  0.96300  0.12740  1.0000 0.1286946276
C   C1        1.0  0.64200  0.17590  0.62700  1.0000 0.6392873441
C   C2        1.0  0.35800  0.67590  0.37300  1.0000 0.6392873441
C   C3        1.0  0.70650  0.13590  0.76840  1.0000 -0.3857068505
C   C4        1.0  0.29350  0.63590  0.23160  1.0000 -0.3857068505
C   C5        1.0  0.83260  0.15710  0.91120  1.0000 0.0415672519
C   C6        1.0  0.16740  0.65710  0.08880  1.0000 0.0415672519
C   C7        1.0  0.69300  0.19010  0.03180  1.0000 0.5627172803
C   C8        1.0  0.30700  0.69010  0.96820  1.0000 0.5627172803
C   C9        1.0  0.17600  0.27180  0.51770  1.0000 0.6392873441
C   C10       1.0  0.82400  0.77180  0.48230  1.0000 0.6392873441
C   C11       1.0  0.21900  0.31970  0.39580  1.0000 -0.3617283787
C   C12       1.0  0.78100  0.81970  0.60420  1.0000 -0.3617283787
C   C13       1.0  0.33570  0.30360  0.23370  1.0000 0.0198777047
C   C14       1.0  0.66430  0.80360  0.76630  1.0000 0.0198777047
C   C15       1.0  0.16100  0.27920  0.12270  1.0000 0.5678125237
C   C16       1.0  0.83900  0.77920  0.87730  1.0000 0.5678125237
C   C17       1.0  0.77990  0.37620  0.70100  1.0000 0.0731152956
C   C18       1.0  0.22010  0.87620  0.29900  1.0000 0.0731152956
C   C19       1.0  0.65850  0.41970  0.65850  1.0000 -0.2249126072
C   C20       1.0  0.34150  0.91970  0.34150  1.0000 -0.2249126072
C   C21       1.0  0.45740  0.42540  0.72660  1.0000 0.154020666
C   C22       1.0  0.54260  0.92540  0.27340  1.0000 0.154020666
C   C23       1.0  0.38470  0.38210  0.82020  1.0000 -0.1955015894
C   C24       1.0  0.61530  0.88210  0.17980  1.0000 -0.1955015894
C   C25       1.0  0.50620  0.33730  0.83450  1.0000 0.0892151087
C   C26       1.0  0.49380  0.83730  0.16550  1.0000 0.0892151087
C   C27       1.0  0.34400  0.47500  0.71500  1.0000 -0.159161524
C   C28       1.0  0.65600  0.97500  0.28500  1.0000 -0.159161524
C   C29       1.0  0.98660  0.62420  0.66510  1.0000 0.0892151087
C   C30       1.0  0.01340  0.12420  0.33490  1.0000 0.0892151087
C   C31       1.0  0.11310  0.58000  0.68360  1.0000 -0.1955015894
C   C32       1.0  0.88690  0.08000  0.31640  1.0000 -0.1947441633
C   C33       1.0  0.03980  0.53440  0.76770  1.0000 0.154020666
C   C34       1.0  0.96020  0.03440  0.23230  1.0000 0.154020666
C   C35       1.0  0.83720  0.53770  0.83070  1.0000 -0.225550824
C   C36       1.0  0.16280  0.03770  0.16930  1.0000 -0.2249126072
C   C37       1.0  0.72960  0.58480  0.81780  1.0000 0.0731152956
C   C38       1.0  0.27040  0.08480  0.18220  1.0000 0.0731152956
C   C39       1.0  0.16900  0.48780  0.79100  1.0000 -0.1514309581
C   C40       1.0  0.83100  0.98780  0.20900  1.0000 -0.1514309581
N   N1        1.0  0.00420  0.19110  0.84930  1.0000 -0.5789322938
N   N2        1.0  0.99580  0.69110  0.15070  1.0000 -0.5789322938
N   N3        1.0  0.50700  0.27020  0.32400  1.0000 -0.5705376949
N   N4        1.0  0.49300  0.77020  0.67600  1.0000 -0.5705376949
N   N5        1.0  0.70350  0.33450  0.78550  1.0000 -0.2088226985
N   N6        1.0  0.29650  0.83450  0.21450  1.0000 -0.2088226985
N   N7        1.0  0.79570  0.62680  0.73140  1.0000 -0.2088226985
N   N8        1.0  0.20430  0.12680  0.26860  1.0000 -0.2088226985
O   O1        1.0  0.68110  0.22470  0.64490  1.0000 -0.5497339155
O   O2        1.0  0.31890  0.72470  0.35510  1.0000 -0.5497339155
O   O3        1.0  0.54500  0.15640  0.50530  1.0000 -0.5705376949
O   O4        1.0  0.45500  0.65640  0.49470  1.0000 -0.5705376949
O   O5        1.0  0.69840  0.23820  0.00680  1.0000 -0.4833042856
O   O6        1.0  0.30160  0.73820  0.99320  1.0000 -0.4833042856
O   O7        1.0  0.58150  0.16510  0.13270  1.0000 -0.5334359046
O   O8        1.0  0.41850  0.66510  0.86730  1.0000 -0.5334359046
O   O9        1.0  0.08280  0.29210  0.64050  1.0000 -0.5377169039
O   O10       1.0  0.91720  0.79210  0.35950  1.0000 -0.5377169039
O   O11       1.0  0.18100  0.22140  0.49950  1.0000 -0.5497339155
O   O12       1.0  0.81900  0.72140  0.50050  1.0000 -0.5497339155
O   O13       1.0  0.06460  0.30360  0.01340  1.0000 -0.5334359046
O   O14       1.0  0.93540  0.80360  0.98660  1.0000 -0.5334359046
O   O15       1.0  0.19300  0.22960  0.12530  1.0000 -0.5377169039
O   O16       1.0  0.80700  0.72960  0.87470  1.0000 -0.5377169039
