# DDEC6 charges by PACMAN v1.1 (https://github.com/mtap-research/PACMAN-charge/)
data_2008[La][nan]3[ASR]3
_chemical_formula_sum              "La8 H16 C44 N16 O44"
_cell_length_a       8.521
_cell_length_b       15.38
_cell_length_c       18.477
_cell_angle_alpha    90
_cell_angle_beta     90
_cell_angle_gamma    90

_symmetry_space_group_name_H-M    "P 1"
_symmetry_Int_Tables_number       1

loop_
  _symmetry_equiv_pos_as_xyz
  'x, y, z'

loop_
  _atom_site_type_symbol
  _atom_site_label
  _atom_site_symmetry_multiplicity
  _atom_site_fract_x
  _atom_site_fract_y
  _atom_site_fract_z
  _atom_site_occupancy
  _atom_site_charge
La  La1       1.0  0.34396  0.28446  0.61676  1.0000 1.8113988284
La  La2       1.0  0.15604  0.78446  0.38324  1.0000 1.8113988284
La  La3       1.0  0.65604  0.71554  0.11676  1.0000 1.8113988284
La  La4       1.0  0.84396  0.21554  0.88324  1.0000 1.8113988284
La  La5       1.0  0.65604  0.71554  0.38324  1.0000 1.8113988284
La  La6       1.0  0.84396  0.21554  0.61676  1.0000 1.8113988284
La  La7       1.0  0.34396  0.28446  0.88324  1.0000 1.8113988284
La  La8       1.0  0.15604  0.78446  0.11676  1.0000 1.8113988284
H   H1        1.0  0.52040  0.01900  0.41370  1.0000 0.1629488859
H   H2        1.0  0.97960  0.51900  0.58630  1.0000 0.1629488859
H   H3        1.0  0.47960  0.98100  0.91370  1.0000 0.1629488859
H   H4        1.0  0.02040  0.48100  0.08630  1.0000 0.1629488859
H   H5        1.0  0.47960  0.98100  0.58630  1.0000 0.1629488859
H   H6        1.0  0.02040  0.48100  0.41370  1.0000 0.1629488859
H   H7        1.0  0.52040  0.01900  0.08630  1.0000 0.1629488859
H   H8        1.0  0.97960  0.51900  0.91370  1.0000 0.1629488859
H   H9        1.0  0.96670  0.04900  0.45580  1.0000 0.2789073642
H   H10       1.0  0.53330  0.54900  0.54420  1.0000 0.2789073642
H   H11       1.0  0.03330  0.95100  0.95580  1.0000 0.2789073642
H   H12       1.0  0.46670  0.45100  0.04420  1.0000 0.2789073642
H   H13       1.0  0.03330  0.95100  0.54420  1.0000 0.2789073642
H   H14       1.0  0.46670  0.45100  0.45580  1.0000 0.2789073642
H   H15       1.0  0.96670  0.04900  0.04420  1.0000 0.2789073642
H   H16       1.0  0.53330  0.54900  0.95580  1.0000 0.2789073642
C   C1        1.0  0.53090  0.17810  0.50350  1.0000 0.5529893879
C   C2        1.0  0.96910  0.67810  0.49650  1.0000 0.5529893879
C   C3        1.0  0.46910  0.82190  0.00350  1.0000 0.5529893879
C   C4        1.0  0.03090  0.32190  0.99650  1.0000 0.5529893879
C   C5        1.0  0.46910  0.82190  0.49650  1.0000 0.5529893879
C   C6        1.0  0.03090  0.32190  0.50350  1.0000 0.5529893879
C   C7        1.0  0.53090  0.17810  0.99650  1.0000 0.5529893879
C   C8        1.0  0.96910  0.67810  0.00350  1.0000 0.5529893879
C   C9        1.0  0.64090  0.11500  0.47190  1.0000 0.0227774365
C   C10       1.0  0.85910  0.61500  0.52810  1.0000 0.0227774365
C   C11       1.0  0.35910  0.88500  0.97190  1.0000 0.0227774365
C   C12       1.0  0.14090  0.38500  0.02810  1.0000 0.0227774365
C   C13       1.0  0.35910  0.88500  0.52810  1.0000 0.0227774365
C   C14       1.0  0.14090  0.38500  0.47190  1.0000 0.0227774365
C   C15       1.0  0.64090  0.11500  0.02810  1.0000 0.0227774365
C   C16       1.0  0.85910  0.61500  0.97190  1.0000 0.0227774365
C   C17       1.0  0.61670  0.04030  0.43100  1.0000 -0.2208609004
C   C18       1.0  0.88330  0.54030  0.56900  1.0000 -0.2208609004
C   C19       1.0  0.38330  0.95970  0.93100  1.0000 -0.2208609004
C   C20       1.0  0.11670  0.45970  0.06900  1.0000 -0.2208609004
C   C21       1.0  0.38330  0.95970  0.56900  1.0000 -0.2208609004
C   C22       1.0  0.11670  0.45970  0.43100  1.0000 -0.2208609004
C   C23       1.0  0.61670  0.04030  0.06900  1.0000 -0.2208609004
C   C24       1.0  0.88330  0.54030  0.93100  1.0000 -0.2208609004
C   C25       1.0  0.76270  0.00400  0.42110  1.0000 0.0227774365
C   C26       1.0  0.73730  0.50400  0.57890  1.0000 0.0227774365
C   C27       1.0  0.23730  0.99600  0.92110  1.0000 0.0227774365
C   C28       1.0  0.26270  0.49600  0.07890  1.0000 0.0227774365
C   C29       1.0  0.23730  0.99600  0.57890  1.0000 0.0227774365
C   C30       1.0  0.26270  0.49600  0.42110  1.0000 0.0227774365
C   C31       1.0  0.76270  0.00400  0.07890  1.0000 0.0227774365
C   C32       1.0  0.73730  0.50400  0.92110  1.0000 0.0227774365
C   C33       1.0  0.81410  0.92140  0.38780  1.0000 0.5911513362
C   C34       1.0  0.68590  0.42140  0.61220  1.0000 0.5911513362
C   C35       1.0  0.18590  0.07860  0.88780  1.0000 0.5911513362
C   C36       1.0  0.31410  0.57860  0.11220  1.0000 0.5911513362
C   C37       1.0  0.18590  0.07860  0.61220  1.0000 0.5911513362
C   C38       1.0  0.31410  0.57860  0.38780  1.0000 0.5911513362
C   C39       1.0  0.81410  0.92140  0.11220  1.0000 0.5911513362
C   C40       1.0  0.68590  0.42140  0.88780  1.0000 0.5911513362
C   C41       1.0  0.53030  0.24910  0.75000  1.0000 0.8504240159
C   C42       1.0  0.96970  0.74910  0.25000  1.0000 0.8504240159
C   C43       1.0  0.46970  0.75090  0.25000  1.0000 0.8504240159
C   C44       1.0  0.03030  0.25090  0.75000  1.0000 0.8504240159
N   N1        1.0  0.86580  0.05770  0.45490  1.0000 -0.0629909505
N   N2        1.0  0.63420  0.55770  0.54510  1.0000 -0.0629909505
N   N3        1.0  0.13420  0.94230  0.95490  1.0000 -0.0629909505
N   N4        1.0  0.36580  0.44230  0.04510  1.0000 -0.0629909505
N   N5        1.0  0.13420  0.94230  0.54510  1.0000 -0.0629909505
N   N6        1.0  0.36580  0.44230  0.45490  1.0000 -0.0629909505
N   N7        1.0  0.86580  0.05770  0.04510  1.0000 -0.0629909505
N   N8        1.0  0.63420  0.55770  0.95490  1.0000 -0.0629909505
N   N9        1.0  0.79570  0.12500  0.48640  1.0000 -0.2376912702
N   N10       1.0  0.70430  0.62500  0.51360  1.0000 -0.2376912702
N   N11       1.0  0.20430  0.87500  0.98640  1.0000 -0.2376912702
N   N12       1.0  0.29570  0.37500  0.01360  1.0000 -0.2376912702
N   N13       1.0  0.20430  0.87500  0.51360  1.0000 -0.2376912702
N   N14       1.0  0.29570  0.37500  0.48640  1.0000 -0.2376912702
N   N15       1.0  0.79570  0.12500  0.01360  1.0000 -0.2376912702
N   N16       1.0  0.70430  0.62500  0.98640  1.0000 -0.2376912702
O   O1        1.0  0.38970  0.17540  0.49010  1.0000 -0.5102304127
O   O2        1.0  0.11030  0.67540  0.50990  1.0000 -0.5102304127
O   O3        1.0  0.61030  0.82460  0.99010  1.0000 -0.5102304127
O   O4        1.0  0.88970  0.32460  0.00990  1.0000 -0.5102304127
O   O5        1.0  0.61030  0.82460  0.50990  1.0000 -0.5102304127
O   O6        1.0  0.88970  0.32460  0.49010  1.0000 -0.5102304127
O   O7        1.0  0.38970  0.17540  0.00990  1.0000 -0.5102304127
O   O8        1.0  0.11030  0.67540  0.99010  1.0000 -0.5102304127
O   O9        1.0  0.58900  0.23410  0.54580  1.0000 -0.6340153174
O   O10       1.0  0.91100  0.73410  0.45420  1.0000 -0.6352236029
O   O11       1.0  0.41100  0.76590  0.04580  1.0000 -0.6340153174
O   O12       1.0  0.08900  0.26590  0.95420  1.0000 -0.6340153174
O   O13       1.0  0.41100  0.76590  0.45420  1.0000 -0.6340153174
O   O14       1.0  0.08900  0.26590  0.54580  1.0000 -0.6340153174
O   O15       1.0  0.58900  0.23410  0.95420  1.0000 -0.6340153174
O   O16       1.0  0.91100  0.73410  0.04580  1.0000 -0.6352236029
O   O17       1.0  0.95720  0.90590  0.39090  1.0000 -0.6236260888
O   O18       1.0  0.54280  0.40590  0.60910  1.0000 -0.6236260888
O   O19       1.0  0.04280  0.09410  0.89090  1.0000 -0.6236260888
O   O20       1.0  0.45720  0.59410  0.10910  1.0000 -0.6236260888
O   O21       1.0  0.04280  0.09410  0.60910  1.0000 -0.6236260888
O   O22       1.0  0.45720  0.59410  0.39090  1.0000 -0.6236260888
O   O23       1.0  0.95720  0.90590  0.10910  1.0000 -0.6236260888
O   O24       1.0  0.54280  0.40590  0.89090  1.0000 -0.6236260888
O   O25       1.0  0.71000  0.87470  0.36130  1.0000 -0.5537897404
O   O26       1.0  0.79000  0.37470  0.63870  1.0000 -0.5537897404
O   O27       1.0  0.29000  0.12530  0.86130  1.0000 -0.5537897404
O   O28       1.0  0.21000  0.62530  0.13870  1.0000 -0.5537897404
O   O29       1.0  0.29000  0.12530  0.63870  1.0000 -0.5537897404
O   O30       1.0  0.21000  0.62530  0.36130  1.0000 -0.5537897404
O   O31       1.0  0.71000  0.87470  0.13870  1.0000 -0.5537897404
O   O32       1.0  0.79000  0.37470  0.86130  1.0000 -0.5537897404
O   O33       1.0  0.58670  0.22650  0.68920  1.0000 -0.6813185867
O   O34       1.0  0.91330  0.72650  0.31080  1.0000 -0.6813185867
O   O35       1.0  0.41330  0.77350  0.18920  1.0000 -0.6813185867
O   O36       1.0  0.08670  0.27350  0.81080  1.0000 -0.6813185867
O   O37       1.0  0.41330  0.77350  0.31080  1.0000 -0.6813185867
O   O38       1.0  0.08670  0.27350  0.68920  1.0000 -0.6813185867
O   O39       1.0  0.58670  0.22650  0.81080  1.0000 -0.6813185867
O   O40       1.0  0.91330  0.72650  0.18920  1.0000 -0.6813185867
O   O41       1.0  0.40360  0.29430  0.75000  1.0000 -0.6866746899
O   O42       1.0  0.09640  0.79430  0.25000  1.0000 -0.6866746899
O   O43       1.0  0.59640  0.70570  0.25000  1.0000 -0.6866746899
O   O44       1.0  0.90360  0.20570  0.75000  1.0000 -0.6866746899
