# DDEC6 charges by PACMAN v1.1 (https://github.com/mtap-research/PACMAN-charge/)
data_2008[Zn][rtl]3[ASR]1
_chemical_formula_sum              "Zn8 H12 C36 I4 O28"
_cell_length_a       10.2511
_cell_length_b       13.8478
_cell_length_c       18.1355
_cell_angle_alpha    90
_cell_angle_beta     118.587
_cell_angle_gamma    90

_symmetry_space_group_name_H-M    "P 1"
_symmetry_Int_Tables_number       1

loop_
  _symmetry_equiv_pos_as_xyz
  'x, y, z'

loop_
  _atom_site_type_symbol
  _atom_site_label
  _atom_site_symmetry_multiplicity
  _atom_site_fract_x
  _atom_site_fract_y
  _atom_site_fract_z
  _atom_site_occupancy
  _atom_site_charge
Zn  Zn1       1.0  0.16911  0.03214  0.04527  1.0000 1.1050530511
Zn  Zn2       1.0  0.83089  0.53214  0.45473  1.0000 1.1015564838
Zn  Zn3       1.0  0.83089  0.96786  0.95473  1.0000 1.1015564838
Zn  Zn4       1.0  0.16911  0.46786  0.54527  1.0000 1.1015564838
Zn  Zn5       1.0  0.91197  0.19762  0.93118  1.0000 0.9081623096
Zn  Zn6       1.0  0.08803  0.69762  0.56882  1.0000 0.9081623096
Zn  Zn7       1.0  0.08803  0.80238  0.06882  1.0000 0.9081623096
Zn  Zn8       1.0  0.91197  0.30238  0.43118  1.0000 0.9081623096
H   H1        1.0  0.08190  0.27320  0.77690  1.0000 0.1365306552
H   H2        1.0  0.91810  0.77320  0.72310  1.0000 0.1365306552
H   H3        1.0  0.91810  0.72680  0.22310  1.0000 0.1365306552
H   H4        1.0  0.08190  0.22680  0.27690  1.0000 0.1365306552
H   H5        1.0  0.45300  0.26640  0.75080  1.0000 0.1365306552
H   H6        1.0  0.54700  0.76640  0.74920  1.0000 0.1365306552
H   H7        1.0  0.54700  0.73360  0.24920  1.0000 0.1365306552
H   H8        1.0  0.45300  0.23360  0.25080  1.0000 0.1365306552
H   H9        1.0  0.41760  0.09000  0.91870  1.0000 0.1484346527
H   H10       1.0  0.58240  0.59000  0.58130  1.0000 0.1484346527
H   H11       1.0  0.58240  0.91000  0.08130  1.0000 0.1484346527
H   H12       1.0  0.41760  0.41000  0.41870  1.0000 0.1484346527
C   C1        1.0  0.23703  0.17629  0.85386  1.0000 -0.007530443
C   C2        1.0  0.76297  0.67629  0.64614  1.0000 -0.007530443
C   C3        1.0  0.76297  0.82371  0.14614  1.0000 -0.007530443
C   C4        1.0  0.23703  0.32371  0.35386  1.0000 -0.007530443
C   C5        1.0  0.17756  0.24751  0.79254  1.0000 -0.0720064311
C   C6        1.0  0.82244  0.74751  0.70746  1.0000 -0.0720064311
C   C7        1.0  0.82244  0.75249  0.20746  1.0000 -0.0803259086
C   C8        1.0  0.17756  0.25249  0.29254  1.0000 -0.0720064311
C   C9        1.0  0.25806  0.28110  0.75414  1.0000 0.0159746509
C   C10       1.0  0.74194  0.78110  0.74586  1.0000 0.0159746509
C   C11       1.0  0.74194  0.71890  0.24586  1.0000 0.0137600493
C   C12       1.0  0.25806  0.21890  0.25414  1.0000 0.0137600493
C   C13       1.0  0.39801  0.24346  0.77705  1.0000 -0.0720064311
C   C14       1.0  0.60199  0.74346  0.72295  1.0000 -0.0720064311
C   C15       1.0  0.60199  0.75654  0.22295  1.0000 -0.0720064311
C   C16       1.0  0.39801  0.25654  0.27705  1.0000 -0.0720064311
C   C17       1.0  0.45748  0.17224  0.83837  1.0000 -0.007530443
C   C18       1.0  0.54252  0.67224  0.66163  1.0000 -0.007530443
C   C19       1.0  0.54252  0.82776  0.16163  1.0000 -0.0041334119
C   C20       1.0  0.45748  0.32776  0.33837  1.0000 -0.0041334119
C   C21       1.0  0.37698  0.13865  0.87677  1.0000 -0.0803259086
C   C22       1.0  0.62302  0.63865  0.62323  1.0000 -0.0803259086
C   C23       1.0  0.62302  0.86135  0.12323  1.0000 -0.0803259086
C   C24       1.0  0.37698  0.36135  0.37677  1.0000 -0.0803259086
C   C25       1.0  0.15433  0.14424  0.89927  1.0000 0.611256941
C   C26       1.0  0.84567  0.64424  0.60073  1.0000 0.611256941
C   C27       1.0  0.84567  0.85576  0.10073  1.0000 0.611256941
C   C28       1.0  0.15433  0.35576  0.39927  1.0000 0.611256941
C   C29       1.0  0.18645  0.35619  0.68508  1.0000 0.5667663205
C   C30       1.0  0.81355  0.85619  0.81492  1.0000 0.5667663205
C   C31       1.0  0.81355  0.64381  0.31492  1.0000 0.5667663205
C   C32       1.0  0.18645  0.14381  0.18508  1.0000 0.5667663205
C   C33       1.0  0.61117  0.13401  0.86689  1.0000 0.6008777309
C   C34       1.0  0.38883  0.63401  0.63311  1.0000 0.6008777309
C   C35       1.0  0.38883  0.86599  0.13311  1.0000 0.6008777309
C   C36       1.0  0.61117  0.36599  0.36689  1.0000 0.6008777309
I   I1        1.0  0.99285  0.35376  0.01078  1.0000 -0.3708187459
I   I2        1.0  0.00715  0.85376  0.48922  1.0000 -0.3708187459
I   I3        1.0  0.00715  0.64624  0.98922  1.0000 -0.3708187459
I   I4        1.0  0.99285  0.14624  0.51078  1.0000 -0.3708187459
O   O1        1.0  0.02162  0.17211  0.86948  1.0000 -0.4894206517
O   O2        1.0  0.97838  0.67211  0.63052  1.0000 -0.4894206517
O   O3        1.0  0.97838  0.82789  0.13052  1.0000 -0.4894206517
O   O4        1.0  0.02162  0.32789  0.36948  1.0000 -0.4894206517
O   O5        1.0  0.22456  0.09259  0.96397  1.0000 -0.4894206517
O   O6        1.0  0.77544  0.59259  0.53603  1.0000 -0.4894206517
O   O7        1.0  0.77544  0.90741  0.03603  1.0000 -0.4894206517
O   O8        1.0  0.22456  0.40741  0.46397  1.0000 -0.4894206517
O   O9        1.0  0.06004  0.38452  0.66720  1.0000 -0.3708187459
O   O10       1.0  0.93996  0.88452  0.83280  1.0000 -0.3708187459
O   O11       1.0  0.93996  0.61548  0.33280  1.0000 -0.3708187459
O   O12       1.0  0.06004  0.11548  0.16720  1.0000 -0.3763827842
O   O13       1.0  0.26193  0.38505  0.65000  1.0000 -0.4894206517
O   O14       1.0  0.73807  0.88505  0.85000  1.0000 -0.4894206517
O   O15       1.0  0.73807  0.61495  0.35000  1.0000 -0.4894206517
O   O16       1.0  0.26193  0.11495  0.15000  1.0000 -0.4894206517
O   O17       1.0  0.64206  0.05367  0.90390  1.0000 -0.469150902
O   O18       1.0  0.35794  0.55367  0.59610  1.0000 -0.469150902
O   O19       1.0  0.35794  0.94633  0.09610  1.0000 -0.469150902
O   O20       1.0  0.64206  0.44633  0.40390  1.0000 -0.469150902
O   O21       1.0  0.69791  0.18539  0.85247  1.0000 -0.4894206517
O   O22       1.0  0.30209  0.68539  0.64753  1.0000 -0.4894206517
O   O23       1.0  0.30209  0.81461  0.14753  1.0000 -0.4894206517
O   O24       1.0  0.69791  0.31461  0.35247  1.0000 -0.4894206517
O   O25       1.0  0.95575  0.08707  0.00551  1.0000 -0.8146466177
O   O26       1.0  0.04425  0.58707  0.49449  1.0000 -0.8146466177
O   O27       1.0  0.04425  0.91293  0.99449  1.0000 -0.8177818221
O   O28       1.0  0.95575  0.41293  0.50551  1.0000 -0.8177818221
