# DDEC6 charges by PACMAN v1.1 (https://github.com/mtap-research/PACMAN-charge/)
data_2008[Zn][pcu]3[ASR]3
_chemical_formula_sum              "Zn8 H48 C84 O26"
_cell_length_a       16.9981
_cell_length_b       16.9981
_cell_length_c       17.12
_cell_angle_alpha    95.4935
_cell_angle_beta     95.4935
_cell_angle_gamma    95.768

_symmetry_space_group_name_H-M    "P 1"
_symmetry_Int_Tables_number       1

loop_
  _symmetry_equiv_pos_as_xyz
  'x, y, z'

loop_
  _atom_site_type_symbol
  _atom_site_label
  _atom_site_symmetry_multiplicity
  _atom_site_fract_x
  _atom_site_fract_y
  _atom_site_fract_z
  _atom_site_occupancy
  _atom_site_charge
Zn  Zn1       1.0  0.90334  0.78615  0.67814  1.0000 0.9007366567
Zn  Zn2       1.0  0.78515  0.90260  0.67592  1.0000 0.9007366567
Zn  Zn3       1.0  0.91548  0.91865  0.81228  1.0000 0.9222897658
Zn  Zn4       1.0  0.78356  0.78465  0.79549  1.0000 0.9007366567
Zn  Zn5       1.0  0.21385  0.09666  0.32186  1.0000 0.9007366567
Zn  Zn6       1.0  0.09740  0.21485  0.32408  1.0000 0.9007366567
Zn  Zn7       1.0  0.08135  0.08452  0.18772  1.0000 0.9222897658
Zn  Zn8       1.0  0.21535  0.21644  0.20451  1.0000 0.9007366567
H   H1        1.0  0.13111  0.81220  0.62825  1.0000 0.1102515982
H   H2        1.0  0.27401  0.81140  0.62538  1.0000 0.103713261
H   H3        1.0  0.31414  0.92550  0.86398  1.0000 0.1102515982
H   H4        1.0  0.16976  0.92770  0.86668  1.0000 0.1162447111
H   H5        1.0  0.39769  0.90895  0.62943  1.0000 0.103713261
H   H6        1.0  0.53925  0.89649  0.62344  1.0000 0.1162447111
H   H7        1.0  0.55067  0.80076  0.84835  1.0000 0.1162447111
H   H8        1.0  0.40906  0.81440  0.85462  1.0000 0.1102515982
H   H9        1.0  0.79928  0.95256  0.29976  1.0000 0.103713261
H   H10       1.0  0.79000  0.94875  0.44128  1.0000 0.1102515982
H   H11       1.0  0.81268  0.13162  0.62498  1.0000 0.1102515982
H   H12       1.0  0.81189  0.27463  0.62169  1.0000 0.103713261
H   H13       1.0  0.90503  0.31390  0.86726  1.0000 0.1102515982
H   H14       1.0  0.90689  0.16972  0.87051  1.0000 0.1102515982
H   H15       1.0  0.90956  0.39845  0.63345  1.0000 0.103713261
H   H16       1.0  0.90068  0.54065  0.62751  1.0000 0.1162447111
H   H17       1.0  0.78710  0.55075  0.84272  1.0000 0.1162447111
H   H18       1.0  0.79698  0.40863  0.84892  1.0000 0.1102515982
H   H19       1.0  0.90603  0.73267  0.29100  1.0000 0.103713261
H   H20       1.0  0.89792  0.72924  0.43287  1.0000 0.1102515982
H   H21       1.0  0.18780  0.86889  0.37175  1.0000 0.1102515982
H   H22       1.0  0.18860  0.72599  0.37462  1.0000 0.103713261
H   H23       1.0  0.07450  0.68586  0.13602  1.0000 0.1102515982
H   H24       1.0  0.07230  0.83024  0.13332  1.0000 0.1162447111
H   H25       1.0  0.09105  0.60231  0.37057  1.0000 0.103713261
H   H26       1.0  0.10351  0.46075  0.37656  1.0000 0.1162447111
H   H27       1.0  0.19924  0.44933  0.15165  1.0000 0.1162447111
H   H28       1.0  0.18560  0.59094  0.14538  1.0000 0.1102515982
H   H29       1.0  0.04744  0.20072  0.70024  1.0000 0.103713261
H   H30       1.0  0.05125  0.21000  0.55872  1.0000 0.1102515982
H   H31       1.0  0.86838  0.18732  0.37502  1.0000 0.1102515982
H   H32       1.0  0.72537  0.18811  0.37831  1.0000 0.103713261
H   H33       1.0  0.68610  0.09497  0.13274  1.0000 0.1102515982
H   H34       1.0  0.83028  0.09311  0.12949  1.0000 0.1102515982
H   H35       1.0  0.60155  0.09044  0.36655  1.0000 0.103713261
H   H36       1.0  0.45935  0.09932  0.37249  1.0000 0.1162447111
H   H37       1.0  0.44925  0.21290  0.15728  1.0000 0.1162447111
H   H38       1.0  0.59137  0.20302  0.15108  1.0000 0.103713261
H   H39       1.0  0.26733  0.09397  0.70900  1.0000 0.103713261
H   H40       1.0  0.27076  0.10208  0.56713  1.0000 0.1102515982
H   H41       1.0  0.81035  0.72734  0.02310  1.0000 0.1102515982
H   H42       1.0  0.80870  0.72235  0.16528  1.0000 0.103713261
H   H43       1.0  0.90792  0.96714  0.20737  1.0000 0.1102515982
H   H44       1.0  0.91182  0.97269  0.06436  1.0000 0.1162447111
H   H45       1.0  0.27266  0.18965  0.97690  1.0000 0.1102515982
H   H46       1.0  0.27765  0.19130  0.83472  1.0000 0.103713261
H   H47       1.0  0.03286  0.09208  0.79263  1.0000 0.1102515982
H   H48       1.0  0.02731  0.08818  0.93564  1.0000 0.1162447111
C   C1        1.0  0.05093  0.86412  0.74956  1.0000 0.6013612667
C   C2        1.0  0.13878  0.86930  0.74805  1.0000 -0.0513768003
C   C3        1.0  0.17017  0.83760  0.68017  1.0000 -0.0888341201
C   C4        1.0  0.25218  0.83745  0.67824  1.0000 -0.1427776105
C   C5        1.0  0.30534  0.86789  0.74453  1.0000 0.0801034434
C   C6        1.0  0.27444  0.90089  0.81225  1.0000 -0.1427776105
C   C7        1.0  0.19197  0.90248  0.81368  1.0000 -0.0888341201
C   C8        1.0  0.39232  0.86302  0.74268  1.0000 0.0742241809
C   C9        1.0  0.43053  0.88524  0.67754  1.0000 -0.1461670717
C   C10       1.0  0.51159  0.87800  0.67411  1.0000 -0.0888341201
C   C11       1.0  0.55630  0.84693  0.73507  1.0000 -0.0513768003
C   C12       1.0  0.51790  0.82415  0.80002  1.0000 -0.0888341201
C   C13       1.0  0.43705  0.83277  0.80409  1.0000 -0.1427776105
C   C14       1.0  0.64323  0.84244  0.73289  1.0000 0.6013612667
C   C15       1.0  0.82093  0.90348  0.32820  1.0000 -0.1427776105
C   C16       1.0  0.81502  0.90090  0.40921  1.0000 -0.0847622776
C   C17       1.0  0.85605  0.05150  0.74930  1.0000 0.6013612667
C   C18       1.0  0.85929  0.13916  0.74825  1.0000 -0.0513768003
C   C19       1.0  0.83325  0.17060  0.67838  1.0000 -0.0888341201
C   C20       1.0  0.83321  0.25260  0.67625  1.0000 -0.1427776105
C   C21       1.0  0.85805  0.30549  0.74423  1.0000 0.0801034434
C   C22       1.0  0.88487  0.27441  0.81413  1.0000 -0.1427776105
C   C23       1.0  0.88631  0.19207  0.81591  1.0000 -0.0888341201
C   C24       1.0  0.85428  0.39247  0.74185  1.0000 0.0742241809
C   C25       1.0  0.88257  0.43114  0.67934  1.0000 -0.1461670717
C   C26       1.0  0.87746  0.51255  0.67597  1.0000 -0.0888341201
C   C27       1.0  0.84262  0.55706  0.73430  1.0000 -0.0513768003
C   C28       1.0  0.81364  0.51815  0.79645  1.0000 -0.0888341201
C   C29       1.0  0.82001  0.43698  0.80051  1.0000 -0.1427776105
C   C30       1.0  0.84020  0.64422  0.73262  1.0000 0.6013612667
C   C31       1.0  0.83237  0.78029  0.06250  1.0000 -0.0888341201
C   C32       1.0  0.83171  0.77718  0.14403  1.0000 -0.1427776105
C   C33       1.0  0.88697  0.91482  0.16721  1.0000 -0.1337211883
C   C34       1.0  0.88944  0.91763  0.08560  1.0000 -0.0888341201
C   C35       1.0  0.88019  0.77988  0.32318  1.0000 -0.1427776105
C   C36       1.0  0.87562  0.77804  0.40451  1.0000 -0.0847622776
C   C37       1.0  0.85763  0.85334  0.94477  1.0000 0.6103671113
C   C38       1.0  0.86083  0.85062  0.03201  1.0000 -0.0513768003
C   C39       1.0  0.85788  0.84481  0.19741  1.0000 0.0801034434
C   C40       1.0  0.85323  0.84281  0.28404  1.0000 0.0801034434
C   C41       1.0  0.84260  0.83832  0.44865  1.0000 -0.0513768003
C   C42       1.0  0.84047  0.83812  0.53578  1.0000 0.6103671113
C   C43       1.0  0.13588  0.94907  0.25044  1.0000 0.6013612667
C   C44       1.0  0.13070  0.86122  0.25195  1.0000 -0.0513768003
C   C45       1.0  0.16240  0.82983  0.31983  1.0000 -0.0888341201
C   C46       1.0  0.16255  0.74782  0.32176  1.0000 -0.1427776105
C   C47       1.0  0.13211  0.69466  0.25547  1.0000 0.0801034434
C   C48       1.0  0.09911  0.72556  0.18775  1.0000 -0.1427776105
C   C49       1.0  0.09752  0.80803  0.18632  1.0000 -0.0888341201
C   C50       1.0  0.13698  0.60768  0.25732  1.0000 0.0742241809
C   C51       1.0  0.11476  0.56947  0.32246  1.0000 -0.1461670717
C   C52       1.0  0.12200  0.48841  0.32589  1.0000 -0.0888341201
C   C53       1.0  0.15307  0.44370  0.26493  1.0000 -0.0513768003
C   C54       1.0  0.17585  0.48210  0.19998  1.0000 -0.0888341201
C   C55       1.0  0.16723  0.56295  0.19591  1.0000 -0.1427776105
C   C56       1.0  0.15756  0.35677  0.26711  1.0000 0.6013612667
C   C57       1.0  0.09652  0.17907  0.67180  1.0000 -0.1427776105
C   C58       1.0  0.09910  0.18498  0.59079  1.0000 -0.0847622776
C   C59       1.0  0.94850  0.14395  0.25070  1.0000 0.6013612667
C   C60       1.0  0.86084  0.14071  0.25175  1.0000 -0.0513768003
C   C61       1.0  0.82940  0.16675  0.32162  1.0000 -0.0888341201
C   C62       1.0  0.74740  0.16679  0.32375  1.0000 -0.1461670717
C   C63       1.0  0.69451  0.14195  0.25577  1.0000 0.0801034434
C   C64       1.0  0.72559  0.11513  0.18587  1.0000 -0.1427776105
C   C65       1.0  0.80793  0.11369  0.18409  1.0000 -0.0888341201
C   C66       1.0  0.60753  0.14572  0.25815  1.0000 0.0742241809
C   C67       1.0  0.56886  0.11743  0.32066  1.0000 -0.1461670717
C   C68       1.0  0.48745  0.12254  0.32403  1.0000 -0.0888341201
C   C69       1.0  0.44294  0.15738  0.26570  1.0000 -0.0513768003
C   C70       1.0  0.48185  0.18636  0.20355  1.0000 -0.0888341201
C   C71       1.0  0.56302  0.17999  0.19949  1.0000 -0.1427776105
C   C72       1.0  0.35578  0.15980  0.26738  1.0000 0.6013612667
C   C73       1.0  0.21971  0.16763  0.93750  1.0000 -0.0888341201
C   C74       1.0  0.22282  0.16829  0.85597  1.0000 -0.1427776105
C   C75       1.0  0.08518  0.11303  0.83279  1.0000 -0.1337211883
C   C76       1.0  0.08237  0.11056  0.91440  1.0000 -0.0888341201
C   C77       1.0  0.22012  0.11981  0.67682  1.0000 -0.1427776105
C   C78       1.0  0.22196  0.12438  0.59549  1.0000 -0.0847622776
C   C79       1.0  0.14666  0.14237  0.05523  1.0000 0.6103671113
C   C80       1.0  0.14938  0.13917  0.96799  1.0000 -0.0513768003
C   C81       1.0  0.15519  0.14212  0.80259  1.0000 0.0801034434
C   C82       1.0  0.15719  0.14677  0.71596  1.0000 0.0801034434
C   C83       1.0  0.16168  0.15740  0.55135  1.0000 -0.0513768003
C   C84       1.0  0.16188  0.15953  0.46422  1.0000 0.6103671113
O   O1        1.0  0.01982  0.90964  0.79870  1.0000 -0.5373577704
O   O2        1.0  0.00794  0.81304  0.70026  1.0000 -0.5113998682
O   O3        1.0  0.67931  0.79881  0.77763  1.0000 -0.5283663919
O   O4        1.0  0.88573  0.68196  0.69075  1.0000 -0.5283663919
O   O5        1.0  0.88417  0.79506  0.57364  1.0000 -0.5241146615
O   O6        1.0  0.90007  0.02156  0.80054  1.0000 -0.5373577704
O   O7        1.0  0.80896  0.00751  0.69721  1.0000 -0.5113998682
O   O8        1.0  0.79459  0.68031  0.77490  1.0000 -0.5283663919
O   O9        1.0  0.68079  0.88441  0.68782  1.0000 -0.5283663919
O   O10       1.0  0.79697  0.88284  0.57192  1.0000 -0.5241146615
O   O11       1.0  0.84718  0.84827  0.74080  1.0000 -0.9753840199
O   O12       1.0  0.90384  0.90376  0.91540  1.0000 -0.5283663919
O   O13       1.0  0.80771  0.80401  0.90039  1.0000 -0.5113998682
O   O14       1.0  0.09036  0.98018  0.20130  1.0000 -0.5373577704
O   O15       1.0  0.18696  0.99206  0.29974  1.0000 -0.5113998682
O   O16       1.0  0.20119  0.32069  0.22237  1.0000 -0.5283663919
O   O17       1.0  0.31804  0.11427  0.30925  1.0000 -0.5283663919
O   O18       1.0  0.20494  0.11583  0.42636  1.0000 -0.5241146615
O   O19       1.0  0.97844  0.09993  0.19946  1.0000 -0.5373577704
O   O20       1.0  0.99249  0.19104  0.30279  1.0000 -0.5113998682
O   O21       1.0  0.31969  0.20541  0.22510  1.0000 -0.5283663919
O   O22       1.0  0.11559  0.31921  0.31218  1.0000 -0.5283663919
O   O23       1.0  0.11716  0.20303  0.42808  1.0000 -0.5241146615
O   O24       1.0  0.15173  0.15282  0.25920  1.0000 -0.9739142289
O   O25       1.0  0.09624  0.09616  0.08460  1.0000 -0.5283663919
O   O26       1.0  0.19599  0.19229  0.09961  1.0000 -0.5113998682
