# DDEC6 charges by PACMAN v1.1 (https://github.com/mtap-research/PACMAN-charge/)
data_2008[ZnCo][nan]3[ASR]1
_chemical_formula_sum              "Zn8 Co8 H16 C80 O64"
_cell_length_a       18.7107
_cell_length_b       18.7107
_cell_length_c       11.7603
_cell_angle_alpha    90
_cell_angle_beta     90
_cell_angle_gamma    90

_symmetry_space_group_name_H-M    "P 1"
_symmetry_Int_Tables_number       1

loop_
  _symmetry_equiv_pos_as_xyz
  'x, y, z'

loop_
  _atom_site_type_symbol
  _atom_site_label
  _atom_site_symmetry_multiplicity
  _atom_site_fract_x
  _atom_site_fract_y
  _atom_site_fract_z
  _atom_site_occupancy
  _atom_site_charge
Zn  Zn1       1.0  0.21838  0.71429  0.35614  1.0000 0.928684841
Zn  Zn2       1.0  0.71429  0.78162  0.85614  1.0000 0.928684841
Zn  Zn3       1.0  0.78162  0.28571  0.35614  1.0000 0.928684841
Zn  Zn4       1.0  0.28571  0.21838  0.85614  1.0000 0.928684841
Zn  Zn5       1.0  0.71838  0.78571  0.35614  1.0000 0.928684841
Zn  Zn6       1.0  0.21429  0.71838  0.85614  1.0000 0.928684841
Zn  Zn7       1.0  0.28162  0.21429  0.35614  1.0000 0.928684841
Zn  Zn8       1.0  0.78571  0.28162  0.85614  1.0000 0.928684841
Co  Co1       1.0  0.17832  0.84611  0.18206  1.0000 1.0692572697
Co  Co2       1.0  0.84611  0.82168  0.68206  1.0000 1.0692572697
Co  Co3       1.0  0.82168  0.15389  0.18206  1.0000 1.0692572697
Co  Co4       1.0  0.15389  0.17832  0.68206  1.0000 1.0692572697
Co  Co5       1.0  0.67832  0.65389  0.18206  1.0000 1.0692572697
Co  Co6       1.0  0.34611  0.67832  0.68206  1.0000 1.0692572697
Co  Co7       1.0  0.32168  0.34611  0.18206  1.0000 1.0692572697
Co  Co8       1.0  0.65389  0.32168  0.68206  1.0000 1.0692572697
H   H1        1.0  0.49130  0.72830  0.91020  1.0000 0.1335565402
H   H2        1.0  0.72830  0.50870  0.41020  1.0000 0.1335565402
H   H3        1.0  0.50870  0.27170  0.91020  1.0000 0.1335565402
H   H4        1.0  0.27170  0.49130  0.41020  1.0000 0.1335565402
H   H5        1.0  0.99130  0.77170  0.91020  1.0000 0.1335565402
H   H6        1.0  0.22830  0.99130  0.41020  1.0000 0.1335565402
H   H7        1.0  0.00870  0.22830  0.91020  1.0000 0.1335565402
H   H8        1.0  0.77170  0.00870  0.41020  1.0000 0.1335565402
H   H9        1.0  0.44330  0.77900  0.29020  1.0000 0.1335565402
H   H10       1.0  0.77900  0.55670  0.79020  1.0000 0.1335565402
H   H11       1.0  0.55670  0.22100  0.29020  1.0000 0.1335565402
H   H12       1.0  0.22100  0.44330  0.79020  1.0000 0.1335565402
H   H13       1.0  0.94330  0.72100  0.29020  1.0000 0.1335565402
H   H14       1.0  0.27900  0.94330  0.79020  1.0000 0.1335565402
H   H15       1.0  0.05670  0.27900  0.29020  1.0000 0.1335565402
H   H16       1.0  0.72100  0.05670  0.79020  1.0000 0.1335565402
C   C1        1.0  0.32170  0.75910  0.18990  1.0000 0.620267774
C   C2        1.0  0.75910  0.67830  0.68990  1.0000 0.620267774
C   C3        1.0  0.67830  0.24090  0.18990  1.0000 0.620267774
C   C4        1.0  0.24090  0.32170  0.68990  1.0000 0.620267774
C   C5        1.0  0.82170  0.74090  0.18990  1.0000 0.620267774
C   C6        1.0  0.25910  0.82170  0.68990  1.0000 0.620267774
C   C7        1.0  0.17830  0.25910  0.18990  1.0000 0.620267774
C   C8        1.0  0.74090  0.17830  0.68990  1.0000 0.620267774
C   C9        1.0  0.39530  0.75420  0.14060  1.0000 -0.0237852679
C   C10       1.0  0.75420  0.60470  0.64060  1.0000 -0.029366352
C   C11       1.0  0.60470  0.24580  0.14060  1.0000 -0.0237852679
C   C12       1.0  0.24580  0.39530  0.64060  1.0000 -0.0237852679
C   C13       1.0  0.89530  0.74580  0.14060  1.0000 -0.0237852679
C   C14       1.0  0.25420  0.89530  0.64060  1.0000 -0.029366352
C   C15       1.0  0.10470  0.25420  0.14060  1.0000 -0.0237852679
C   C16       1.0  0.74580  0.10470  0.64060  1.0000 -0.0237852679
C   C17       1.0  0.41130  0.73800  0.02850  1.0000 -0.029366352
C   C18       1.0  0.73800  0.58870  0.52850  1.0000 -0.029366352
C   C19       1.0  0.58870  0.26200  0.02850  1.0000 -0.029366352
C   C20       1.0  0.26200  0.41130  0.52850  1.0000 -0.029366352
C   C21       1.0  0.91130  0.76200  0.02850  1.0000 -0.029366352
C   C22       1.0  0.23800  0.91130  0.52850  1.0000 -0.029366352
C   C23       1.0  0.08870  0.23800  0.02850  1.0000 -0.029366352
C   C24       1.0  0.76200  0.08870  0.52850  1.0000 -0.029366352
C   C25       1.0  0.48200  0.73790  0.98810  1.0000 -0.0974227236
C   C26       1.0  0.73790  0.51800  0.48810  1.0000 -0.0974227236
C   C27       1.0  0.51800  0.26210  0.98810  1.0000 -0.0974227236
C   C28       1.0  0.26210  0.48200  0.48810  1.0000 -0.0974227236
C   C29       1.0  0.98200  0.76210  0.98810  1.0000 -0.0974227236
C   C30       1.0  0.23790  0.98200  0.48810  1.0000 -0.0974227236
C   C31       1.0  0.01800  0.23790  0.98810  1.0000 -0.0974227236
C   C32       1.0  0.76210  0.01800  0.48810  1.0000 -0.0974227236
C   C33       1.0  0.53760  0.75180  0.06100  1.0000 -0.029366352
C   C34       1.0  0.75180  0.46240  0.56100  1.0000 -0.029366352
C   C35       1.0  0.46240  0.24820  0.06100  1.0000 -0.029366352
C   C36       1.0  0.24820  0.53760  0.56100  1.0000 -0.029366352
C   C37       1.0  0.03760  0.74820  0.06100  1.0000 -0.029366352
C   C38       1.0  0.25180  0.03760  0.56100  1.0000 -0.029366352
C   C39       1.0  0.96240  0.25180  0.06100  1.0000 -0.029366352
C   C40       1.0  0.74820  0.96240  0.56100  1.0000 -0.029366352
C   C41       1.0  0.52450  0.76680  0.17710  1.0000 -0.0404821531
C   C42       1.0  0.76680  0.47550  0.67710  1.0000 -0.0404821531
C   C43       1.0  0.47550  0.23320  0.17710  1.0000 -0.0404821531
C   C44       1.0  0.23320  0.52450  0.67710  1.0000 -0.0404821531
C   C45       1.0  0.02450  0.73320  0.17710  1.0000 -0.0404821531
C   C46       1.0  0.26680  0.02450  0.67710  1.0000 -0.0404821531
C   C47       1.0  0.97550  0.26680  0.17710  1.0000 -0.0404821531
C   C48       1.0  0.73320  0.97550  0.67710  1.0000 -0.0404821531
C   C49       1.0  0.45300  0.76810  0.21290  1.0000 -0.1063370602
C   C50       1.0  0.76810  0.54700  0.71290  1.0000 -0.1063370602
C   C51       1.0  0.54700  0.23190  0.21290  1.0000 -0.1063370602
C   C52       1.0  0.23190  0.45300  0.71290  1.0000 -0.1063370602
C   C53       1.0  0.95300  0.73190  0.21290  1.0000 -0.1063370602
C   C54       1.0  0.26810  0.95300  0.71290  1.0000 -0.1063370602
C   C55       1.0  0.04700  0.26810  0.21290  1.0000 -0.1063370602
C   C56       1.0  0.73190  0.04700  0.71290  1.0000 -0.1063370602
C   C57       1.0  0.35520  0.71790  0.94230  1.0000 0.6113103135
C   C58       1.0  0.71790  0.64480  0.44230  1.0000 0.6113103135
C   C59       1.0  0.64480  0.28210  0.94230  1.0000 0.6113103135
C   C60       1.0  0.28210  0.35520  0.44230  1.0000 0.6113103135
C   C61       1.0  0.85520  0.78210  0.94230  1.0000 0.6113103135
C   C62       1.0  0.21790  0.85520  0.44230  1.0000 0.6113103135
C   C63       1.0  0.14480  0.21790  0.94230  1.0000 0.6113103135
C   C64       1.0  0.78210  0.14480  0.44230  1.0000 0.6113103135
C   C65       1.0  0.61060  0.74820  0.00750  1.0000 0.6113103135
C   C66       1.0  0.74820  0.38940  0.50750  1.0000 0.6113103135
C   C67       1.0  0.38940  0.25180  0.00750  1.0000 0.6113103135
C   C68       1.0  0.25180  0.61060  0.50750  1.0000 0.6113103135
C   C69       1.0  0.11060  0.75180  0.00750  1.0000 0.6113103135
C   C70       1.0  0.24820  0.11060  0.50750  1.0000 0.6113103135
C   C71       1.0  0.88940  0.24820  0.00750  1.0000 0.6113103135
C   C72       1.0  0.75180  0.88940  0.50750  1.0000 0.6113103135
C   C73       1.0  0.58010  0.77920  0.26670  1.0000 0.5786123677
C   C74       1.0  0.77920  0.41990  0.76670  1.0000 0.5786123677
C   C75       1.0  0.41990  0.22080  0.26670  1.0000 0.5786123677
C   C76       1.0  0.22080  0.58010  0.76670  1.0000 0.5786123677
C   C77       1.0  0.08010  0.72080  0.26670  1.0000 0.5786123677
C   C78       1.0  0.27920  0.08010  0.76670  1.0000 0.5786123677
C   C79       1.0  0.91990  0.27920  0.26670  1.0000 0.5786123677
C   C80       1.0  0.72080  0.91990  0.76670  1.0000 0.5786123677
O   O1        1.0  0.28510  0.81290  0.17320  1.0000 -0.5481258826
O   O2        1.0  0.81290  0.71490  0.67320  1.0000 -0.5481258826
O   O3        1.0  0.71490  0.18710  0.17320  1.0000 -0.5481258826
O   O4        1.0  0.18710  0.28510  0.67320  1.0000 -0.5481258826
O   O5        1.0  0.78510  0.68710  0.17320  1.0000 -0.5481258826
O   O6        1.0  0.31290  0.78510  0.67320  1.0000 -0.5481258826
O   O7        1.0  0.21490  0.31290  0.17320  1.0000 -0.5481258826
O   O8        1.0  0.68710  0.21490  0.67320  1.0000 -0.5481258826
O   O9        1.0  0.30480  0.70800  0.25960  1.0000 -0.5293932603
O   O10       1.0  0.70800  0.69520  0.75960  1.0000 -0.5293932603
O   O11       1.0  0.69520  0.29200  0.25960  1.0000 -0.5293932603
O   O12       1.0  0.29200  0.30480  0.75960  1.0000 -0.5293932603
O   O13       1.0  0.80480  0.79200  0.25960  1.0000 -0.5293932603
O   O14       1.0  0.20800  0.80480  0.75960  1.0000 -0.5293932603
O   O15       1.0  0.19520  0.20800  0.25960  1.0000 -0.5293932603
O   O16       1.0  0.79200  0.19520  0.75960  1.0000 -0.5293932603
O   O17       1.0  0.29100  0.72260  0.96880  1.0000 -0.4998432294
O   O18       1.0  0.72260  0.70900  0.46880  1.0000 -0.4998432294
O   O19       1.0  0.70900  0.27740  0.96880  1.0000 -0.4998432294
O   O20       1.0  0.27740  0.29100  0.46880  1.0000 -0.4998432294
O   O21       1.0  0.79100  0.77740  0.96880  1.0000 -0.4998432294
O   O22       1.0  0.22260  0.79100  0.46880  1.0000 -0.4998432294
O   O23       1.0  0.20900  0.22260  0.96880  1.0000 -0.4998432294
O   O24       1.0  0.77740  0.20900  0.46880  1.0000 -0.4998432294
O   O25       1.0  0.37740  0.69470  0.84690  1.0000 -0.6118040578
O   O26       1.0  0.69470  0.62260  0.34690  1.0000 -0.6118040578
O   O27       1.0  0.62260  0.30530  0.84690  1.0000 -0.6118040578
O   O28       1.0  0.30530  0.37740  0.34690  1.0000 -0.6118040578
O   O29       1.0  0.87740  0.80530  0.84690  1.0000 -0.6118040578
O   O30       1.0  0.19470  0.87740  0.34690  1.0000 -0.6118040578
O   O31       1.0  0.12260  0.19470  0.84690  1.0000 -0.6118040578
O   O32       1.0  0.80530  0.12260  0.34690  1.0000 -0.6118040578
O   O33       1.0  0.62050  0.79250  0.92700  1.0000 -0.4903493383
O   O34       1.0  0.79250  0.37950  0.42700  1.0000 -0.4903493383
O   O35       1.0  0.37950  0.20750  0.92700  1.0000 -0.4903493383
O   O36       1.0  0.20750  0.62050  0.42700  1.0000 -0.4903493383
O   O37       1.0  0.12050  0.70750  0.92700  1.0000 -0.4903493383
O   O38       1.0  0.29250  0.12050  0.42700  1.0000 -0.4903493383
O   O39       1.0  0.87950  0.29250  0.92700  1.0000 -0.4903493383
O   O40       1.0  0.70750  0.87950  0.42700  1.0000 -0.4903493383
O   O41       1.0  0.65460  0.69790  0.02870  1.0000 -0.5960179613
O   O42       1.0  0.69790  0.34540  0.52870  1.0000 -0.5960179613
O   O43       1.0  0.34540  0.30210  0.02870  1.0000 -0.5960179613
O   O44       1.0  0.30210  0.65460  0.52870  1.0000 -0.5960179613
O   O45       1.0  0.15460  0.80210  0.02870  1.0000 -0.5960179613
O   O46       1.0  0.19790  0.15460  0.52870  1.0000 -0.5960179613
O   O47       1.0  0.84540  0.19790  0.02870  1.0000 -0.5960179613
O   O48       1.0  0.80210  0.84540  0.52870  1.0000 -0.5960179613
O   O49       1.0  0.64560  0.76260  0.24020  1.0000 -0.6319103958
O   O50       1.0  0.76260  0.35440  0.74020  1.0000 -0.6319103958
O   O51       1.0  0.35440  0.23740  0.24020  1.0000 -0.6319103958
O   O52       1.0  0.23740  0.64560  0.74020  1.0000 -0.6319103958
O   O53       1.0  0.14560  0.73740  0.24020  1.0000 -0.6319103958
O   O54       1.0  0.26260  0.14560  0.74020  1.0000 -0.6319103958
O   O55       1.0  0.85440  0.26260  0.24020  1.0000 -0.6319103958
O   O56       1.0  0.73740  0.85440  0.74020  1.0000 -0.6319103958
O   O57       1.0  0.56460  0.80040  0.36120  1.0000 -0.4509566546
O   O58       1.0  0.80040  0.43540  0.86120  1.0000 -0.4509566546
O   O59       1.0  0.43540  0.19960  0.36120  1.0000 -0.4509566546
O   O60       1.0  0.19960  0.56460  0.86120  1.0000 -0.4509566546
O   O61       1.0  0.06460  0.69960  0.36120  1.0000 -0.4509566546
O   O62       1.0  0.30040  0.06460  0.86120  1.0000 -0.4509566546
O   O63       1.0  0.93540  0.30040  0.36120  1.0000 -0.4509566546
O   O64       1.0  0.69960  0.93540  0.86120  1.0000 -0.4509566546
