# DDEC6 charges by PACMAN v1.1 (https://github.com/mtap-research/PACMAN-charge/)
data_2008[Zn][pcu]3[ASR]2
_chemical_formula_sum              "Zn2 H30 C34 N4 O8"
_cell_length_a       8.473
_cell_length_b       10.154
_cell_length_c       13.397
_cell_angle_alpha    68.21
_cell_angle_beta     78.64
_cell_angle_gamma    77.46

_symmetry_space_group_name_H-M    "P 1"
_symmetry_Int_Tables_number       1

loop_
  _symmetry_equiv_pos_as_xyz
  'x, y, z'

loop_
  _atom_site_type_symbol
  _atom_site_label
  _atom_site_symmetry_multiplicity
  _atom_site_fract_x
  _atom_site_fract_y
  _atom_site_fract_z
  _atom_site_occupancy
  _atom_site_charge
Zn  Zn1       1.0  0.05663  0.56485  0.84178  1.0000 0.852451851
Zn  Zn2       1.0  0.94337  0.43515  0.15822  1.0000 0.852451851
H   H1        1.0  0.74480  0.74770  0.91750  1.0000 0.1203645844
H   H2        1.0  0.25520  0.25230  0.08250  1.0000 0.1203645844
H   H3        1.0  0.53850  0.77090  0.67630  1.0000 0.1395826364
H   H4        1.0  0.46150  0.22910  0.32370  1.0000 0.1395826364
H   H5        1.0  0.80700  0.62610  0.66940  1.0000 0.1395826364
H   H6        1.0  0.19300  0.37390  0.33060  1.0000 0.1395826364
H   H7        1.0  0.36120  0.81360  0.88550  1.0000 0.1203645844
H   H8        1.0  0.63880  0.18640  0.11450  1.0000 0.1203645844
H   H9        1.0  0.40200  0.95000  0.78910  1.0000 0.1092075097
H   H10       1.0  0.59800  0.05000  0.21090  1.0000 0.1092075097
H   H11       1.0  0.56690  0.08130  0.73040  1.0000 0.1203645844
H   H12       1.0  0.43310  0.91870  0.26960  1.0000 0.1203645844
H   H13       1.0  0.65550  0.18820  0.75020  1.0000 0.1395826364
H   H14       1.0  0.34450  0.81180  0.24980  1.0000 0.1395826364
H   H15       1.0  0.46750  0.22450  0.74380  1.0000 0.1395826364
H   H16       1.0  0.53250  0.77550  0.25620  1.0000 0.1395826364
H   H17       1.0  0.41370  0.67860  0.02700  1.0000 0.1281629478
H   H18       1.0  0.58630  0.32140  0.97300  1.0000 0.1281629478
H   H19       1.0  0.30770  0.71120  0.12760  1.0000 0.1395826364
H   H20       1.0  0.69230  0.28880  0.87240  1.0000 0.1395826364
H   H21       1.0  0.49350  0.64850  0.13100  1.0000 0.1468160649
H   H22       1.0  0.50650  0.35150  0.86900  1.0000 0.1468160649
H   H23       1.0  0.07640  0.96000  0.83670  1.0000 0.1203645844
H   H24       1.0  0.92360  0.04000  0.16330  1.0000 0.1203645844
H   H25       1.0  0.92960  0.81410  0.15720  1.0000 0.1395826364
H   H26       1.0  0.07040  0.18590  0.84280  1.0000 0.1395826364
H   H27       1.0  0.24770  0.46740  0.48110  1.0000 0.1281629478
H   H28       1.0  0.75230  0.53260  0.51890  1.0000 0.1281629478
H   H29       1.0  0.53420  0.54230  0.65110  1.0000 0.1092075097
H   H30       1.0  0.46580  0.45770  0.34890  1.0000 0.1092075097
C   C1        1.0  0.72650  0.73380  0.85620  1.0000 0.1092075097
C   C2        1.0  0.27350  0.26620  0.14380  1.0000 0.1092075097
C   C3        1.0  0.61280  0.74780  0.72520  1.0000 -0.0983418828
C   C4        1.0  0.38720  0.25220  0.27480  1.0000 -0.0983418828
C   C5        1.0  0.76150  0.66790  0.72180  1.0000 -0.0215463644
C   C6        1.0  0.23850  0.33210  0.27820  1.0000 -0.0215463644
C   C7        1.0  0.44340  0.87380  0.85040  1.0000 -0.1491053502
C   C8        1.0  0.55660  0.12620  0.14960  1.0000 -0.1491053502
C   C9        1.0  0.47700  0.93740  0.92895  1.0000 -0.0440414256
C   C10       1.0  0.52300  0.06260  0.07105  1.0000 -0.0440414256
C   C11       1.0  0.52410  0.07290  0.88778  1.0000 0.0592881894
C   C12       1.0  0.47590  0.92710  0.11222  1.0000 0.0592881894
C   C13       1.0  0.45440  0.86270  0.04040  1.0000 0.0592881894
C   C14       1.0  0.54560  0.13730  0.95960  1.0000 0.0592881894
C   C15       1.0  0.55650  0.14860  0.76710  1.0000 -0.443196396
C   C16       1.0  0.44350  0.85140  0.23290  1.0000 -0.443196396
C   C17       1.0  0.41350  0.71130  0.08570  1.0000 -0.4526809553
C   C18       1.0  0.58650  0.28870  0.91430  1.0000 -0.4526809553
C   C19       1.0  0.01350  0.71804  0.99246  1.0000 0.5611700019
C   C20       1.0  0.98650  0.28196  0.00754  1.0000 0.5611700019
C   C21       1.0  0.00610  0.86516  0.99596  1.0000 -0.0273205663
C   C22       1.0  0.99390  0.13484  0.00404  1.0000 -0.0273205663
C   C23       1.0  0.04630  0.97632  0.90227  1.0000 -0.1151510129
C   C24       1.0  0.95370  0.02368  0.09773  1.0000 -0.1151510129
C   C25       1.0  0.95820  0.88860  0.09445  1.0000 -0.0983418828
C   C26       1.0  0.04180  0.11140  0.90555  1.0000 -0.0983418828
C   C27       1.0  0.22780  0.51160  0.66656  1.0000 0.548537006
C   C28       1.0  0.77220  0.48840  0.33344  1.0000 0.548537006
C   C29       1.0  0.36850  0.50650  0.57965  1.0000 -0.0215463644
C   C30       1.0  0.63150  0.49350  0.42035  1.0000 -0.0215463644
C   C31       1.0  0.34910  0.48070  0.48900  1.0000 -0.1102979003
C   C32       1.0  0.65090  0.51930  0.51100  1.0000 -0.1102979003
C   C33       1.0  0.51990  0.52530  0.59011  1.0000 -0.1102979003
C   C34       1.0  0.48010  0.47470  0.40989  1.0000 -0.1102979003
N   N1        1.0  0.83430  0.65753  0.80511  1.0000 -0.2990496556
N   N2        1.0  0.16570  0.34247  0.19489  1.0000 -0.2990496556
N   N3        1.0  0.59170  0.78800  0.81237  1.0000 0.0592881894
N   N4        1.0  0.40830  0.21200  0.18763  1.0000 0.0592881894
O   O1        1.0  0.10287  0.68771  0.91435  1.0000 -0.5437901417
O   O2        1.0  0.89713  0.31229  0.08565  1.0000 -0.5437901417
O   O3        1.0  0.92659  0.63648  0.06617  1.0000 -0.5508578758
O   O4        1.0  0.07341  0.36352  0.93383  1.0000 -0.5508578758
O   O5        1.0  0.24455  0.57106  0.73216  1.0000 -0.5508578758
O   O6        1.0  0.75545  0.42894  0.26784  1.0000 -0.555779169
O   O7        1.0  0.10400  0.46161  0.67306  1.0000 -0.5508578758
O   O8        1.0  0.89600  0.53839  0.32694  1.0000 -0.5508578758
