# DDEC6 charges by PACMAN v1.1 (https://github.com/mtap-research/PACMAN-charge/)
data_2008[Cu][nan]3[ASR]1
_chemical_formula_sum              "Cu6 H4 C16 O20"
_cell_length_a       5.6437
_cell_length_b       12.8357
_cell_length_c       9.1507
_cell_angle_alpha    90
_cell_angle_beta     95.892
_cell_angle_gamma    90

_symmetry_space_group_name_H-M    "P 1"
_symmetry_Int_Tables_number       1

loop_
  _symmetry_equiv_pos_as_xyz
  'x, y, z'

loop_
  _atom_site_type_symbol
  _atom_site_label
  _atom_site_symmetry_multiplicity
  _atom_site_fract_x
  _atom_site_fract_y
  _atom_site_fract_z
  _atom_site_occupancy
  _atom_site_charge
Cu  Cu1       1.0  0.01236  0.11172  0.53936  1.0000 0.9016053003
Cu  Cu2       1.0  0.98764  0.61172  0.96064  1.0000 0.9016053003
Cu  Cu3       1.0  0.98764  0.88828  0.46064  1.0000 0.9016053003
Cu  Cu4       1.0  0.01236  0.38828  0.03936  1.0000 0.9016053003
Cu  Cu5       1.0  0.50000  0.50000  0.00000  1.0000 0.9174662155
Cu  Cu6       1.0  0.50000  0.00000  0.50000  1.0000 0.9174662155
H   H1        1.0  0.77700  0.46700  0.83900  1.0000 0.3917572048
H   H2        1.0  0.22300  0.96700  0.66100  1.0000 0.3917572048
H   H3        1.0  0.22300  0.53300  0.16100  1.0000 0.3917572048
H   H4        1.0  0.77700  0.03300  0.33900  1.0000 0.3917572048
C   C1        1.0  0.36670  0.21143  0.75860  1.0000 0.1738186848
C   C2        1.0  0.63330  0.71143  0.74140  1.0000 0.1738186848
C   C3        1.0  0.63330  0.78857  0.24140  1.0000 0.1738186848
C   C4        1.0  0.36670  0.28857  0.25860  1.0000 0.1738186848
C   C5        1.0  0.46000  0.29159  0.86050  1.0000 0.1544369977
C   C6        1.0  0.54000  0.79159  0.63950  1.0000 0.1544369977
C   C7        1.0  0.54000  0.70841  0.13950  1.0000 0.1544369977
C   C8        1.0  0.46000  0.20841  0.36050  1.0000 0.1544369977
C   C9        1.0  0.69390  0.24292  0.87480  1.0000 0.1614341509
C   C10       1.0  0.30610  0.74292  0.62520  1.0000 0.1614341509
C   C11       1.0  0.30610  0.75708  0.12520  1.0000 0.1614341509
C   C12       1.0  0.69390  0.25708  0.37480  1.0000 0.1614341509
C   C13       1.0  0.60510  0.16248  0.76740  1.0000 0.1872301918
C   C14       1.0  0.39490  0.66248  0.73260  1.0000 0.1872301918
C   C15       1.0  0.39490  0.83752  0.23260  1.0000 0.1872301918
C   C16       1.0  0.60510  0.33752  0.26740  1.0000 0.1872301918
O   O1        1.0  0.16350  0.19792  0.69460  1.0000 -0.3884977627
O   O2        1.0  0.83650  0.69792  0.80540  1.0000 -0.3884977627
O   O3        1.0  0.83650  0.80208  0.30540  1.0000 -0.3884977627
O   O4        1.0  0.16350  0.30208  0.19460  1.0000 -0.3884977627
O   O5        1.0  0.36200  0.37197  0.90940  1.0000 -0.449873403
O   O6        1.0  0.63800  0.87197  0.59060  1.0000 -0.449873403
O   O7        1.0  0.63800  0.62803  0.09060  1.0000 -0.449873403
O   O8        1.0  0.36200  0.12803  0.40940  1.0000 -0.449873403
O   O9        1.0  0.89160  0.25912  0.94790  1.0000 -0.395481624
O   O10       1.0  0.10840  0.75912  0.55210  1.0000 -0.395481624
O   O11       1.0  0.10840  0.74088  0.05210  1.0000 -0.395481624
O   O12       1.0  0.89160  0.24088  0.44790  1.0000 -0.395481624
O   O13       1.0  0.69520  0.08709  0.70690  1.0000 -0.4616431374
O   O14       1.0  0.30480  0.58709  0.79310  1.0000 -0.4616431374
O   O15       1.0  0.30480  0.91291  0.29310  1.0000 -0.4616431374
O   O16       1.0  0.69520  0.41291  0.20690  1.0000 -0.4616431374
O   O17       1.0  0.80590  0.48290  0.91582  1.0000 -0.7335197109
O   O18       1.0  0.19410  0.98290  0.58418  1.0000 -0.7335197109
O   O19       1.0  0.19410  0.51710  0.08418  1.0000 -0.7335197109
O   O20       1.0  0.80590  0.01710  0.41582  1.0000 -0.7335197109
