# DDEC6 charges by PACMAN v1.1 (https://github.com/mtap-research/PACMAN-charge/)
data_2008[Cd][nan]3[ASR]2
_chemical_formula_sum              "Cd8 H104 C120 N16 O32"
_cell_length_a       14.4979
_cell_length_b       15.4716
_cell_length_c       17.5125
_cell_angle_alpha    90
_cell_angle_beta     90
_cell_angle_gamma    90

_symmetry_space_group_name_H-M    "P 1"
_symmetry_Int_Tables_number       1

loop_
  _symmetry_equiv_pos_as_xyz
  'x, y, z'

loop_
  _atom_site_type_symbol
  _atom_site_label
  _atom_site_symmetry_multiplicity
  _atom_site_fract_x
  _atom_site_fract_y
  _atom_site_fract_z
  _atom_site_occupancy
  _atom_site_charge
Cd  Cd1       1.0  0.12786  0.22703  0.04072  1.0000 0.8309973029
Cd  Cd2       1.0  0.87214  0.72703  0.95928  1.0000 0.8309973029
Cd  Cd3       1.0  0.62786  0.22703  0.45928  1.0000 0.8309973029
Cd  Cd4       1.0  0.37214  0.72703  0.54072  1.0000 0.8309973029
Cd  Cd5       1.0  0.06998  0.77303  0.57585  1.0000 0.797709584
Cd  Cd6       1.0  0.93002  0.27303  0.42415  1.0000 0.797709584
Cd  Cd7       1.0  0.56998  0.77303  0.92415  1.0000 0.797709584
Cd  Cd8       1.0  0.43002  0.27303  0.07585  1.0000 0.797709584
H   H1        1.0  0.88080  0.36320  0.16480  1.0000 0.10901352
H   H2        1.0  0.11920  0.86320  0.83520  1.0000 0.10901352
H   H3        1.0  0.38080  0.36320  0.33520  1.0000 0.10901352
H   H4        1.0  0.61920  0.86320  0.66480  1.0000 0.10901352
H   H5        1.0  0.88750  0.43280  0.01450  1.0000 0.0913153574
H   H6        1.0  0.11250  0.93280  0.98550  1.0000 0.0913153574
H   H7        1.0  0.38750  0.43280  0.48550  1.0000 0.0913153574
H   H8        1.0  0.61250  0.93280  0.51450  1.0000 0.0913153574
H   H9        1.0  0.94220  0.47030  0.08440  1.0000 0.10901352
H   H10       1.0  0.05780  0.97030  0.91560  1.0000 0.0997417865
H   H11       1.0  0.44220  0.47030  0.41560  1.0000 0.0997417865
H   H12       1.0  0.55780  0.97030  0.58440  1.0000 0.10901352
H   H13       1.0  0.80610  0.50970  0.14420  1.0000 0.10901352
H   H14       1.0  0.19390  0.00970  0.85580  1.0000 0.10901352
H   H15       1.0  0.30610  0.50970  0.35580  1.0000 0.10901352
H   H16       1.0  0.69390  0.00970  0.64420  1.0000 0.10901352
H   H17       1.0  0.66200  0.49030  0.08930  1.0000 0.0997417865
H   H18       1.0  0.33800  0.99030  0.91070  1.0000 0.0997417865
H   H19       1.0  0.16200  0.49030  0.41070  1.0000 0.0997417865
H   H20       1.0  0.83800  0.99030  0.58930  1.0000 0.0997417865
H   H21       1.0  0.70610  0.44620  0.01740  1.0000 0.0997417865
H   H22       1.0  0.29390  0.94620  0.98260  1.0000 0.0997417865
H   H23       1.0  0.20610  0.44620  0.48260  1.0000 0.0997417865
H   H24       1.0  0.79390  0.94620  0.51740  1.0000 0.0997417865
H   H25       1.0  0.70980  0.37650  0.16680  1.0000 0.0997417865
H   H26       1.0  0.29020  0.87650  0.83320  1.0000 0.0997417865
H   H27       1.0  0.20980  0.37650  0.33320  1.0000 0.0997417865
H   H28       1.0  0.79020  0.87650  0.66680  1.0000 0.0997417865
H   H29       1.0  0.78690  0.29720  0.03580  1.0000 0.10901352
H   H30       1.0  0.21310  0.79720  0.96420  1.0000 0.10901352
H   H31       1.0  0.28690  0.29720  0.46420  1.0000 0.10901352
H   H32       1.0  0.71310  0.79720  0.53580  1.0000 0.10901352
H   H33       1.0  0.78470  0.25480  0.11720  1.0000 0.0913153574
H   H34       1.0  0.21530  0.75480  0.88280  1.0000 0.0913153574
H   H35       1.0  0.28470  0.25480  0.38280  1.0000 0.0913153574
H   H36       1.0  0.71530  0.75480  0.61720  1.0000 0.0913153574
H   H37       1.0  0.21660  0.37610  0.15230  1.0000 0.1195201077
H   H38       1.0  0.78340  0.87610  0.84770  1.0000 0.1195201077
H   H39       1.0  0.71660  0.37610  0.34770  1.0000 0.1195201077
H   H40       1.0  0.28340  0.87610  0.65230  1.0000 0.1195201077
H   H41       1.0  0.10900  0.25910  0.85670  1.0000 0.10901352
H   H42       1.0  0.89100  0.75910  0.14330  1.0000 0.10901352
H   H43       1.0  0.60900  0.25910  0.64330  1.0000 0.10901352
H   H44       1.0  0.39100  0.75910  0.35670  1.0000 0.10901352
H   H45       1.0  0.10100  0.36340  0.76430  1.0000 0.1297721737
H   H46       1.0  0.89900  0.86340  0.23570  1.0000 0.1297721737
H   H47       1.0  0.60100  0.36340  0.73570  1.0000 0.1297721737
H   H48       1.0  0.39900  0.86340  0.26430  1.0000 0.1297721737
H   H49       1.0  0.13890  0.54000  0.92720  1.0000 0.1468968092
H   H50       1.0  0.86110  0.04000  0.07280  1.0000 0.1468968092
H   H51       1.0  0.63890  0.54000  0.57280  1.0000 0.1468968092
H   H52       1.0  0.36110  0.04000  0.42720  1.0000 0.1468968092
H   H53       1.0  0.14580  0.42970  0.01490  1.0000 0.10901352
H   H54       1.0  0.85420  0.92970  0.98510  1.0000 0.10901352
H   H55       1.0  0.64580  0.42970  0.48510  1.0000 0.10901352
H   H56       1.0  0.35420  0.92970  0.51490  1.0000 0.10901352
H   H57       1.0  0.06280  0.73610  0.75390  1.0000 0.10901352
H   H58       1.0  0.93720  0.23610  0.24610  1.0000 0.10901352
H   H59       1.0  0.56280  0.73610  0.74610  1.0000 0.10901352
H   H60       1.0  0.43720  0.23610  0.25390  1.0000 0.10901352
H   H61       1.0  0.08140  0.63370  0.84760  1.0000 0.136994244
H   H62       1.0  0.91860  0.13370  0.15240  1.0000 0.136994244
H   H63       1.0  0.58140  0.63370  0.65240  1.0000 0.136994244
H   H64       1.0  0.41860  0.13370  0.34760  1.0000 0.136994244
H   H65       1.0  0.15320  0.46490  0.68360  1.0000 0.1297721737
H   H66       1.0  0.84680  0.96490  0.31640  1.0000 0.1297721737
H   H67       1.0  0.65320  0.46490  0.81640  1.0000 0.1297721737
H   H68       1.0  0.34680  0.96490  0.18360  1.0000 0.1297721737
H   H69       1.0  0.13690  0.57400  0.59780  1.0000 0.10901352
H   H70       1.0  0.86310  0.07400  0.40220  1.0000 0.10901352
H   H71       1.0  0.63690  0.57400  0.90220  1.0000 0.10901352
H   H72       1.0  0.36310  0.07400  0.09780  1.0000 0.10901352
H   H73       1.0  0.11740  0.02940  0.09810  1.0000 0.10901352
H   H74       1.0  0.88260  0.52940  0.90190  1.0000 0.10901352
H   H75       1.0  0.61740  0.02940  0.40190  1.0000 0.10901352
H   H76       1.0  0.38260  0.52940  0.59810  1.0000 0.10901352
H   H77       1.0  0.10900  0.94060  0.20240  1.0000 0.1297721737
H   H78       1.0  0.89100  0.44060  0.79760  1.0000 0.1297721737
H   H79       1.0  0.60900  0.94060  0.29760  1.0000 0.1297721737
H   H80       1.0  0.39100  0.44060  0.70240  1.0000 0.1297721737
H   H81       1.0  0.14850  0.14880  0.33450  1.0000 0.1297721737
H   H82       1.0  0.85150  0.64880  0.66550  1.0000 0.136994244
H   H83       1.0  0.64850  0.14880  0.16550  1.0000 0.1297721737
H   H84       1.0  0.35150  0.64880  0.83450  1.0000 0.136994244
H   H85       1.0  0.15470  0.23100  0.22610  1.0000 0.10901352
H   H86       1.0  0.84530  0.73100  0.77390  1.0000 0.10901352
H   H87       1.0  0.65470  0.23100  0.27390  1.0000 0.10901352
H   H88       1.0  0.34530  0.73100  0.72610  1.0000 0.10901352
H   H89       1.0  0.14490  0.78200  0.40540  1.0000 0.1195201077
H   H90       1.0  0.85510  0.28200  0.59460  1.0000 0.1195201077
H   H91       1.0  0.64490  0.78200  0.09460  1.0000 0.1195201077
H   H92       1.0  0.35510  0.28200  0.90540  1.0000 0.1195201077
H   H93       1.0  0.16340  0.86710  0.30120  1.0000 0.1297721737
H   H94       1.0  0.83660  0.36710  0.69880  1.0000 0.1297721737
H   H95       1.0  0.66340  0.86710  0.19880  1.0000 0.1297721737
H   H96       1.0  0.33660  0.36710  0.80120  1.0000 0.1297721737
H   H97       1.0  0.06940  0.06660  0.42490  1.0000 0.136994244
H   H98       1.0  0.93060  0.56660  0.57510  1.0000 0.136994244
H   H99       1.0  0.56940  0.06660  0.07510  1.0000 0.136994244
H   H100      1.0  0.43060  0.56660  0.92490  1.0000 0.136994244
H   H101      1.0  0.05450  0.97330  0.52560  1.0000 0.1195201077
H   H102      1.0  0.94550  0.47330  0.47440  1.0000 0.1195201077
H   H103      1.0  0.55450  0.97330  0.97440  1.0000 0.1195201077
H   H104      1.0  0.44550  0.47330  0.02560  1.0000 0.1195201077
C   C1        1.0  0.87950  0.35320  0.10960  1.0000 -0.1098639837
C   C2        1.0  0.12050  0.85320  0.89040  1.0000 -0.1098639837
C   C3        1.0  0.37950  0.35320  0.39040  1.0000 -0.1098639837
C   C4        1.0  0.62050  0.85320  0.60960  1.0000 -0.1098639837
C   C5        1.0  0.88550  0.44160  0.06930  1.0000 -0.2015763234
C   C6        1.0  0.11450  0.94160  0.93070  1.0000 -0.2015763234
C   C7        1.0  0.38550  0.44160  0.43070  1.0000 -0.2015763234
C   C8        1.0  0.61450  0.94160  0.56930  1.0000 -0.2015763234
C   C9        1.0  0.80390  0.49890  0.08910  1.0000 -0.1098639837
C   C10       1.0  0.19610  0.99890  0.91090  1.0000 -0.1098639837
C   C11       1.0  0.30390  0.49890  0.41090  1.0000 -0.1098639837
C   C12       1.0  0.69610  0.99890  0.58910  1.0000 -0.1098639837
C   C13       1.0  0.71250  0.45410  0.07210  1.0000 -0.2068671735
C   C14       1.0  0.28750  0.95410  0.92790  1.0000 -0.2068671735
C   C15       1.0  0.21250  0.45410  0.42790  1.0000 -0.2068671735
C   C16       1.0  0.78750  0.95410  0.57210  1.0000 -0.2068671735
C   C17       1.0  0.70670  0.36630  0.11170  1.0000 -0.1098639837
C   C18       1.0  0.29330  0.86630  0.88830  1.0000 -0.1098639837
C   C19       1.0  0.20670  0.36630  0.38830  1.0000 -0.1098639837
C   C20       1.0  0.79330  0.86630  0.61170  1.0000 -0.1098639837
C   C21       1.0  0.78880  0.30930  0.09010  1.0000 -0.2068671735
C   C22       1.0  0.21120  0.80930  0.90990  1.0000 -0.2068671735
C   C23       1.0  0.28880  0.30930  0.40990  1.0000 -0.2068671735
C   C24       1.0  0.71120  0.80930  0.59010  1.0000 -0.2068671735
C   C25       1.0  0.96420  0.30140  0.08850  1.0000 0.5575387029
C   C26       1.0  0.03580  0.80140  0.91150  1.0000 0.5575387029
C   C27       1.0  0.46420  0.30140  0.41150  1.0000 0.5575387029
C   C28       1.0  0.53580  0.80140  0.58850  1.0000 0.5575387029
C   C29       1.0  0.81400  0.58640  0.04890  1.0000 0.5342636852
C   C30       1.0  0.18600  0.08640  0.95110  1.0000 0.5342636852
C   C31       1.0  0.31400  0.58640  0.45110  1.0000 0.5342636852
C   C32       1.0  0.68600  0.08640  0.54890  1.0000 0.5342636852
C   C33       1.0  0.61440  0.32290  0.09480  1.0000 0.5342636852
C   C34       1.0  0.38560  0.82290  0.90520  1.0000 0.5342636852
C   C35       1.0  0.11440  0.32290  0.40520  1.0000 0.5342636852
C   C36       1.0  0.88560  0.82290  0.59480  1.0000 0.5342636852
C   C37       1.0  0.26960  0.34940  0.13380  1.0000 0.4369226841
C   C38       1.0  0.73040  0.84940  0.86620  1.0000 0.4369226841
C   C39       1.0  0.76960  0.34940  0.36620  1.0000 0.4369226841
C   C40       1.0  0.23040  0.84940  0.63380  1.0000 0.4369226841
C   C41       1.0  0.11510  0.31660  0.87130  1.0000 0.0913153574
C   C42       1.0  0.88490  0.81660  0.12870  1.0000 0.0913153574
C   C43       1.0  0.61510  0.31660  0.62870  1.0000 0.0913153574
C   C44       1.0  0.38490  0.81660  0.37130  1.0000 0.0913153574
C   C45       1.0  0.11040  0.37920  0.81490  1.0000 -0.2175998653
C   C46       1.0  0.88960  0.87920  0.18510  1.0000 -0.2175998653
C   C47       1.0  0.61040  0.37920  0.68510  1.0000 -0.2175998653
C   C48       1.0  0.38960  0.87920  0.31490  1.0000 -0.2175998653
C   C49       1.0  0.11970  0.46500  0.83450  1.0000 0.0997417865
C   C50       1.0  0.88030  0.96500  0.16550  1.0000 0.0997417865
C   C51       1.0  0.61970  0.46500  0.66550  1.0000 0.0997417865
C   C52       1.0  0.38030  0.96500  0.33450  1.0000 0.0997417865
C   C53       1.0  0.13270  0.48300  0.91100  1.0000 -0.1884881906
C   C54       1.0  0.86730  0.98300  0.08900  1.0000 -0.1884881906
C   C55       1.0  0.63270  0.48300  0.58900  1.0000 -0.1884881906
C   C56       1.0  0.36730  0.98300  0.41100  1.0000 -0.1884881906
C   C57       1.0  0.13660  0.41630  0.96360  1.0000 0.0717551725
C   C58       1.0  0.86340  0.91630  0.03640  1.0000 0.0717551725
C   C59       1.0  0.63660  0.41630  0.53640  1.0000 0.0717551725
C   C60       1.0  0.36340  0.91630  0.46360  1.0000 0.0717551725
C   C61       1.0  0.08140  0.68080  0.73990  1.0000 0.0799940748
C   C62       1.0  0.91860  0.18080  0.26010  1.0000 0.0799940748
C   C63       1.0  0.58140  0.68080  0.76010  1.0000 0.0799940748
C   C64       1.0  0.41860  0.18080  0.23990  1.0000 0.0799940748
C   C65       1.0  0.09100  0.61900  0.79670  1.0000 -0.1884881906
C   C66       1.0  0.90900  0.11900  0.20330  1.0000 -0.1884881906
C   C67       1.0  0.59100  0.61900  0.70330  1.0000 -0.1884881906
C   C68       1.0  0.40900  0.11900  0.29670  1.0000 -0.1884881906
C   C69       1.0  0.11510  0.53550  0.77700  1.0000 0.0997417865
C   C70       1.0  0.88490  0.03550  0.22300  1.0000 0.0997417865
C   C71       1.0  0.61510  0.53550  0.72300  1.0000 0.0997417865
C   C72       1.0  0.38490  0.03550  0.27700  1.0000 0.0997417865
C   C73       1.0  0.13420  0.51940  0.69970  1.0000 -0.2015763234
C   C74       1.0  0.86580  0.01940  0.30030  1.0000 -0.2015763234
C   C75       1.0  0.63420  0.51940  0.80030  1.0000 -0.2015763234
C   C76       1.0  0.36580  0.01940  0.19970  1.0000 -0.2015763234
C   C77       1.0  0.12410  0.58550  0.64880  1.0000 0.0605657136
C   C78       1.0  0.87590  0.08550  0.35120  1.0000 0.0605657136
C   C79       1.0  0.62410  0.58550  0.85120  1.0000 0.0605657136
C   C80       1.0  0.37590  0.08550  0.14880  1.0000 0.0605657136
C   C81       1.0  0.12350  0.05370  0.14640  1.0000 0.0717551725
C   C82       1.0  0.87650  0.55370  0.85360  1.0000 0.0717551725
C   C83       1.0  0.62350  0.05370  0.35360  1.0000 0.0717551725
C   C84       1.0  0.37650  0.55370  0.64640  1.0000 0.0717551725
C   C85       1.0  0.11810  0.99960  0.20900  1.0000 -0.2068671735
C   C86       1.0  0.88190  0.49960  0.79100  1.0000 -0.2068671735
C   C87       1.0  0.61810  0.99960  0.29100  1.0000 -0.2068671735
C   C88       1.0  0.38190  0.49960  0.70900  1.0000 -0.2068671735
C   C89       1.0  0.12650  0.03420  0.28210  1.0000 0.0997417865
C   C90       1.0  0.87350  0.53420  0.71790  1.0000 0.0997417865
C   C91       1.0  0.62650  0.03420  0.21790  1.0000 0.0997417865
C   C92       1.0  0.37350  0.53420  0.78210  1.0000 0.0997417865
C   C93       1.0  0.14140  0.12270  0.28710  1.0000 -0.1884881906
C   C94       1.0  0.85860  0.62270  0.71290  1.0000 -0.1884881906
C   C95       1.0  0.64140  0.12270  0.21290  1.0000 -0.1884881906
C   C96       1.0  0.35860  0.62270  0.78710  1.0000 -0.1884881906
C   C97       1.0  0.14550  0.17180  0.22130  1.0000 0.0799940748
C   C98       1.0  0.85450  0.67180  0.77870  1.0000 0.0799940748
C   C99       1.0  0.64550  0.17180  0.27870  1.0000 0.0799940748
C   C100      1.0  0.35450  0.67180  0.72130  1.0000 0.0799940748
C   C101      1.0  0.12840  0.84000  0.40880  1.0000 0.0605657136
C   C102      1.0  0.87160  0.34000  0.59120  1.0000 0.0605657136
C   C103      1.0  0.62840  0.84000  0.09120  1.0000 0.0605657136
C   C104      1.0  0.37160  0.34000  0.90880  1.0000 0.0605657136
C   C105      1.0  0.14020  0.89070  0.34620  1.0000 -0.2015763234
C   C106      1.0  0.85980  0.39070  0.65380  1.0000 -0.2015763234
C   C107      1.0  0.64020  0.89070  0.15380  1.0000 -0.2015763234
C   C108      1.0  0.35980  0.39070  0.84620  1.0000 -0.2015763234
C   C109      1.0  0.11780  0.97760  0.34940  1.0000 0.0997417865
C   C110      1.0  0.88220  0.47760  0.65060  1.0000 0.0997417865
C   C111      1.0  0.61780  0.97760  0.15060  1.0000 0.0997417865
C   C112      1.0  0.38220  0.47760  0.84940  1.0000 0.0997417865
C   C113      1.0  0.08480  0.00870  0.41910  1.0000 -0.2015763234
C   C114      1.0  0.91520  0.50870  0.58090  1.0000 -0.2015763234
C   C115      1.0  0.58480  0.00870  0.08090  1.0000 -0.2015763234
C   C116      1.0  0.41520  0.50870  0.91910  1.0000 -0.2015763234
C   C117      1.0  0.07540  0.95150  0.47920  1.0000 0.0997417865
C   C118      1.0  0.92460  0.45150  0.52080  1.0000 0.0997417865
C   C119      1.0  0.57540  0.95150  0.02080  1.0000 0.0997417865
C   C120      1.0  0.42460  0.45150  0.97920  1.0000 0.0997417865
N   N1        1.0  0.12750  0.33320  0.94360  1.0000 -0.2175998653
N   N2        1.0  0.87250  0.83320  0.05640  1.0000 -0.2175998653
N   N3        1.0  0.62750  0.33320  0.55640  1.0000 -0.2175998653
N   N4        1.0  0.37250  0.83320  0.44360  1.0000 -0.2175998653
N   N5        1.0  0.09720  0.66520  0.66650  1.0000 -0.2371635699
N   N6        1.0  0.90280  0.16520  0.33350  1.0000 -0.2371635699
N   N7        1.0  0.59720  0.66520  0.83350  1.0000 -0.2371635699
N   N8        1.0  0.40280  0.16520  0.16650  1.0000 -0.2371635699
N   N9        1.0  0.13700  0.13900  0.15120  1.0000 -0.2371635699
N   N10       1.0  0.86300  0.63900  0.84880  1.0000 -0.2371635699
N   N11       1.0  0.63700  0.13900  0.34880  1.0000 -0.2371635699
N   N12       1.0  0.36300  0.63900  0.65120  1.0000 -0.2371635699
N   N13       1.0  0.09400  0.86900  0.47550  1.0000 -0.2303405741
N   N14       1.0  0.90600  0.36900  0.52450  1.0000 -0.2303405741
N   N15       1.0  0.59400  0.86900  0.02450  1.0000 -0.2303405741
N   N16       1.0  0.40600  0.36900  0.97550  1.0000 -0.2303405741
O   O1        1.0  0.04060  0.32600  0.11453  1.0000 -0.5853553268
O   O2        1.0  0.95940  0.82600  0.88547  1.0000 -0.5853553268
O   O3        1.0  0.54060  0.32600  0.38547  1.0000 -0.5853553268
O   O4        1.0  0.45940  0.82600  0.61453  1.0000 -0.5853553268
O   O5        1.0  0.95780  0.23770  0.04490  1.0000 -0.5512312206
O   O6        1.0  0.04220  0.73770  0.95510  1.0000 -0.5512312206
O   O7        1.0  0.45780  0.23770  0.45510  1.0000 -0.5512312206
O   O8        1.0  0.54220  0.73770  0.54490  1.0000 -0.5512312206
O   O9        1.0  0.89160  0.61370  0.03570  1.0000 -0.5192719154
O   O10       1.0  0.10840  0.11370  0.96430  1.0000 -0.5192719154
O   O11       1.0  0.39160  0.61370  0.46430  1.0000 -0.5192719154
O   O12       1.0  0.60840  0.11370  0.53570  1.0000 -0.5192719154
O   O13       1.0  0.74610  0.62710  0.02580  1.0000 -0.5642377289
O   O14       1.0  0.25390  0.12710  0.97420  1.0000 -0.5642377289
O   O15       1.0  0.24610  0.62710  0.47420  1.0000 -0.5642377289
O   O16       1.0  0.75390  0.12710  0.52580  1.0000 -0.5642377289
O   O17       1.0  0.55030  0.33210  0.14050  1.0000 -0.5192719154
O   O18       1.0  0.44970  0.83210  0.85950  1.0000 -0.5192719154
O   O19       1.0  0.05030  0.33210  0.35950  1.0000 -0.5192719154
O   O20       1.0  0.94970  0.83210  0.64050  1.0000 -0.5192719154
O   O21       1.0  0.60230  0.28210  0.03620  1.0000 -0.5308441969
O   O22       1.0  0.39770  0.78210  0.96380  1.0000 -0.5308441969
O   O23       1.0  0.10230  0.28210  0.46380  1.0000 -0.5308441969
O   O24       1.0  0.89770  0.78210  0.53620  1.0000 -0.5308441969
O   O25       1.0  0.26040  0.28990  0.08599  1.0000 -0.5192719154
O   O26       1.0  0.73960  0.78990  0.91401  1.0000 -0.5192719154
O   O27       1.0  0.76040  0.28990  0.41401  1.0000 -0.5192719154
O   O28       1.0  0.23960  0.78990  0.58599  1.0000 -0.5192719154
O   O29       1.0  0.34430  0.37460  0.15760  1.0000 -0.4543077873
O   O30       1.0  0.65570  0.87460  0.84240  1.0000 -0.4543077873
O   O31       1.0  0.84430  0.37460  0.34240  1.0000 -0.4543077873
O   O32       1.0  0.15570  0.87460  0.65760  1.0000 -0.4543077873
