# DDEC6 charges by PACMAN v1.1 (https://github.com/mtap-research/PACMAN-charge/)
data_2008[ZnCo][sit]3[ASR]1
_chemical_formula_sum              "Zn8 Co4 H140 C236 N4 O52"
_cell_length_a       16.9892
_cell_length_b       20.6271
_cell_length_c       25.8309
_cell_angle_alpha    90
_cell_angle_beta     90
_cell_angle_gamma    90

_symmetry_space_group_name_H-M    "P 1"
_symmetry_Int_Tables_number       1

loop_
  _symmetry_equiv_pos_as_xyz
  'x, y, z'

loop_
  _atom_site_type_symbol
  _atom_site_label
  _atom_site_symmetry_multiplicity
  _atom_site_fract_x
  _atom_site_fract_y
  _atom_site_fract_z
  _atom_site_occupancy
  _atom_site_charge
Zn  Zn1       1.0  0.01532  0.33895  0.38147  1.0000 0.9514590961
Zn  Zn2       1.0  0.48468  0.66105  0.88147  1.0000 0.9514590961
Zn  Zn3       1.0  0.48468  0.83895  0.88147  1.0000 0.9514590961
Zn  Zn4       1.0  0.01532  0.16105  0.38147  1.0000 0.9514590961
Zn  Zn5       1.0  0.51532  0.16105  0.11853  1.0000 0.9514590961
Zn  Zn6       1.0  0.98468  0.83895  0.61853  1.0000 0.9514590961
Zn  Zn7       1.0  0.98468  0.66105  0.61853  1.0000 0.9514590961
Zn  Zn8       1.0  0.51532  0.33895  0.11853  1.0000 0.9514590961
Co  Co1       1.0  0.13153  0.25000  0.31134  1.0000 1.0111971212
Co  Co2       1.0  0.36847  0.75000  0.81134  1.0000 1.0111971212
Co  Co3       1.0  0.63153  0.25000  0.18866  1.0000 1.0111971212
Co  Co4       1.0  0.86847  0.75000  0.68866  1.0000 1.0111971212
H   H1        1.0  0.65830  0.98410  0.99630  1.0000 0.1284995828
H   H2        1.0  0.84170  0.01590  0.49630  1.0000 0.1284995828
H   H3        1.0  0.84170  0.48410  0.49630  1.0000 0.1284995828
H   H4        1.0  0.65830  0.51590  0.99630  1.0000 0.1284995828
H   H5        1.0  0.78010  0.99690  0.03310  1.0000 0.1129087818
H   H6        1.0  0.71990  0.00310  0.53310  1.0000 0.1129087818
H   H7        1.0  0.71990  0.49690  0.53310  1.0000 0.1129087818
H   H8        1.0  0.78010  0.50310  0.03310  1.0000 0.1129087818
H   H9        1.0  0.84610  0.82470  0.97420  1.0000 0.1199244042
H   H10       1.0  0.65390  0.17530  0.47420  1.0000 0.1199244042
H   H11       1.0  0.65390  0.32470  0.47420  1.0000 0.1199244042
H   H12       1.0  0.84610  0.67530  0.97420  1.0000 0.1199244042
H   H13       1.0  0.72410  0.81380  0.93680  1.0000 0.1199244042
H   H14       1.0  0.77590  0.18620  0.43680  1.0000 0.1199244042
H   H15       1.0  0.77590  0.31380  0.43680  1.0000 0.1199244042
H   H16       1.0  0.72410  0.68620  0.93680  1.0000 0.1199244042
H   H17       1.0  0.87630  0.96790  0.09450  1.0000 0.1199244042
H   H18       1.0  0.62370  0.03210  0.59450  1.0000 0.1199244042
H   H19       1.0  0.62370  0.46790  0.59450  1.0000 0.1199244042
H   H20       1.0  0.87630  0.53210  0.09450  1.0000 0.1199244042
H   H21       1.0  0.10960  0.95060  0.07850  1.0000 0.1199244042
H   H22       1.0  0.39040  0.04940  0.57850  1.0000 0.1199244042
H   H23       1.0  0.39040  0.45060  0.57850  1.0000 0.1199244042
H   H24       1.0  0.10960  0.54940  0.07850  1.0000 0.1199244042
H   H25       1.0  0.96590  0.87890  0.96980  1.0000 0.1129087818
H   H26       1.0  0.53410  0.12110  0.46980  1.0000 0.1129087818
H   H27       1.0  0.53410  0.37890  0.46980  1.0000 0.1129087818
H   H28       1.0  0.96590  0.62110  0.96980  1.0000 0.1129087818
H   H29       1.0  0.91650  0.97000  0.18520  1.0000 0.1199244042
H   H30       1.0  0.58350  0.03000  0.68520  1.0000 0.1199244042
H   H31       1.0  0.58350  0.47000  0.68520  1.0000 0.1199244042
H   H32       1.0  0.91650  0.53000  0.18520  1.0000 0.1199244042
H   H33       1.0  0.93660  0.03210  0.25650  1.0000 0.1284995828
H   H34       1.0  0.56340  0.96790  0.75650  1.0000 0.1284995828
H   H35       1.0  0.56340  0.53210  0.75650  1.0000 0.1284995828
H   H36       1.0  0.93660  0.46790  0.25650  1.0000 0.1284995828
H   H37       1.0  0.12230  0.11620  0.18700  1.0000 0.1199244042
H   H38       1.0  0.37770  0.88380  0.68700  1.0000 0.1199244042
H   H39       1.0  0.37770  0.61620  0.68700  1.0000 0.1199244042
H   H40       1.0  0.12230  0.38380  0.18700  1.0000 0.1199244042
H   H41       1.0  0.10470  0.05140  0.11640  1.0000 0.1199244042
H   H42       1.0  0.39530  0.94860  0.61640  1.0000 0.1199244042
H   H43       1.0  0.39530  0.55140  0.61640  1.0000 0.1199244042
H   H44       1.0  0.10470  0.44860  0.11640  1.0000 0.1199244042
H   H45       1.0  0.19160  0.87000  0.05040  1.0000 0.1284995828
H   H46       1.0  0.30840  0.13000  0.55040  1.0000 0.1284995828
H   H47       1.0  0.30840  0.37000  0.55040  1.0000 0.1284995828
H   H48       1.0  0.19160  0.63000  0.05040  1.0000 0.1284995828
H   H49       1.0  0.30280  0.84750  0.00350  1.0000 0.1397677717
H   H50       1.0  0.19720  0.15250  0.50350  1.0000 0.1397677717
H   H51       1.0  0.19720  0.34750  0.50350  1.0000 0.1397677717
H   H52       1.0  0.30280  0.65250  0.00350  1.0000 0.1397677717
H   H53       1.0  0.18140  0.86690  0.87220  1.0000 0.1284995828
H   H54       1.0  0.31860  0.13310  0.37220  1.0000 0.1284995828
H   H55       1.0  0.31860  0.36690  0.37220  1.0000 0.1284995828
H   H56       1.0  0.18140  0.63310  0.87220  1.0000 0.1284995828
H   H57       1.0  0.07080  0.89580  0.91850  1.0000 0.1129087818
H   H58       1.0  0.42920  0.10420  0.41850  1.0000 0.1129087818
H   H59       1.0  0.42920  0.39580  0.41850  1.0000 0.1129087818
H   H60       1.0  0.07080  0.60420  0.91850  1.0000 0.1129087818
H   H61       1.0  0.24050  0.15540  0.25480  1.0000 0.1129087818
H   H62       1.0  0.25950  0.84460  0.75480  1.0000 0.1129087818
H   H63       1.0  0.25950  0.65540  0.75480  1.0000 0.1129087818
H   H64       1.0  0.24050  0.34460  0.25480  1.0000 0.1129087818
H   H65       1.0  0.32140  0.15320  0.18340  1.0000 0.1397677717
H   H66       1.0  0.17860  0.84680  0.68340  1.0000 0.1397677717
H   H67       1.0  0.17860  0.65320  0.68340  1.0000 0.1397677717
H   H68       1.0  0.32140  0.34680  0.18340  1.0000 0.1397677717
H   H69       1.0  0.36000  0.25000  0.14620  1.0000 0.1397677717
H   H70       1.0  0.14000  0.75000  0.64620  1.0000 0.1397677717
H   H71       1.0  0.15830  0.51590  0.50370  1.0000 0.1284995828
H   H72       1.0  0.34170  0.48410  0.00370  1.0000 0.1284995828
H   H73       1.0  0.34170  0.01590  0.00370  1.0000 0.1284995828
H   H74       1.0  0.15830  0.98410  0.50370  1.0000 0.1284995828
H   H75       1.0  0.28010  0.50310  0.46690  1.0000 0.1129087818
H   H76       1.0  0.21990  0.49690  0.96690  1.0000 0.1129087818
H   H77       1.0  0.21990  0.00310  0.96690  1.0000 0.1129087818
H   H78       1.0  0.28010  0.99690  0.46690  1.0000 0.1129087818
H   H79       1.0  0.34610  0.67530  0.52580  1.0000 0.1199244042
H   H80       1.0  0.15390  0.32470  0.02580  1.0000 0.1199244042
H   H81       1.0  0.15390  0.17530  0.02580  1.0000 0.1199244042
H   H82       1.0  0.34610  0.82470  0.52580  1.0000 0.1199244042
H   H83       1.0  0.22410  0.68620  0.56320  1.0000 0.1199244042
H   H84       1.0  0.27590  0.31380  0.06320  1.0000 0.1199244042
H   H85       1.0  0.27590  0.18620  0.06320  1.0000 0.1199244042
H   H86       1.0  0.22410  0.81380  0.56320  1.0000 0.1199244042
H   H87       1.0  0.37630  0.53210  0.40550  1.0000 0.1199244042
H   H88       1.0  0.12370  0.46790  0.90550  1.0000 0.1199244042
H   H89       1.0  0.12370  0.03210  0.90550  1.0000 0.1199244042
H   H90       1.0  0.37630  0.96790  0.40550  1.0000 0.1199244042
H   H91       1.0  0.60960  0.54940  0.42150  1.0000 0.1199244042
H   H92       1.0  0.89040  0.45060  0.92150  1.0000 0.1199244042
H   H93       1.0  0.89040  0.04940  0.92150  1.0000 0.1199244042
H   H94       1.0  0.60960  0.95060  0.42150  1.0000 0.1199244042
H   H95       1.0  0.46590  0.62110  0.53020  1.0000 0.1129087818
H   H96       1.0  0.03410  0.37890  0.03020  1.0000 0.1129087818
H   H97       1.0  0.03410  0.12110  0.03020  1.0000 0.1129087818
H   H98       1.0  0.46590  0.87890  0.53020  1.0000 0.1129087818
H   H99       1.0  0.41650  0.53000  0.31480  1.0000 0.1199244042
H   H100      1.0  0.08350  0.47000  0.81480  1.0000 0.1199244042
H   H101      1.0  0.08350  0.03000  0.81480  1.0000 0.1199244042
H   H102      1.0  0.41650  0.97000  0.31480  1.0000 0.1199244042
H   H103      1.0  0.43660  0.46790  0.24350  1.0000 0.1284995828
H   H104      1.0  0.06340  0.53210  0.74350  1.0000 0.1284995828
H   H105      1.0  0.06340  0.96790  0.74350  1.0000 0.1284995828
H   H106      1.0  0.43660  0.03210  0.24350  1.0000 0.1284995828
H   H107      1.0  0.62230  0.38380  0.31300  1.0000 0.1199244042
H   H108      1.0  0.87770  0.61620  0.81300  1.0000 0.1199244042
H   H109      1.0  0.87770  0.88380  0.81300  1.0000 0.1199244042
H   H110      1.0  0.62230  0.11620  0.31300  1.0000 0.1199244042
H   H111      1.0  0.60470  0.44860  0.38360  1.0000 0.1199244042
H   H112      1.0  0.89530  0.55140  0.88360  1.0000 0.1199244042
H   H113      1.0  0.89530  0.94860  0.88360  1.0000 0.1199244042
H   H114      1.0  0.60470  0.05140  0.38360  1.0000 0.1199244042
H   H115      1.0  0.69160  0.63000  0.44960  1.0000 0.1284995828
H   H116      1.0  0.80840  0.37000  0.94960  1.0000 0.1284995828
H   H117      1.0  0.80840  0.13000  0.94960  1.0000 0.1284995828
H   H118      1.0  0.69160  0.87000  0.44960  1.0000 0.1284995828
H   H119      1.0  0.80280  0.65250  0.49650  1.0000 0.1397677717
H   H120      1.0  0.69720  0.34750  0.99650  1.0000 0.1397677717
H   H121      1.0  0.69720  0.15250  0.99650  1.0000 0.1397677717
H   H122      1.0  0.80280  0.84750  0.49650  1.0000 0.1397677717
H   H123      1.0  0.68140  0.63310  0.62780  1.0000 0.1284995828
H   H124      1.0  0.81860  0.36690  0.12780  1.0000 0.1284995828
H   H125      1.0  0.81860  0.13310  0.12780  1.0000 0.1284995828
H   H126      1.0  0.68140  0.86690  0.62780  1.0000 0.1284995828
H   H127      1.0  0.57080  0.60420  0.58150  1.0000 0.1129087818
H   H128      1.0  0.92920  0.39580  0.08150  1.0000 0.1129087818
H   H129      1.0  0.92920  0.10420  0.08150  1.0000 0.1129087818
H   H130      1.0  0.57080  0.89580  0.58150  1.0000 0.1129087818
H   H131      1.0  0.74050  0.34460  0.24520  1.0000 0.1129087818
H   H132      1.0  0.75950  0.65540  0.74520  1.0000 0.1129087818
H   H133      1.0  0.75950  0.84460  0.74520  1.0000 0.1129087818
H   H134      1.0  0.74050  0.15540  0.24520  1.0000 0.1129087818
H   H135      1.0  0.82140  0.34680  0.31660  1.0000 0.1397677717
H   H136      1.0  0.67860  0.65320  0.81660  1.0000 0.1397677717
H   H137      1.0  0.67860  0.84680  0.81660  1.0000 0.1397677717
H   H138      1.0  0.82140  0.15320  0.31660  1.0000 0.1397677717
H   H139      1.0  0.86000  0.25000  0.35380  1.0000 0.1397677717
H   H140      1.0  0.64000  0.75000  0.85380  1.0000 0.1397677717
C   C1        1.0  0.59950  0.89090  0.93760  1.0000 0.5543734145
C   C2        1.0  0.90050  0.10910  0.43760  1.0000 0.5543734145
C   C3        1.0  0.90050  0.39090  0.43760  1.0000 0.5543734145
C   C4        1.0  0.59950  0.60910  0.93760  1.0000 0.5543734145
C   C5        1.0  0.67790  0.89850  0.96298  1.0000 -0.0198470193
C   C6        1.0  0.82210  0.10150  0.46298  1.0000 -0.0198470193
C   C7        1.0  0.82210  0.39850  0.46298  1.0000 -0.0198470193
C   C8        1.0  0.67790  0.60150  0.96298  1.0000 -0.0198470193
C   C9        1.0  0.69620  0.95210  0.99160  1.0000 -0.084420337
C   C10       1.0  0.80380  0.04790  0.49160  1.0000 -0.084420337
C   C11       1.0  0.80380  0.45210  0.49160  1.0000 -0.084420337
C   C12       1.0  0.69620  0.54790  0.99160  1.0000 -0.084420337
C   C13       1.0  0.76930  0.96000  0.01378  1.0000 -0.1513974645
C   C14       1.0  0.73070  0.04000  0.51378  1.0000 -0.1513974645
C   C15       1.0  0.73070  0.46000  0.51378  1.0000 -0.1513974645
C   C16       1.0  0.76930  0.54000  0.01378  1.0000 -0.1513974645
C   C17       1.0  0.82770  0.91230  0.00735  1.0000 0.0783573744
C   C18       1.0  0.67230  0.08770  0.50735  1.0000 0.0783573744
C   C19       1.0  0.67230  0.41230  0.50735  1.0000 0.0783573744
C   C20       1.0  0.82770  0.58770  0.00735  1.0000 0.0783573744
C   C21       1.0  0.80880  0.85730  0.97853  1.0000 -0.1592228493
C   C22       1.0  0.69120  0.14270  0.47853  1.0000 -0.1592228493
C   C23       1.0  0.69120  0.35730  0.47853  1.0000 -0.1592228493
C   C24       1.0  0.80880  0.64270  0.97853  1.0000 -0.1592228493
C   C25       1.0  0.73550  0.85050  0.95633  1.0000 -0.0959461226
C   C26       1.0  0.76450  0.14950  0.45633  1.0000 -0.0959461226
C   C27       1.0  0.76450  0.35050  0.45633  1.0000 -0.0959461226
C   C28       1.0  0.73550  0.64950  0.95633  1.0000 -0.0959461226
C   C29       1.0  0.90810  0.92090  0.02925  1.0000 0.0783573744
C   C30       1.0  0.59190  0.07910  0.52925  1.0000 0.0783573744
C   C31       1.0  0.59190  0.42090  0.52925  1.0000 0.0783573744
C   C32       1.0  0.90810  0.57910  0.02925  1.0000 0.0783573744
C   C33       1.0  0.91970  0.95360  0.07570  1.0000 -0.1874684343
C   C34       1.0  0.58030  0.04640  0.57570  1.0000 -0.1874684343
C   C35       1.0  0.58030  0.45360  0.57570  1.0000 -0.1874684343
C   C36       1.0  0.91970  0.54640  0.07570  1.0000 -0.1874684343
C   C37       1.0  0.99500  0.96540  0.09440  1.0000 0.0783573744
C   C38       1.0  0.50500  0.03460  0.59440  1.0000 0.0783573744
C   C39       1.0  0.50500  0.46540  0.59440  1.0000 0.0783573744
C   C40       1.0  0.99500  0.53460  0.09440  1.0000 0.0783573744
C   C41       1.0  0.05910  0.94280  0.06620  1.0000 -0.1874684343
C   C42       1.0  0.44090  0.05720  0.56620  1.0000 -0.1874684343
C   C43       1.0  0.44090  0.44280  0.56620  1.0000 -0.1874684343
C   C44       1.0  0.05910  0.55720  0.06620  1.0000 -0.1874684343
C   C45       1.0  0.04950  0.90870  0.01994  1.0000 0.0783573744
C   C46       1.0  0.45050  0.09130  0.51994  1.0000 0.0783573744
C   C47       1.0  0.45050  0.40870  0.51994  1.0000 0.0783573744
C   C48       1.0  0.04950  0.59130  0.01994  1.0000 0.0783573744
C   C49       1.0  0.97340  0.89960  0.00137  1.0000 -0.1874684343
C   C50       1.0  0.52660  0.10040  0.50137  1.0000 -0.1874684343
C   C51       1.0  0.52660  0.39960  0.50137  1.0000 -0.1874684343
C   C52       1.0  0.97340  0.60040  0.00137  1.0000 -0.1874684343
C   C53       1.0  0.00820  0.00330  0.14230  1.0000 0.0714072988
C   C54       1.0  0.49180  0.99670  0.64230  1.0000 0.0714072988
C   C55       1.0  0.49180  0.50330  0.64230  1.0000 0.0714072988
C   C56       1.0  0.00820  0.49670  0.14230  1.0000 0.0714072988
C   C57       1.0  0.95830  0.99920  0.18564  1.0000 -0.1513974645
C   C58       1.0  0.54170  0.00080  0.68564  1.0000 -0.1513974645
C   C59       1.0  0.54170  0.49920  0.68564  1.0000 -0.1513974645
C   C60       1.0  0.95830  0.50080  0.18564  1.0000 -0.1513974645
C   C61       1.0  0.96970  0.03680  0.22813  1.0000 -0.0925041552
C   C62       1.0  0.53030  0.96320  0.72813  1.0000 -0.0925041552
C   C63       1.0  0.53030  0.53680  0.72813  1.0000 -0.0925041552
C   C64       1.0  0.96970  0.46320  0.22813  1.0000 -0.0925041552
C   C65       1.0  0.03040  0.08220  0.22980  1.0000 -0.0301828297
C   C66       1.0  0.46960  0.91780  0.72980  1.0000 -0.0301828297
C   C67       1.0  0.46960  0.58220  0.72980  1.0000 -0.0301828297
C   C68       1.0  0.03040  0.41780  0.22980  1.0000 -0.0301828297
C   C69       1.0  0.08100  0.08660  0.18660  1.0000 -0.0925041552
C   C70       1.0  0.41900  0.91340  0.68660  1.0000 -0.0925041552
C   C71       1.0  0.41900  0.58660  0.68660  1.0000 -0.0925041552
C   C72       1.0  0.08100  0.41340  0.18660  1.0000 -0.0925041552
C   C73       1.0  0.07030  0.04800  0.14434  1.0000 -0.1592228493
C   C74       1.0  0.42970  0.95200  0.64434  1.0000 -0.1592228493
C   C75       1.0  0.42970  0.54800  0.64434  1.0000 -0.1592228493
C   C76       1.0  0.07030  0.45200  0.14434  1.0000 -0.1592228493
C   C77       1.0  0.04210  0.12640  0.27483  1.0000 0.5938997718
C   C78       1.0  0.45790  0.87360  0.77483  1.0000 0.5950418723
C   C79       1.0  0.45790  0.62640  0.77483  1.0000 0.5938997718
C   C80       1.0  0.04210  0.37360  0.27483  1.0000 0.5938997718
C   C81       1.0  0.11880  0.88810  0.98997  1.0000 0.0783573744
C   C82       1.0  0.38120  0.11190  0.48997  1.0000 0.0783573744
C   C83       1.0  0.38120  0.38810  0.48997  1.0000 0.0783573744
C   C84       1.0  0.11880  0.61190  0.98997  1.0000 0.0783573744
C   C85       1.0  0.18950  0.87110  0.01448  1.0000 -0.1513974645
C   C86       1.0  0.31050  0.12890  0.51448  1.0000 -0.1513974645
C   C87       1.0  0.31050  0.37110  0.51448  1.0000 -0.1513974645
C   C88       1.0  0.18950  0.62890  0.01448  1.0000 -0.1513974645
C   C89       1.0  0.25580  0.85610  0.98637  1.0000 -0.0925041552
C   C90       1.0  0.24420  0.14390  0.48637  1.0000 -0.0925041552
C   C91       1.0  0.24420  0.35610  0.48637  1.0000 -0.0925041552
C   C92       1.0  0.25580  0.64390  0.98637  1.0000 -0.0925041552
C   C93       1.0  0.25300  0.85350  0.93298  1.0000 -0.0301828297
C   C94       1.0  0.24700  0.14650  0.43298  1.0000 -0.0301828297
C   C95       1.0  0.24700  0.35350  0.43298  1.0000 -0.0301828297
C   C96       1.0  0.25300  0.64650  0.93298  1.0000 -0.0301828297
C   C97       1.0  0.18360  0.86840  0.90812  1.0000 -0.0925041552
C   C98       1.0  0.31640  0.13160  0.40812  1.0000 -0.0925041552
C   C99       1.0  0.31640  0.36840  0.40812  1.0000 -0.0925041552
C   C100      1.0  0.18360  0.63160  0.90812  1.0000 -0.0925041552
C   C101      1.0  0.11710  0.88570  0.93597  1.0000 -0.1513974645
C   C102      1.0  0.38290  0.11430  0.43597  1.0000 -0.1513974645
C   C103      1.0  0.38290  0.38570  0.43597  1.0000 -0.1513974645
C   C104      1.0  0.11710  0.61430  0.93597  1.0000 -0.1513974645
C   C105      1.0  0.32440  0.83830  0.90200  1.0000 0.5938997718
C   C106      1.0  0.17560  0.16170  0.40200  1.0000 0.5938997718
C   C107      1.0  0.17560  0.33830  0.40200  1.0000 0.5938997718
C   C108      1.0  0.32440  0.66170  0.90200  1.0000 0.5938997718
C   C109      1.0  0.25560  0.19440  0.23955  1.0000 0.0868337325
C   C110      1.0  0.24440  0.80560  0.73955  1.0000 0.0868337325
C   C111      1.0  0.24440  0.69440  0.73955  1.0000 0.0868337325
C   C112      1.0  0.25560  0.30560  0.23955  1.0000 0.0868337325
C   C113      1.0  0.30470  0.19250  0.19706  1.0000 -0.1394703339
C   C114      1.0  0.19530  0.80750  0.69706  1.0000 -0.1394703339
C   C115      1.0  0.19530  0.69250  0.69706  1.0000 -0.1394703339
C   C116      1.0  0.30470  0.30750  0.19706  1.0000 -0.1394703339
C   C117      1.0  0.32820  0.25000  0.17540  1.0000 -0.0047887877
C   C118      1.0  0.17180  0.75000  0.67540  1.0000 -0.005396783
C   C119      1.0  0.09950  0.60910  0.56240  1.0000 0.5543734145
C   C120      1.0  0.40050  0.39090  0.06240  1.0000 0.5543734145
C   C121      1.0  0.40050  0.10910  0.06240  1.0000 0.5543734145
C   C122      1.0  0.09950  0.89090  0.56240  1.0000 0.5543734145
C   C123      1.0  0.17790  0.60150  0.53702  1.0000 -0.0198470193
C   C124      1.0  0.32210  0.39850  0.03702  1.0000 -0.0198470193
C   C125      1.0  0.32210  0.10150  0.03702  1.0000 -0.0198470193
C   C126      1.0  0.17790  0.89850  0.53702  1.0000 -0.0198470193
C   C127      1.0  0.19620  0.54790  0.50840  1.0000 -0.084420337
C   C128      1.0  0.30380  0.45210  0.00840  1.0000 -0.084420337
C   C129      1.0  0.30380  0.04790  0.00840  1.0000 -0.084420337
C   C130      1.0  0.19620  0.95210  0.50840  1.0000 -0.084420337
C   C131      1.0  0.26930  0.54000  0.48622  1.0000 -0.1513974645
C   C132      1.0  0.23070  0.46000  0.98622  1.0000 -0.1513974645
C   C133      1.0  0.23070  0.04000  0.98622  1.0000 -0.1513974645
C   C134      1.0  0.26930  0.96000  0.48622  1.0000 -0.1513974645
C   C135      1.0  0.32770  0.58770  0.49265  1.0000 0.0783573744
C   C136      1.0  0.17230  0.41230  0.99265  1.0000 0.0783573744
C   C137      1.0  0.17230  0.08770  0.99265  1.0000 0.0783573744
C   C138      1.0  0.32770  0.91230  0.49265  1.0000 0.0783573744
C   C139      1.0  0.30880  0.64270  0.52147  1.0000 -0.1592228493
C   C140      1.0  0.19120  0.35730  0.02147  1.0000 -0.1592228493
C   C141      1.0  0.19120  0.14270  0.02147  1.0000 -0.1592228493
C   C142      1.0  0.30880  0.85730  0.52147  1.0000 -0.1592228493
C   C143      1.0  0.23550  0.64950  0.54367  1.0000 -0.0959461226
C   C144      1.0  0.26450  0.35050  0.04367  1.0000 -0.0959461226
C   C145      1.0  0.26450  0.14950  0.04367  1.0000 -0.0959461226
C   C146      1.0  0.23550  0.85050  0.54367  1.0000 -0.0959461226
C   C147      1.0  0.40810  0.57910  0.47075  1.0000 0.0783573744
C   C148      1.0  0.09190  0.42090  0.97075  1.0000 0.0783573744
C   C149      1.0  0.09190  0.07910  0.97075  1.0000 0.0783573744
C   C150      1.0  0.40810  0.92090  0.47075  1.0000 0.0783573744
C   C151      1.0  0.41970  0.54640  0.42430  1.0000 -0.1874684343
C   C152      1.0  0.08030  0.45360  0.92430  1.0000 -0.1874684343
C   C153      1.0  0.08030  0.04640  0.92430  1.0000 -0.1874684343
C   C154      1.0  0.41970  0.95360  0.42430  1.0000 -0.1874684343
C   C155      1.0  0.49500  0.53460  0.40560  1.0000 0.0783573744
C   C156      1.0  0.00500  0.46540  0.90560  1.0000 0.0783573744
C   C157      1.0  0.00500  0.03460  0.90560  1.0000 0.0783573744
C   C158      1.0  0.49500  0.96540  0.40560  1.0000 0.0783573744
C   C159      1.0  0.55910  0.55720  0.43380  1.0000 -0.1874684343
C   C160      1.0  0.94090  0.44280  0.93380  1.0000 -0.1874684343
C   C161      1.0  0.94090  0.05720  0.93380  1.0000 -0.1874684343
C   C162      1.0  0.55910  0.94280  0.43380  1.0000 -0.1874684343
C   C163      1.0  0.54950  0.59130  0.48006  1.0000 0.0783573744
C   C164      1.0  0.95050  0.40870  0.98006  1.0000 0.0783573744
C   C165      1.0  0.95050  0.09130  0.98006  1.0000 0.0783573744
C   C166      1.0  0.54950  0.90870  0.48006  1.0000 0.0783573744
C   C167      1.0  0.47340  0.60040  0.49863  1.0000 -0.1874684343
C   C168      1.0  0.02660  0.39960  0.99863  1.0000 -0.1874684343
C   C169      1.0  0.02660  0.10040  0.99863  1.0000 -0.1874684343
C   C170      1.0  0.47340  0.89960  0.49863  1.0000 -0.1874684343
C   C171      1.0  0.50820  0.49670  0.35770  1.0000 0.0714072988
C   C172      1.0  0.99180  0.50330  0.85770  1.0000 0.0714072988
C   C173      1.0  0.99180  0.99670  0.85770  1.0000 0.0714072988
C   C174      1.0  0.50820  0.00330  0.35770  1.0000 0.0714072988
C   C175      1.0  0.45830  0.50080  0.31436  1.0000 -0.1513974645
C   C176      1.0  0.04170  0.49920  0.81436  1.0000 -0.1513974645
C   C177      1.0  0.04170  0.00080  0.81436  1.0000 -0.1513974645
C   C178      1.0  0.45830  0.99920  0.31436  1.0000 -0.1513974645
C   C179      1.0  0.46970  0.46320  0.27187  1.0000 -0.0925041552
C   C180      1.0  0.03030  0.53680  0.77187  1.0000 -0.0925041552
C   C181      1.0  0.03030  0.96320  0.77187  1.0000 -0.0925041552
C   C182      1.0  0.46970  0.03680  0.27187  1.0000 -0.0925041552
C   C183      1.0  0.53040  0.41780  0.27020  1.0000 -0.0301828297
C   C184      1.0  0.96960  0.58220  0.77020  1.0000 -0.0301828297
C   C185      1.0  0.96960  0.91780  0.77020  1.0000 -0.0301828297
C   C186      1.0  0.53040  0.08220  0.27020  1.0000 -0.0301828297
C   C187      1.0  0.58100  0.41340  0.31340  1.0000 -0.0925041552
C   C188      1.0  0.91900  0.58660  0.81340  1.0000 -0.0925041552
C   C189      1.0  0.91900  0.91340  0.81340  1.0000 -0.0925041552
C   C190      1.0  0.58100  0.08660  0.31340  1.0000 -0.0925041552
C   C191      1.0  0.57030  0.45200  0.35566  1.0000 -0.1592228493
C   C192      1.0  0.92970  0.54800  0.85566  1.0000 -0.1592228493
C   C193      1.0  0.92970  0.95200  0.85566  1.0000 -0.1592228493
C   C194      1.0  0.57030  0.04800  0.35566  1.0000 -0.1592228493
C   C195      1.0  0.54210  0.37360  0.22517  1.0000 0.5938997718
C   C196      1.0  0.95790  0.62640  0.72517  1.0000 0.5938997718
C   C197      1.0  0.95790  0.87360  0.72517  1.0000 0.5938997718
C   C198      1.0  0.54210  0.12640  0.22517  1.0000 0.5938997718
C   C199      1.0  0.61880  0.61190  0.51003  1.0000 0.0783573744
C   C200      1.0  0.88120  0.38810  0.01003  1.0000 0.0783573744
C   C201      1.0  0.88120  0.11190  0.01003  1.0000 0.0783573744
C   C202      1.0  0.61880  0.88810  0.51003  1.0000 0.0783573744
C   C203      1.0  0.68950  0.62890  0.48552  1.0000 -0.1513974645
C   C204      1.0  0.81050  0.37110  0.98552  1.0000 -0.1513974645
C   C205      1.0  0.81050  0.12890  0.98552  1.0000 -0.1513974645
C   C206      1.0  0.68950  0.87110  0.48552  1.0000 -0.1513974645
C   C207      1.0  0.75580  0.64390  0.51363  1.0000 -0.0925041552
C   C208      1.0  0.74420  0.35610  0.01363  1.0000 -0.0925041552
C   C209      1.0  0.74420  0.14390  0.01363  1.0000 -0.0925041552
C   C210      1.0  0.75580  0.85610  0.51363  1.0000 -0.0925041552
C   C211      1.0  0.75300  0.64650  0.56702  1.0000 -0.0301828297
C   C212      1.0  0.74700  0.35350  0.06702  1.0000 -0.0301828297
C   C213      1.0  0.74700  0.14650  0.06702  1.0000 -0.0301828297
C   C214      1.0  0.75300  0.85350  0.56702  1.0000 -0.0301828297
C   C215      1.0  0.68360  0.63160  0.59188  1.0000 -0.0925041552
C   C216      1.0  0.81640  0.36840  0.09188  1.0000 -0.0925041552
C   C217      1.0  0.81640  0.13160  0.09188  1.0000 -0.0925041552
C   C218      1.0  0.68360  0.86840  0.59188  1.0000 -0.0925041552
C   C219      1.0  0.61710  0.61430  0.56403  1.0000 -0.1513974645
C   C220      1.0  0.88290  0.38570  0.06403  1.0000 -0.1513974645
C   C221      1.0  0.88290  0.11430  0.06403  1.0000 -0.1513974645
C   C222      1.0  0.61710  0.88570  0.56403  1.0000 -0.1513974645
C   C223      1.0  0.82440  0.66170  0.59800  1.0000 0.5938997718
C   C224      1.0  0.67560  0.33830  0.09800  1.0000 0.5938997718
C   C225      1.0  0.67560  0.16170  0.09800  1.0000 0.5938997718
C   C226      1.0  0.82440  0.83830  0.59800  1.0000 0.5938997718
C   C227      1.0  0.75560  0.30560  0.26045  1.0000 0.0868337325
C   C228      1.0  0.74440  0.69440  0.76045  1.0000 0.0868337325
C   C229      1.0  0.74440  0.80560  0.76045  1.0000 0.0868337325
C   C230      1.0  0.75560  0.19440  0.26045  1.0000 0.0868337325
C   C231      1.0  0.80470  0.30750  0.30294  1.0000 -0.1394703339
C   C232      1.0  0.69530  0.69250  0.80294  1.0000 -0.1394703339
C   C233      1.0  0.69530  0.80750  0.80294  1.0000 -0.1394703339
C   C234      1.0  0.80470  0.19250  0.30294  1.0000 -0.1394703339
C   C235      1.0  0.82820  0.25000  0.32460  1.0000 -0.005396783
C   C236      1.0  0.67180  0.75000  0.82460  1.0000 -0.005396783
N   N1        1.0  0.22890  0.25000  0.25976  1.0000 -0.2268274377
N   N2        1.0  0.27110  0.75000  0.75976  1.0000 -0.2268274377
N   N3        1.0  0.72890  0.25000  0.24024  1.0000 -0.2268274377
N   N4        1.0  0.77110  0.75000  0.74024  1.0000 -0.2268274377
O   O1        1.0  0.02221  0.25000  0.35115  1.0000 -0.7680281388
O   O2        1.0  0.47779  0.75000  0.85115  1.0000 -0.7680281388
O   O3        1.0  0.58761  0.83813  0.91360  1.0000 -0.5196412938
O   O4        1.0  0.91239  0.16187  0.41360  1.0000 -0.5196412938
O   O5        1.0  0.91239  0.33813  0.41360  1.0000 -0.5196412938
O   O6        1.0  0.58761  0.66187  0.91360  1.0000 -0.5196412938
O   O7        1.0  0.54884  0.93403  0.93988  1.0000 -0.4924435603
O   O8        1.0  0.95116  0.06597  0.43988  1.0000 -0.4924435603
O   O9        1.0  0.95116  0.43403  0.43988  1.0000 -0.4924435603
O   O10       1.0  0.54884  0.56597  0.93988  1.0000 -0.4924435603
O   O11       1.0  0.01171  0.11007  0.31733  1.0000 -0.5196412938
O   O12       1.0  0.48829  0.88993  0.81733  1.0000 -0.5196412938
O   O13       1.0  0.48829  0.61007  0.81733  1.0000 -0.5196412938
O   O14       1.0  0.01171  0.38993  0.31733  1.0000 -0.5196412938
O   O15       1.0  0.08176  0.17772  0.26591  1.0000 -0.5445320594
O   O16       1.0  0.41824  0.82228  0.76591  1.0000 -0.5445320594
O   O17       1.0  0.41824  0.67772  0.76591  1.0000 -0.5445320594
O   O18       1.0  0.08176  0.32228  0.26591  1.0000 -0.5445320594
O   O19       1.0  0.39131  0.84363  0.92449  1.0000 -0.5108180332
O   O20       1.0  0.10869  0.15637  0.42449  1.0000 -0.5108180332
O   O21       1.0  0.10869  0.34363  0.42449  1.0000 -0.5108180332
O   O22       1.0  0.39131  0.65637  0.92449  1.0000 -0.5108180332
O   O23       1.0  0.31611  0.82103  0.85596  1.0000 -0.5598903286
O   O24       1.0  0.18389  0.17897  0.35596  1.0000 -0.5598903286
O   O25       1.0  0.18389  0.32103  0.35596  1.0000 -0.5598903286
O   O26       1.0  0.31611  0.67897  0.85596  1.0000 -0.5598903286
O   O27       1.0  0.52221  0.25000  0.14885  1.0000 -0.7643973517
O   O28       1.0  0.97779  0.75000  0.64885  1.0000 -0.7643973517
O   O29       1.0  0.08761  0.66187  0.58640  1.0000 -0.5196412938
O   O30       1.0  0.41239  0.33813  0.08640  1.0000 -0.5196412938
O   O31       1.0  0.41239  0.16187  0.08640  1.0000 -0.5196412938
O   O32       1.0  0.08761  0.83813  0.58640  1.0000 -0.5196412938
O   O33       1.0  0.04884  0.56597  0.56012  1.0000 -0.4950615453
O   O34       1.0  0.45116  0.43403  0.06012  1.0000 -0.4950615453
O   O35       1.0  0.45116  0.06597  0.06012  1.0000 -0.4950615453
O   O36       1.0  0.04884  0.93403  0.56012  1.0000 -0.4950615453
O   O37       1.0  0.51171  0.38993  0.18267  1.0000 -0.5196412938
O   O38       1.0  0.98829  0.61007  0.68267  1.0000 -0.5196412938
O   O39       1.0  0.98829  0.88993  0.68267  1.0000 -0.5196412938
O   O40       1.0  0.51171  0.11007  0.18267  1.0000 -0.5196412938
O   O41       1.0  0.58176  0.32228  0.23409  1.0000 -0.5445320594
O   O42       1.0  0.91824  0.67772  0.73409  1.0000 -0.5445320594
O   O43       1.0  0.91824  0.82228  0.73409  1.0000 -0.5445320594
O   O44       1.0  0.58176  0.17772  0.23409  1.0000 -0.5445320594
O   O45       1.0  0.89131  0.65637  0.57551  1.0000 -0.5108180332
O   O46       1.0  0.60869  0.34363  0.07551  1.0000 -0.5108180332
O   O47       1.0  0.60869  0.15637  0.07551  1.0000 -0.5108180332
O   O48       1.0  0.89131  0.84363  0.57551  1.0000 -0.5108180332
O   O49       1.0  0.81611  0.67897  0.64404  1.0000 -0.5598903286
O   O50       1.0  0.68389  0.32103  0.14404  1.0000 -0.5598903286
O   O51       1.0  0.68389  0.17897  0.14404  1.0000 -0.5598903286
O   O52       1.0  0.81611  0.82103  0.64404  1.0000 -0.5598903286
