# DDEC6 charges by PACMAN v1.1 (https://github.com/mtap-research/PACMAN-charge/)
data_2008[Cd][ths]3[ASR]1
_chemical_formula_sum              "Cd8 H16 C16 O24"
_cell_length_a       8.4149
_cell_length_b       9.813
_cell_length_c       21.028
_cell_angle_alpha    90
_cell_angle_beta     90
_cell_angle_gamma    90

_symmetry_space_group_name_H-M    "P 1"
_symmetry_Int_Tables_number       1

loop_
  _symmetry_equiv_pos_as_xyz
  'x, y, z'

loop_
  _atom_site_type_symbol
  _atom_site_label
  _atom_site_symmetry_multiplicity
  _atom_site_fract_x
  _atom_site_fract_y
  _atom_site_fract_z
  _atom_site_occupancy
  _atom_site_charge
Cd  Cd1       1.0  0.50401  0.89229  0.21698  1.0000 1.009720148
Cd  Cd2       1.0  0.99599  0.10771  0.71698  1.0000 1.0044804626
Cd  Cd3       1.0  0.49599  0.39229  0.28302  1.0000 1.009720148
Cd  Cd4       1.0  0.00401  0.60771  0.78302  1.0000 1.0044804626
Cd  Cd5       1.0  0.69428  0.33729  0.02274  1.0000 1.009720148
Cd  Cd6       1.0  0.80572  0.66271  0.52274  1.0000 1.0236185604
Cd  Cd7       1.0  0.30572  0.83729  0.47726  1.0000 1.0236185604
Cd  Cd8       1.0  0.19428  0.16271  0.97726  1.0000 1.0236185604
H   H1        1.0  0.21710  0.49640  0.15390  1.0000 0.0405306388
H   H2        1.0  0.28290  0.50360  0.65390  1.0000 0.0405306388
H   H3        1.0  0.78290  0.99640  0.34610  1.0000 0.0405306388
H   H4        1.0  0.71710  0.00360  0.84610  1.0000 0.0405306388
H   H5        1.0  0.33630  0.58470  0.06250  1.0000 0.0405306388
H   H6        1.0  0.16370  0.41530  0.56250  1.0000 0.0405306388
H   H7        1.0  0.66370  0.08470  0.43750  1.0000 0.0405306388
H   H8        1.0  0.83630  0.91530  0.93750  1.0000 0.0405306388
H   H9        1.0  0.56400  0.59370  0.08300  1.0000 0.299902346
H   H10       1.0  0.93600  0.40630  0.58300  1.0000 0.299902346
H   H11       1.0  0.43600  0.09370  0.41700  1.0000 0.299902346
H   H12       1.0  0.06400  0.90630  0.91700  1.0000 0.299902346
H   H13       1.0  0.31000  0.32600  0.18990  1.0000 0.2706639581
H   H14       1.0  0.19000  0.67400  0.68990  1.0000 0.2706639581
H   H15       1.0  0.69000  0.82600  0.31010  1.0000 0.2706639581
H   H16       1.0  0.81000  0.17400  0.81010  1.0000 0.2706639581
C   C1        1.0  0.40110  0.61690  0.18706  1.0000 0.5337582045
C   C2        1.0  0.09890  0.38310  0.68706  1.0000 0.5337582045
C   C3        1.0  0.59890  0.11690  0.31294  1.0000 0.5337582045
C   C4        1.0  0.90110  0.88310  0.81294  1.0000 0.5337582045
C   C5        1.0  0.33333  0.49360  0.15143  1.0000 -0.0599134964
C   C6        1.0  0.16667  0.50640  0.65143  1.0000 -0.0599134964
C   C7        1.0  0.66667  0.99360  0.34857  1.0000 -0.0599134964
C   C8        1.0  0.83333  0.00640  0.84857  1.0000 -0.0599134964
C   C9        1.0  0.38370  0.50280  0.08128  1.0000 -0.0544768963
C   C10       1.0  0.11630  0.49720  0.58128  1.0000 -0.0544768963
C   C11       1.0  0.61630  0.00280  0.41872  1.0000 -0.0544768963
C   C12       1.0  0.88370  0.99720  0.91872  1.0000 -0.0544768963
C   C13       1.0  0.32610  0.37850  0.04452  1.0000 0.5169418567
C   C14       1.0  0.17390  0.62150  0.54452  1.0000 0.5169418567
C   C15       1.0  0.67390  0.87850  0.45548  1.0000 0.5169418567
C   C16       1.0  0.82610  0.12150  0.95548  1.0000 0.5169418567
O   O1        1.0  0.39760  0.72753  0.15772  1.0000 -0.6454053707
O   O2        1.0  0.10240  0.27247  0.65772  1.0000 -0.6440814919
O   O3        1.0  0.60240  0.22753  0.34228  1.0000 -0.6440814919
O   O4        1.0  0.89760  0.77247  0.84228  1.0000 -0.6440814919
O   O5        1.0  0.45430  0.60310  0.24221  1.0000 -0.6652429886
O   O6        1.0  0.04570  0.39690  0.74221  1.0000 -0.6652429886
O   O7        1.0  0.54570  0.10310  0.25779  1.0000 -0.6652429886
O   O8        1.0  0.95430  0.89690  0.75779  1.0000 -0.661987204
O   O9        1.0  0.38730  0.36930  0.17809  1.0000 -0.5104591585
O   O10       1.0  0.11270  0.63070  0.67809  1.0000 -0.5104591585
O   O11       1.0  0.61270  0.86930  0.32191  1.0000 -0.5104591585
O   O12       1.0  0.88730  0.13070  0.82191  1.0000 -0.5104591585
O   O13       1.0  0.55150  0.51207  0.07642  1.0000 -0.5665977485
O   O14       1.0  0.94850  0.48793  0.57642  1.0000 -0.5665977485
O   O15       1.0  0.44850  0.01207  0.42358  1.0000 -0.5665977485
O   O16       1.0  0.05150  0.98793  0.92358  1.0000 -0.5665977485
O   O17       1.0  0.42190  0.30145  0.01693  1.0000 -0.6171382703
O   O18       1.0  0.07810  0.69855  0.51693  1.0000 -0.6171382703
O   O19       1.0  0.57810  0.80145  0.48307  1.0000 -0.6171382703
O   O20       1.0  0.92190  0.19855  0.98307  1.0000 -0.6171382703
O   O21       1.0  0.17870  0.35690  0.04337  1.0000 -0.6121448315
O   O22       1.0  0.32130  0.64310  0.54337  1.0000 -0.6121448315
O   O23       1.0  0.82130  0.85690  0.45663  1.0000 -0.6121448315
O   O24       1.0  0.67870  0.14310  0.95663  1.0000 -0.6121448315
