# DDEC6 charges by PACMAN v1.1 (https://github.com/mtap-research/PACMAN-charge/)
data_2008[Pr][nan]3[ASR]1
_chemical_formula_sum              "Pr4 H8 C20 O24"
_cell_length_a       15.9489
_cell_length_b       14.773
_cell_length_c       9.14322
_cell_angle_alpha    79.8784
_cell_angle_beta     65.7636
_cell_angle_gamma    34.358

_symmetry_space_group_name_H-M    "P 1"
_symmetry_Int_Tables_number       1

loop_
  _symmetry_equiv_pos_as_xyz
  'x, y, z'

loop_
  _atom_site_type_symbol
  _atom_site_label
  _atom_site_symmetry_multiplicity
  _atom_site_fract_x
  _atom_site_fract_y
  _atom_site_fract_z
  _atom_site_occupancy
  _atom_site_charge
Pr  Pr1       1.0  0.88419  0.88419  0.11581  1.0000 2.0856886307
Pr  Pr2       1.0  0.11581  0.11581  0.88419  1.0000 2.0856886307
Pr  Pr3       1.0  0.36581  0.36581  0.13419  1.0000 2.0856886307
Pr  Pr4       1.0  0.13419  0.13419  0.36581  1.0000 2.0856886307
H   H1        1.0  0.93700  0.74300  0.75700  1.0000 0.1331869052
H   H2        1.0  0.56300  0.75700  0.74300  1.0000 0.1331869052
H   H3        1.0  0.75700  0.56300  0.93700  1.0000 0.1331869052
H   H4        1.0  0.74300  0.93700  0.56300  1.0000 0.1331869052
H   H5        1.0  0.31300  0.50700  0.49300  1.0000 0.1331869052
H   H6        1.0  0.68700  0.49300  0.50700  1.0000 0.1331869052
H   H7        1.0  0.49300  0.68700  0.31300  1.0000 0.1331869052
H   H8        1.0  0.50700  0.31300  0.68700  1.0000 0.1331869052
C   C1        1.0  0.94950  0.05050  0.94950  1.0000 0.5138830343
C   C2        1.0  0.05050  0.94950  0.05050  1.0000 0.5138830343
C   C3        1.0  0.30050  0.19950  0.30050  1.0000 0.5138830343
C   C4        1.0  0.19950  0.30050  0.19950  1.0000 0.5138830343
C   C5        1.0  0.68539  0.00619  0.87601  1.0000 0.6631635078
C   C6        1.0  0.43241  0.87601  0.00619  1.0000 0.6631635078
C   C7        1.0  0.87601  0.43241  0.68539  1.0000 0.6631635078
C   C8        1.0  0.00619  0.68539  0.43241  1.0000 0.6631635078
C   C9        1.0  0.56461  0.24381  0.37399  1.0000 0.6631635078
C   C10       1.0  0.81759  0.37399  0.24381  1.0000 0.6631635078
C   C11       1.0  0.37399  0.81759  0.56461  1.0000 0.6631635078
C   C12       1.0  0.24381  0.56461  0.81759  1.0000 0.6631635078
C   C13       1.0  0.83878  0.84638  0.73102  1.0000 -0.1717293667
C   C14       1.0  0.58382  0.73102  0.84638  1.0000 -0.1717293667
C   C15       1.0  0.73102  0.58382  0.83878  1.0000 -0.1717293667
C   C16       1.0  0.84638  0.83878  0.58382  1.0000 -0.1717293667
C   C17       1.0  0.41122  0.40362  0.51898  1.0000 -0.1717293667
C   C18       1.0  0.66618  0.51898  0.40362  1.0000 -0.1717293667
C   C19       1.0  0.51898  0.66618  0.41122  1.0000 -0.1717293667
C   C20       1.0  0.40362  0.41122  0.66618  1.0000 -0.1717293667
O   O1        1.0  0.86291  0.05751  0.96429  1.0000 -0.5753556242
O   O2        1.0  0.11529  0.96429  0.05751  1.0000 -0.5753556242
O   O3        1.0  0.96429  0.11529  0.86291  1.0000 -0.5753556242
O   O4        1.0  0.05751  0.86291  0.11529  1.0000 -0.5753556242
O   O5        1.0  0.38709  0.19249  0.28571  1.0000 -0.5753556242
O   O6        1.0  0.13471  0.28571  0.19249  1.0000 -0.5753556242
O   O7        1.0  0.28571  0.13471  0.38709  1.0000 -0.5753556242
O   O8        1.0  0.19249  0.38709  0.13471  1.0000 -0.5753556242
O   O9        1.0  0.70669  0.01015  0.99125  1.0000 -0.7236795998
O   O10       1.0  0.29191  0.99125  0.01015  1.0000 -0.7236795998
O   O11       1.0  0.99125  0.29191  0.70669  1.0000 -0.7236795998
O   O12       1.0  0.01015  0.70669  0.29191  1.0000 -0.7236795998
O   O13       1.0  0.54331  0.23985  0.25875  1.0000 -0.7236795998
O   O14       1.0  0.95809  0.25875  0.23985  1.0000 -0.7236795998
O   O15       1.0  0.25875  0.95809  0.54331  1.0000 -0.7236795998
O   O16       1.0  0.23985  0.54331  0.95809  1.0000 -0.7236795998
O   O17       1.0  0.54235  0.13181  0.88279  1.0000 -0.6253716549
O   O18       1.0  0.44305  0.88279  0.13181  1.0000 -0.6253716549
O   O19       1.0  0.88279  0.44305  0.54235  1.0000 -0.6253716549
O   O20       1.0  0.13181  0.54235  0.44305  1.0000 -0.6253716549
O   O21       1.0  0.70765  0.11819  0.36721  1.0000 -0.6253716549
O   O22       1.0  0.80695  0.36721  0.11819  1.0000 -0.6253716549
O   O23       1.0  0.36721  0.80695  0.70765  1.0000 -0.6253716549
O   O24       1.0  0.11819  0.70765  0.80695  1.0000 -0.6253716549
