# DDEC6 charges by PACMAN v1.1 (https://github.com/mtap-research/PACMAN-charge/)
data_2008[Zn][nan]3[ASR]4
_chemical_formula_sum              "Zn24 H144 C184 S8 N24 O80"
_cell_length_a       23.1451
_cell_length_b       27.3976
_cell_length_c       10.5482
_cell_angle_alpha    90
_cell_angle_beta     90
_cell_angle_gamma    90

_symmetry_space_group_name_H-M    "P 1"
_symmetry_Int_Tables_number       1

loop_
  _symmetry_equiv_pos_as_xyz
  'x, y, z'

loop_
  _atom_site_type_symbol
  _atom_site_label
  _atom_site_symmetry_multiplicity
  _atom_site_fract_x
  _atom_site_fract_y
  _atom_site_fract_z
  _atom_site_occupancy
  _atom_site_charge
Zn  Zn1       1.0  0.80428  0.95855  0.58679  1.0000 0.9259907063
Zn  Zn2       1.0  0.73062  0.04152  0.43758  1.0000 0.9396541025
Zn  Zn3       1.0  0.77087  0.04411  0.75709  1.0000 0.9245465751
Zn  Zn4       1.0  0.69572  0.04145  0.08679  1.0000 0.9259907063
Zn  Zn5       1.0  0.76938  0.95848  0.93758  1.0000 0.9396541025
Zn  Zn6       1.0  0.72913  0.95589  0.25709  1.0000 0.9245465751
Zn  Zn7       1.0  0.19572  0.45855  0.41321  1.0000 0.9259907063
Zn  Zn8       1.0  0.26938  0.54152  0.56242  1.0000 0.9396541025
Zn  Zn9       1.0  0.22913  0.54411  0.24291  1.0000 0.9245465751
Zn  Zn10      1.0  0.30428  0.54145  0.91321  1.0000 0.9259907063
Zn  Zn11      1.0  0.23062  0.45848  0.06242  1.0000 0.9396541025
Zn  Zn12      1.0  0.27087  0.45589  0.74291  1.0000 0.9245465751
Zn  Zn13      1.0  0.19572  0.04145  0.41321  1.0000 0.9259907063
Zn  Zn14      1.0  0.26938  0.95848  0.56242  1.0000 0.9396541025
Zn  Zn15      1.0  0.22913  0.95589  0.24291  1.0000 0.9245465751
Zn  Zn16      1.0  0.30428  0.95855  0.91321  1.0000 0.9259907063
Zn  Zn17      1.0  0.23062  0.04152  0.06242  1.0000 0.9396541025
Zn  Zn18      1.0  0.27087  0.04411  0.74291  1.0000 0.9245465751
Zn  Zn19      1.0  0.80428  0.54145  0.58679  1.0000 0.9259907063
Zn  Zn20      1.0  0.73062  0.45848  0.43758  1.0000 0.9396541025
Zn  Zn21      1.0  0.77087  0.45589  0.75709  1.0000 0.9245465751
Zn  Zn22      1.0  0.69572  0.45855  0.08679  1.0000 0.9259907063
Zn  Zn23      1.0  0.76938  0.54152  0.93758  1.0000 0.9396541025
Zn  Zn24      1.0  0.72913  0.54411  0.25709  1.0000 0.9245465751
H   H1        1.0  0.70400  0.95100  0.49500  1.0000 0.3869370855
H   H2        1.0  0.04380  0.08310  0.95070  1.0000 0.1276662351
H   H3        1.0  0.98200  0.94900  0.72070  1.0000 0.135388514
H   H4        1.0  0.81240  0.12990  0.43920  1.0000 0.1276662351
H   H5        1.0  0.84710  0.12900  0.79170  1.0000 0.1276662351
H   H6        1.0  0.94730  0.07430  0.90050  1.0000 0.1276662351
H   H7        1.0  0.89130  0.87210  0.58420  1.0000 0.1276662351
H   H8        1.0  0.64460  0.12780  0.41200  1.0000 0.1186887081
H   H9        1.0  0.64130  0.21220  0.40820  1.0000 0.1276662351
H   H10       1.0  0.72080  0.78730  0.60560  1.0000 0.1276662351
H   H11       1.0  0.81400  0.21330  0.44250  1.0000 0.1276662351
H   H12       1.0  0.68030  0.12900  0.74590  1.0000 0.1186887081
H   H13       1.0  0.89490  0.78850  0.57910  1.0000 0.1276662351
H   H14       1.0  0.72280  0.87040  0.60710  1.0000 0.1186887081
H   H15       1.0  0.84870  0.21230  0.79980  1.0000 0.1276662351
H   H16       1.0  0.67790  0.21260  0.74730  1.0000 0.1276662351
H   H17       1.0  0.78651  0.46909  0.25370  1.0000 0.3869370855
H   H18       1.0  0.83501  0.46207  0.56800  1.0000 0.3788913618
H   H19       1.0  0.79600  0.04900  0.99500  1.0000 0.3869370855
H   H20       1.0  0.45620  0.91690  0.45070  1.0000 0.1276662351
H   H21       1.0  0.51800  0.05100  0.22070  1.0000 0.135388514
H   H22       1.0  0.68760  0.87010  0.93920  1.0000 0.1276662351
H   H23       1.0  0.65290  0.87100  0.29170  1.0000 0.1276662351
H   H24       1.0  0.55270  0.92570  0.40050  1.0000 0.1276662351
H   H25       1.0  0.60870  0.12790  0.08420  1.0000 0.1276662351
H   H26       1.0  0.85540  0.87220  0.91200  1.0000 0.1186887081
H   H27       1.0  0.85870  0.78780  0.90820  1.0000 0.1276662351
H   H28       1.0  0.77920  0.21270  0.10560  1.0000 0.1276662351
H   H29       1.0  0.68600  0.78670  0.94250  1.0000 0.1276662351
H   H30       1.0  0.81970  0.87100  0.24590  1.0000 0.1186887081
H   H31       1.0  0.60510  0.21150  0.07910  1.0000 0.1276662351
H   H32       1.0  0.77720  0.12960  0.10710  1.0000 0.1186887081
H   H33       1.0  0.65130  0.78770  0.29980  1.0000 0.1276662351
H   H34       1.0  0.82210  0.78740  0.24730  1.0000 0.1276662351
H   H35       1.0  0.71349  0.53091  0.75370  1.0000 0.3869370855
H   H36       1.0  0.66499  0.53793  0.06800  1.0000 0.3788913618
H   H37       1.0  0.29600  0.45100  0.50500  1.0000 0.3869370855
H   H38       1.0  0.95620  0.58310  0.04930  1.0000 0.1276662351
H   H39       1.0  0.01800  0.44900  0.27930  1.0000 0.135388514
H   H40       1.0  0.18760  0.62990  0.56080  1.0000 0.1276662351
H   H41       1.0  0.15290  0.62900  0.20830  1.0000 0.1276662351
H   H42       1.0  0.05270  0.57430  0.09950  1.0000 0.1276662351
H   H43       1.0  0.10870  0.37210  0.41580  1.0000 0.1276662351
H   H44       1.0  0.35540  0.62780  0.58800  1.0000 0.1186887081
H   H45       1.0  0.35870  0.71220  0.59180  1.0000 0.1276662351
H   H46       1.0  0.27920  0.28730  0.39440  1.0000 0.1276662351
H   H47       1.0  0.18600  0.71330  0.55750  1.0000 0.1276662351
H   H48       1.0  0.31970  0.62900  0.25410  1.0000 0.1186887081
H   H49       1.0  0.10510  0.28850  0.42090  1.0000 0.1276662351
H   H50       1.0  0.27720  0.37040  0.39290  1.0000 0.1186887081
H   H51       1.0  0.15130  0.71230  0.20020  1.0000 0.1276662351
H   H52       1.0  0.32210  0.71260  0.25270  1.0000 0.1276662351
H   H53       1.0  0.21349  0.96909  0.74630  1.0000 0.3869370855
H   H54       1.0  0.16499  0.96207  0.43200  1.0000 0.3788913618
H   H55       1.0  0.20400  0.54900  0.00500  1.0000 0.3869370855
H   H56       1.0  0.54380  0.41690  0.54930  1.0000 0.1276662351
H   H57       1.0  0.48200  0.55100  0.77930  1.0000 0.135388514
H   H58       1.0  0.31240  0.37010  0.06080  1.0000 0.1276662351
H   H59       1.0  0.34710  0.37100  0.70830  1.0000 0.1276662351
H   H60       1.0  0.44730  0.42570  0.59950  1.0000 0.1276662351
H   H61       1.0  0.39130  0.62790  0.91580  1.0000 0.1276662351
H   H62       1.0  0.14460  0.37220  0.08800  1.0000 0.1186887081
H   H63       1.0  0.14130  0.28780  0.09180  1.0000 0.1276662351
H   H64       1.0  0.22080  0.71270  0.89440  1.0000 0.1276662351
H   H65       1.0  0.31400  0.28670  0.05750  1.0000 0.1276662351
H   H66       1.0  0.18030  0.37100  0.75410  1.0000 0.1186887081
H   H67       1.0  0.39490  0.71150  0.92090  1.0000 0.1276662351
H   H68       1.0  0.22280  0.62960  0.89290  1.0000 0.1186887081
H   H69       1.0  0.34870  0.28770  0.70020  1.0000 0.1276662351
H   H70       1.0  0.17790  0.28740  0.75270  1.0000 0.1276662351
H   H71       1.0  0.28651  0.03091  0.24630  1.0000 0.3869370855
H   H72       1.0  0.33501  0.03793  0.93200  1.0000 0.3788913618
H   H73       1.0  0.29600  0.04900  0.50500  1.0000 0.3869370855
H   H74       1.0  0.95620  0.91690  0.04930  1.0000 0.1276662351
H   H75       1.0  0.01800  0.05100  0.27930  1.0000 0.135388514
H   H76       1.0  0.18760  0.87010  0.56080  1.0000 0.1276662351
H   H77       1.0  0.15290  0.87100  0.20830  1.0000 0.1276662351
H   H78       1.0  0.05270  0.92570  0.09950  1.0000 0.1276662351
H   H79       1.0  0.10870  0.12790  0.41580  1.0000 0.1276662351
H   H80       1.0  0.35540  0.87220  0.58800  1.0000 0.1186887081
H   H81       1.0  0.35870  0.78780  0.59180  1.0000 0.1276662351
H   H82       1.0  0.27920  0.21270  0.39440  1.0000 0.1276662351
H   H83       1.0  0.18600  0.78670  0.55750  1.0000 0.1276662351
H   H84       1.0  0.31970  0.87100  0.25410  1.0000 0.1186887081
H   H85       1.0  0.10510  0.21150  0.42090  1.0000 0.1276662351
H   H86       1.0  0.27720  0.12960  0.39290  1.0000 0.1186887081
H   H87       1.0  0.15130  0.78770  0.20020  1.0000 0.1276662351
H   H88       1.0  0.32210  0.78740  0.25270  1.0000 0.1276662351
H   H89       1.0  0.21349  0.53091  0.74630  1.0000 0.3869370855
H   H90       1.0  0.16499  0.53793  0.43200  1.0000 0.3788913618
H   H91       1.0  0.20400  0.95100  0.00500  1.0000 0.3869370855
H   H92       1.0  0.54380  0.08310  0.54930  1.0000 0.1276662351
H   H93       1.0  0.48200  0.94900  0.77930  1.0000 0.135388514
H   H94       1.0  0.31240  0.12990  0.06080  1.0000 0.1276662351
H   H95       1.0  0.34710  0.12900  0.70830  1.0000 0.1276662351
H   H96       1.0  0.44730  0.07430  0.59950  1.0000 0.1276662351
H   H97       1.0  0.39130  0.87210  0.91580  1.0000 0.1276662351
H   H98       1.0  0.14460  0.12780  0.08800  1.0000 0.1186887081
H   H99       1.0  0.14130  0.21220  0.09180  1.0000 0.1276662351
H   H100      1.0  0.22080  0.78730  0.89440  1.0000 0.1276662351
H   H101      1.0  0.31400  0.21330  0.05750  1.0000 0.1276662351
H   H102      1.0  0.18030  0.12900  0.75410  1.0000 0.1186887081
H   H103      1.0  0.39490  0.78850  0.92090  1.0000 0.1276662351
H   H104      1.0  0.22280  0.87040  0.89290  1.0000 0.1186887081
H   H105      1.0  0.34870  0.21230  0.70020  1.0000 0.1276662351
H   H106      1.0  0.17790  0.21260  0.75270  1.0000 0.1276662351
H   H107      1.0  0.28651  0.46909  0.24630  1.0000 0.3869370855
H   H108      1.0  0.33501  0.46207  0.93200  1.0000 0.3788913618
H   H109      1.0  0.70400  0.54900  0.49500  1.0000 0.3869370855
H   H110      1.0  0.04380  0.41690  0.95070  1.0000 0.1276662351
H   H111      1.0  0.98200  0.55100  0.72070  1.0000 0.135388514
H   H112      1.0  0.81240  0.37010  0.43920  1.0000 0.1276662351
H   H113      1.0  0.84710  0.37100  0.79170  1.0000 0.1276662351
H   H114      1.0  0.94730  0.42570  0.90050  1.0000 0.1276662351
H   H115      1.0  0.89130  0.62790  0.58420  1.0000 0.1276662351
H   H116      1.0  0.64460  0.37220  0.41200  1.0000 0.1186887081
H   H117      1.0  0.64130  0.28780  0.40820  1.0000 0.1276662351
H   H118      1.0  0.72080  0.71270  0.60560  1.0000 0.1276662351
H   H119      1.0  0.81400  0.28670  0.44250  1.0000 0.1276662351
H   H120      1.0  0.68030  0.37100  0.74590  1.0000 0.1186887081
H   H121      1.0  0.89490  0.71150  0.57910  1.0000 0.1276662351
H   H122      1.0  0.72280  0.62960  0.60710  1.0000 0.1186887081
H   H123      1.0  0.84870  0.28770  0.79980  1.0000 0.1276662351
H   H124      1.0  0.67790  0.28740  0.74730  1.0000 0.1276662351
H   H125      1.0  0.78651  0.03091  0.25370  1.0000 0.3869370855
H   H126      1.0  0.83501  0.03793  0.56800  1.0000 0.3788913618
H   H127      1.0  0.79600  0.45100  0.99500  1.0000 0.3869370855
H   H128      1.0  0.45620  0.58310  0.45070  1.0000 0.1276662351
H   H129      1.0  0.51800  0.44900  0.22070  1.0000 0.135388514
H   H130      1.0  0.68760  0.62990  0.93920  1.0000 0.1276662351
H   H131      1.0  0.65290  0.62900  0.29170  1.0000 0.1276662351
H   H132      1.0  0.55270  0.57430  0.40050  1.0000 0.1276662351
H   H133      1.0  0.60870  0.37210  0.08420  1.0000 0.1276662351
H   H134      1.0  0.85540  0.62780  0.91200  1.0000 0.1186887081
H   H135      1.0  0.85870  0.71220  0.90820  1.0000 0.1276662351
H   H136      1.0  0.77920  0.28730  0.10560  1.0000 0.1276662351
H   H137      1.0  0.68600  0.71330  0.94250  1.0000 0.1276662351
H   H138      1.0  0.81970  0.62900  0.24590  1.0000 0.1186887081
H   H139      1.0  0.60510  0.28850  0.07910  1.0000 0.1276662351
H   H140      1.0  0.77720  0.37040  0.10710  1.0000 0.1186887081
H   H141      1.0  0.65130  0.71230  0.29980  1.0000 0.1276662351
H   H142      1.0  0.82210  0.71260  0.24730  1.0000 0.1276662351
H   H143      1.0  0.71349  0.96909  0.75370  1.0000 0.3869370855
H   H144      1.0  0.66499  0.96207  0.06800  1.0000 0.3788913618
C   C1        1.0  0.13530  0.03340  0.88810  1.0000 0.5816215332
C   C2        1.0  0.95540  0.01160  0.80100  1.0000 -0.0190218054
C   C3        1.0  0.05290  0.98070  0.79620  1.0000 -0.1015898697
C   C4        1.0  0.80790  0.77630  0.59170  1.0000 0.0909602077
C   C5        1.0  0.07270  0.02270  0.86060  1.0000 -0.0055903234
C   C6        1.0  0.76340  0.22320  0.77050  1.0000 0.0989957215
C   C7        1.0  0.72730  0.22340  0.42460  1.0000 0.0989957215
C   C8        1.0  0.89270  0.00750  0.75900  1.0000 0.5962162073
C   C9        1.0  0.03190  0.05630  0.90180  1.0000 -0.1176010017
C   C10       1.0  0.99480  0.97650  0.76600  1.0000 -0.0942727244
C   C11       1.0  0.77710  0.14670  0.43480  1.0000 0.083535999
C   C12       1.0  0.81220  0.14600  0.78110  1.0000 0.0909602077
C   C13       1.0  0.97410  0.05100  0.87210  1.0000 -0.0825005938
C   C14       1.0  0.85640  0.85470  0.58800  1.0000 0.0733973514
C   C15       1.0  0.67950  0.14520  0.41820  1.0000 0.0989957215
C   C16       1.0  0.67710  0.19630  0.41580  1.0000 -0.2176270877
C   C17       1.0  0.75650  0.80350  0.60050  1.0000 -0.2077330199
C   C18       1.0  0.77850  0.19690  0.43510  1.0000 -0.203425834
C   C19       1.0  0.71530  0.14620  0.75380  1.0000 0.083535999
C   C20       1.0  0.85890  0.80430  0.58530  1.0000 -0.2077330199
C   C21       1.0  0.75810  0.85360  0.60170  1.0000 0.0909602077
C   C22       1.0  0.81350  0.19620  0.78590  1.0000 -0.2077330199
C   C23       1.0  0.71350  0.19640  0.75590  1.0000 -0.2077330199
C   C24       1.0  0.36470  0.96660  0.38810  1.0000 0.5816215332
C   C25       1.0  0.54460  0.98840  0.30100  1.0000 -0.0190218054
C   C26       1.0  0.44710  0.01930  0.29620  1.0000 -0.1015898697
C   C27       1.0  0.69210  0.22370  0.09170  1.0000 0.0909602077
C   C28       1.0  0.42730  0.97730  0.36060  1.0000 -0.0055903234
C   C29       1.0  0.73660  0.77680  0.27050  1.0000 0.0989957215
C   C30       1.0  0.77270  0.77660  0.92460  1.0000 0.0989957215
C   C31       1.0  0.60730  0.99250  0.25900  1.0000 0.5962162073
C   C32       1.0  0.46810  0.94370  0.40180  1.0000 -0.1176010017
C   C33       1.0  0.50520  0.02350  0.26600  1.0000 -0.0942727244
C   C34       1.0  0.72290  0.85330  0.93480  1.0000 0.083535999
C   C35       1.0  0.68780  0.85400  0.28110  1.0000 0.0909602077
C   C36       1.0  0.52590  0.94900  0.37210  1.0000 -0.0825005938
C   C37       1.0  0.64360  0.14530  0.08800  1.0000 0.0733973514
C   C38       1.0  0.82050  0.85480  0.91820  1.0000 0.0989957215
C   C39       1.0  0.82290  0.80370  0.91580  1.0000 -0.2176270877
C   C40       1.0  0.74350  0.19650  0.10050  1.0000 -0.2077330199
C   C41       1.0  0.72150  0.80310  0.93510  1.0000 -0.203425834
C   C42       1.0  0.78470  0.85380  0.25380  1.0000 0.083535999
C   C43       1.0  0.64110  0.19570  0.08530  1.0000 -0.2077330199
C   C44       1.0  0.74190  0.14640  0.10170  1.0000 0.0909602077
C   C45       1.0  0.68650  0.80380  0.28590  1.0000 -0.2077330199
C   C46       1.0  0.78650  0.80360  0.25590  1.0000 -0.2077330199
C   C47       1.0  0.86470  0.53340  0.11190  1.0000 0.5816215332
C   C48       1.0  0.04460  0.51160  0.19900  1.0000 -0.0190218054
C   C49       1.0  0.94710  0.48070  0.20380  1.0000 -0.1015898697
C   C50       1.0  0.19210  0.27630  0.40830  1.0000 0.0909602077
C   C51       1.0  0.92730  0.52270  0.13940  1.0000 -0.0055903234
C   C52       1.0  0.23660  0.72320  0.22950  1.0000 0.0989957215
C   C53       1.0  0.27270  0.72340  0.57540  1.0000 0.0989957215
C   C54       1.0  0.10730  0.50750  0.24100  1.0000 0.5962162073
C   C55       1.0  0.96810  0.55630  0.09820  1.0000 -0.1176010017
C   C56       1.0  0.00520  0.47650  0.23400  1.0000 -0.0942727244
C   C57       1.0  0.22290  0.64670  0.56520  1.0000 0.083535999
C   C58       1.0  0.18780  0.64600  0.21890  1.0000 0.0909602077
C   C59       1.0  0.02590  0.55100  0.12790  1.0000 -0.0825005938
C   C60       1.0  0.14360  0.35470  0.41200  1.0000 0.0733973514
C   C61       1.0  0.32050  0.64520  0.58180  1.0000 0.0989957215
C   C62       1.0  0.32290  0.69630  0.58420  1.0000 -0.2176270877
C   C63       1.0  0.24350  0.30350  0.39950  1.0000 -0.2077330199
C   C64       1.0  0.22150  0.69690  0.56490  1.0000 -0.203425834
C   C65       1.0  0.28470  0.64620  0.24620  1.0000 0.083535999
C   C66       1.0  0.14110  0.30430  0.41470  1.0000 -0.2077330199
C   C67       1.0  0.24190  0.35360  0.39830  1.0000 0.0909602077
C   C68       1.0  0.18650  0.69620  0.21410  1.0000 -0.2077330199
C   C69       1.0  0.28650  0.69640  0.24410  1.0000 -0.2077330199
C   C70       1.0  0.63530  0.46660  0.61190  1.0000 0.5816215332
C   C71       1.0  0.45540  0.48840  0.69900  1.0000 -0.0190218054
C   C72       1.0  0.55290  0.51930  0.70380  1.0000 -0.1015898697
C   C73       1.0  0.30790  0.72370  0.90830  1.0000 0.0909602077
C   C74       1.0  0.57270  0.47730  0.63940  1.0000 -0.0055903234
C   C75       1.0  0.26340  0.27680  0.72950  1.0000 0.0989957215
C   C76       1.0  0.22730  0.27660  0.07540  1.0000 0.0989957215
C   C77       1.0  0.39270  0.49250  0.74100  1.0000 0.5962162073
C   C78       1.0  0.53190  0.44370  0.59820  1.0000 -0.1176010017
C   C79       1.0  0.49480  0.52350  0.73400  1.0000 -0.0942727244
C   C80       1.0  0.27710  0.35330  0.06520  1.0000 0.083535999
C   C81       1.0  0.31220  0.35400  0.71890  1.0000 0.0909602077
C   C82       1.0  0.47410  0.44900  0.62790  1.0000 -0.0825005938
C   C83       1.0  0.35640  0.64530  0.91200  1.0000 0.0733973514
C   C84       1.0  0.17950  0.35480  0.08180  1.0000 0.0989957215
C   C85       1.0  0.17710  0.30370  0.08420  1.0000 -0.2176270877
C   C86       1.0  0.25650  0.69650  0.89950  1.0000 -0.2077330199
C   C87       1.0  0.27850  0.30310  0.06490  1.0000 -0.203425834
C   C88       1.0  0.21530  0.35380  0.74620  1.0000 0.083535999
C   C89       1.0  0.35890  0.69570  0.91470  1.0000 -0.2077330199
C   C90       1.0  0.25810  0.64640  0.89830  1.0000 0.0909602077
C   C91       1.0  0.31350  0.30380  0.71410  1.0000 -0.2077330199
C   C92       1.0  0.21350  0.30360  0.74410  1.0000 -0.2077330199
C   C93       1.0  0.86470  0.96660  0.11190  1.0000 0.5816215332
C   C94       1.0  0.04460  0.98840  0.19900  1.0000 -0.0190218054
C   C95       1.0  0.94710  0.01930  0.20380  1.0000 -0.1015898697
C   C96       1.0  0.19210  0.22370  0.40830  1.0000 0.0909602077
C   C97       1.0  0.92730  0.97730  0.13940  1.0000 -0.0055903234
C   C98       1.0  0.23660  0.77680  0.22950  1.0000 0.0989957215
C   C99       1.0  0.27270  0.77660  0.57540  1.0000 0.0989957215
C   C100      1.0  0.10730  0.99250  0.24100  1.0000 0.5962162073
C   C101      1.0  0.96810  0.94370  0.09820  1.0000 -0.1176010017
C   C102      1.0  0.00520  0.02350  0.23400  1.0000 -0.0942727244
C   C103      1.0  0.22290  0.85330  0.56520  1.0000 0.083535999
C   C104      1.0  0.18780  0.85400  0.21890  1.0000 0.0909602077
C   C105      1.0  0.02590  0.94900  0.12790  1.0000 -0.0825005938
C   C106      1.0  0.14360  0.14530  0.41200  1.0000 0.0733973514
C   C107      1.0  0.32050  0.85480  0.58180  1.0000 0.0989957215
C   C108      1.0  0.32290  0.80370  0.58420  1.0000 -0.2176270877
C   C109      1.0  0.24350  0.19650  0.39950  1.0000 -0.2077330199
C   C110      1.0  0.22150  0.80310  0.56490  1.0000 -0.203425834
C   C111      1.0  0.28470  0.85380  0.24620  1.0000 0.083535999
C   C112      1.0  0.14110  0.19570  0.41470  1.0000 -0.2077330199
C   C113      1.0  0.24190  0.14640  0.39830  1.0000 0.0909602077
C   C114      1.0  0.18650  0.80380  0.21410  1.0000 -0.2077330199
C   C115      1.0  0.28650  0.80360  0.24410  1.0000 -0.2077330199
C   C116      1.0  0.63530  0.03340  0.61190  1.0000 0.5816215332
C   C117      1.0  0.45540  0.01160  0.69900  1.0000 -0.0190218054
C   C118      1.0  0.55290  0.98070  0.70380  1.0000 -0.1015898697
C   C119      1.0  0.30790  0.77630  0.90830  1.0000 0.0909602077
C   C120      1.0  0.57270  0.02270  0.63940  1.0000 -0.0055903234
C   C121      1.0  0.26340  0.22320  0.72950  1.0000 0.0989957215
C   C122      1.0  0.22730  0.22340  0.07540  1.0000 0.0989957215
C   C123      1.0  0.39270  0.00750  0.74100  1.0000 0.5962162073
C   C124      1.0  0.53190  0.05630  0.59820  1.0000 -0.1176010017
C   C125      1.0  0.49480  0.97650  0.73400  1.0000 -0.0942727244
C   C126      1.0  0.27710  0.14670  0.06520  1.0000 0.083535999
C   C127      1.0  0.31220  0.14600  0.71890  1.0000 0.0909602077
C   C128      1.0  0.47410  0.05100  0.62790  1.0000 -0.0825005938
C   C129      1.0  0.35640  0.85470  0.91200  1.0000 0.0733973514
C   C130      1.0  0.17950  0.14520  0.08180  1.0000 0.0989957215
C   C131      1.0  0.17710  0.19630  0.08420  1.0000 -0.2176270877
C   C132      1.0  0.25650  0.80350  0.89950  1.0000 -0.2077330199
C   C133      1.0  0.27850  0.19690  0.06490  1.0000 -0.203425834
C   C134      1.0  0.21530  0.14620  0.74620  1.0000 0.083535999
C   C135      1.0  0.35890  0.80430  0.91470  1.0000 -0.2077330199
C   C136      1.0  0.25810  0.85360  0.89830  1.0000 0.0909602077
C   C137      1.0  0.31350  0.19620  0.71410  1.0000 -0.2077330199
C   C138      1.0  0.21350  0.19640  0.74410  1.0000 -0.2077330199
C   C139      1.0  0.13530  0.46660  0.88810  1.0000 0.5816215332
C   C140      1.0  0.95540  0.48840  0.80100  1.0000 -0.0190218054
C   C141      1.0  0.05290  0.51930  0.79620  1.0000 -0.1015898697
C   C142      1.0  0.80790  0.72370  0.59170  1.0000 0.0909602077
C   C143      1.0  0.07270  0.47730  0.86060  1.0000 -0.0055903234
C   C144      1.0  0.76340  0.27680  0.77050  1.0000 0.0989957215
C   C145      1.0  0.72730  0.27660  0.42460  1.0000 0.0989957215
C   C146      1.0  0.89270  0.49250  0.75900  1.0000 0.5962162073
C   C147      1.0  0.03190  0.44370  0.90180  1.0000 -0.1176010017
C   C148      1.0  0.99480  0.52350  0.76600  1.0000 -0.0942727244
C   C149      1.0  0.77710  0.35330  0.43480  1.0000 0.083535999
C   C150      1.0  0.81220  0.35400  0.78110  1.0000 0.0909602077
C   C151      1.0  0.97410  0.44900  0.87210  1.0000 -0.0825005938
C   C152      1.0  0.85640  0.64530  0.58800  1.0000 0.0733973514
C   C153      1.0  0.67950  0.35480  0.41820  1.0000 0.0989957215
C   C154      1.0  0.67710  0.30370  0.41580  1.0000 -0.2176270877
C   C155      1.0  0.75650  0.69650  0.60050  1.0000 -0.2077330199
C   C156      1.0  0.77850  0.30310  0.43510  1.0000 -0.203425834
C   C157      1.0  0.71530  0.35380  0.75380  1.0000 0.083535999
C   C158      1.0  0.85890  0.69570  0.58530  1.0000 -0.2077330199
C   C159      1.0  0.75810  0.64640  0.60170  1.0000 0.0909602077
C   C160      1.0  0.81350  0.30380  0.78590  1.0000 -0.2077330199
C   C161      1.0  0.71350  0.30360  0.75590  1.0000 -0.2077330199
C   C162      1.0  0.36470  0.53340  0.38810  1.0000 0.5816215332
C   C163      1.0  0.54460  0.51160  0.30100  1.0000 -0.0190218054
C   C164      1.0  0.44710  0.48070  0.29620  1.0000 -0.1015898697
C   C165      1.0  0.69210  0.27630  0.09170  1.0000 0.0909602077
C   C166      1.0  0.42730  0.52270  0.36060  1.0000 -0.0055903234
C   C167      1.0  0.73660  0.72320  0.27050  1.0000 0.0989957215
C   C168      1.0  0.77270  0.72340  0.92460  1.0000 0.0989957215
C   C169      1.0  0.60730  0.50750  0.25900  1.0000 0.5962162073
C   C170      1.0  0.46810  0.55630  0.40180  1.0000 -0.1176010017
C   C171      1.0  0.50520  0.47650  0.26600  1.0000 -0.0942727244
C   C172      1.0  0.72290  0.64670  0.93480  1.0000 0.083535999
C   C173      1.0  0.68780  0.64600  0.28110  1.0000 0.0909602077
C   C174      1.0  0.52590  0.55100  0.37210  1.0000 -0.0825005938
C   C175      1.0  0.64360  0.35470  0.08800  1.0000 0.0733973514
C   C176      1.0  0.82050  0.64520  0.91820  1.0000 0.0989957215
C   C177      1.0  0.82290  0.69630  0.91580  1.0000 -0.2176270877
C   C178      1.0  0.74350  0.30350  0.10050  1.0000 -0.2077330199
C   C179      1.0  0.72150  0.69690  0.93510  1.0000 -0.203425834
C   C180      1.0  0.78470  0.64620  0.25380  1.0000 0.083535999
C   C181      1.0  0.64110  0.30430  0.08530  1.0000 -0.2077330199
C   C182      1.0  0.74190  0.35360  0.10170  1.0000 0.0909602077
C   C183      1.0  0.68650  0.69620  0.28590  1.0000 -0.2077330199
C   C184      1.0  0.78650  0.69640  0.25590  1.0000 -0.2077330199
S   S1        1.0  0.09990  0.93232  0.75280  1.0000 1.1608749684
S   S2        1.0  0.40010  0.06768  0.25280  1.0000 1.1608749684
S   S3        1.0  0.90010  0.43232  0.24720  1.0000 1.1608749684
S   S4        1.0  0.59990  0.56768  0.74720  1.0000 1.1608749684
S   S5        1.0  0.90010  0.06768  0.24720  1.0000 1.1608749684
S   S6        1.0  0.59990  0.93232  0.74720  1.0000 1.1608749684
S   S7        1.0  0.09990  0.56768  0.75280  1.0000 1.1608749684
S   S8        1.0  0.40010  0.43232  0.25280  1.0000 1.1608749684
N   N1        1.0  0.76460  0.12060  0.76250  1.0000 -0.2077330199
N   N2        1.0  0.80680  0.88040  0.59570  1.0000 -0.2369293813
N   N3        1.0  0.72810  0.12010  0.42850  1.0000 -0.22640544
N   N4        1.0  0.73540  0.87940  0.26250  1.0000 -0.2077330199
N   N5        1.0  0.69320  0.11960  0.09570  1.0000 -0.2369293813
N   N6        1.0  0.77190  0.87990  0.92850  1.0000 -0.22640544
N   N7        1.0  0.23540  0.62060  0.23750  1.0000 -0.2077330199
N   N8        1.0  0.19320  0.38040  0.40430  1.0000 -0.2369293813
N   N9        1.0  0.27190  0.62010  0.57150  1.0000 -0.22640544
N   N10       1.0  0.26460  0.37940  0.73750  1.0000 -0.2077330199
N   N11       1.0  0.30680  0.61960  0.90430  1.0000 -0.2369293813
N   N12       1.0  0.22810  0.37990  0.07150  1.0000 -0.22640544
N   N13       1.0  0.23540  0.87940  0.23750  1.0000 -0.2077330199
N   N14       1.0  0.19320  0.11960  0.40430  1.0000 -0.2369293813
N   N15       1.0  0.27190  0.87990  0.57150  1.0000 -0.22640544
N   N16       1.0  0.26460  0.12060  0.73750  1.0000 -0.2077330199
N   N17       1.0  0.30680  0.88040  0.90430  1.0000 -0.2369293813
N   N18       1.0  0.22810  0.12010  0.07150  1.0000 -0.22640544
N   N19       1.0  0.76460  0.37940  0.76250  1.0000 -0.2077330199
N   N20       1.0  0.80680  0.61960  0.59570  1.0000 -0.2369293813
N   N21       1.0  0.72810  0.37990  0.42850  1.0000 -0.22640544
N   N22       1.0  0.73540  0.62060  0.26250  1.0000 -0.2077330199
N   N23       1.0  0.69320  0.38040  0.09570  1.0000 -0.2369293813
N   N24       1.0  0.77190  0.62010  0.92850  1.0000 -0.22640544
O   O1        1.0  0.79180  0.03793  0.56800  1.0000 -0.8517911081
O   O2        1.0  0.75670  0.96909  0.75370  1.0000 -0.8517911081
O   O3        1.0  0.86020  0.04253  0.79030  1.0000 -0.5633267406
O   O4        1.0  0.14860  0.03727  0.00310  1.0000 -0.5433649514
O   O5        1.0  0.16880  0.04066  0.79740  1.0000 -0.5633267406
O   O6        1.0  0.87910  0.97017  0.69610  1.0000 -0.5676331465
O   O7        1.0  0.73880  0.96160  0.45210  1.0000 -0.8429107015
O   O8        1.0  0.06440  0.88850  0.75490  1.0000 -0.6232281569
O   O9        1.0  0.12050  0.94280  0.62510  1.0000 -0.6135600154
O   O10       1.0  0.14570  0.93160  0.84560  1.0000 -0.6232281569
O   O11       1.0  0.70820  0.96207  0.06800  1.0000 -0.8517911081
O   O12       1.0  0.74330  0.03091  0.25370  1.0000 -0.8517911081
O   O13       1.0  0.63980  0.95747  0.29030  1.0000 -0.5633267406
O   O14       1.0  0.35140  0.96273  0.50310  1.0000 -0.5433649514
O   O15       1.0  0.33120  0.95934  0.29740  1.0000 -0.5633267406
O   O16       1.0  0.62090  0.02983  0.19610  1.0000 -0.5676331465
O   O17       1.0  0.76120  0.03840  0.95210  1.0000 -0.8429107015
O   O18       1.0  0.43560  0.11150  0.25490  1.0000 -0.6232281569
O   O19       1.0  0.37950  0.05720  0.12510  1.0000 -0.6135600154
O   O20       1.0  0.35430  0.06840  0.34560  1.0000 -0.6232281569
O   O21       1.0  0.20820  0.53793  0.43200  1.0000 -0.8517911081
O   O22       1.0  0.24330  0.46909  0.24630  1.0000 -0.8517911081
O   O23       1.0  0.13980  0.54253  0.20970  1.0000 -0.5633267406
O   O24       1.0  0.85140  0.53727  0.99690  1.0000 -0.5433649514
O   O25       1.0  0.83120  0.54066  0.20260  1.0000 -0.5633267406
O   O26       1.0  0.12090  0.47017  0.30390  1.0000 -0.5676331465
O   O27       1.0  0.26120  0.46160  0.54790  1.0000 -0.8429107015
O   O28       1.0  0.93560  0.38850  0.24510  1.0000 -0.6232281569
O   O29       1.0  0.87950  0.44280  0.37490  1.0000 -0.6135600154
O   O30       1.0  0.85430  0.43160  0.15440  1.0000 -0.6232281569
O   O31       1.0  0.29180  0.46207  0.93200  1.0000 -0.8517911081
O   O32       1.0  0.25670  0.53091  0.74630  1.0000 -0.8517911081
O   O33       1.0  0.36020  0.45747  0.70970  1.0000 -0.5633267406
O   O34       1.0  0.64860  0.46273  0.49690  1.0000 -0.5433649514
O   O35       1.0  0.66880  0.45934  0.70260  1.0000 -0.5633267406
O   O36       1.0  0.37910  0.52983  0.80390  1.0000 -0.5676331465
O   O37       1.0  0.23880  0.53840  0.04790  1.0000 -0.8429107015
O   O38       1.0  0.56440  0.61150  0.74510  1.0000 -0.6232281569
O   O39       1.0  0.62050  0.55720  0.87490  1.0000 -0.6135600154
O   O40       1.0  0.64570  0.56840  0.65440  1.0000 -0.6232281569
O   O41       1.0  0.20820  0.96207  0.43200  1.0000 -0.8517911081
O   O42       1.0  0.24330  0.03091  0.24630  1.0000 -0.8517911081
O   O43       1.0  0.13980  0.95747  0.20970  1.0000 -0.5633267406
O   O44       1.0  0.85140  0.96273  0.99690  1.0000 -0.5433649514
O   O45       1.0  0.83120  0.95934  0.20260  1.0000 -0.5633267406
O   O46       1.0  0.12090  0.02983  0.30390  1.0000 -0.5676331465
O   O47       1.0  0.26120  0.03840  0.54790  1.0000 -0.8429107015
O   O48       1.0  0.93560  0.11150  0.24510  1.0000 -0.6232281569
O   O49       1.0  0.87950  0.05720  0.37490  1.0000 -0.6135600154
O   O50       1.0  0.85430  0.06840  0.15440  1.0000 -0.6232281569
O   O51       1.0  0.29180  0.03793  0.93200  1.0000 -0.8517911081
O   O52       1.0  0.25670  0.96909  0.74630  1.0000 -0.8517911081
O   O53       1.0  0.36020  0.04253  0.70970  1.0000 -0.5633267406
O   O54       1.0  0.64860  0.03727  0.49690  1.0000 -0.5433649514
O   O55       1.0  0.66880  0.04066  0.70260  1.0000 -0.5633267406
O   O56       1.0  0.37910  0.97017  0.80390  1.0000 -0.5676331465
O   O57       1.0  0.23880  0.96160  0.04790  1.0000 -0.8429107015
O   O58       1.0  0.56440  0.88850  0.74510  1.0000 -0.6232281569
O   O59       1.0  0.62050  0.94280  0.87490  1.0000 -0.6135600154
O   O60       1.0  0.64570  0.93160  0.65440  1.0000 -0.6232281569
O   O61       1.0  0.79180  0.46207  0.56800  1.0000 -0.8517911081
O   O62       1.0  0.75670  0.53091  0.75370  1.0000 -0.8517911081
O   O63       1.0  0.86020  0.45747  0.79030  1.0000 -0.5633267406
O   O64       1.0  0.14860  0.46273  0.00310  1.0000 -0.5433649514
O   O65       1.0  0.16880  0.45934  0.79740  1.0000 -0.5633267406
O   O66       1.0  0.87910  0.52983  0.69610  1.0000 -0.5676331465
O   O67       1.0  0.73880  0.53840  0.45210  1.0000 -0.8429107015
O   O68       1.0  0.06440  0.61150  0.75490  1.0000 -0.6232281569
O   O69       1.0  0.12050  0.55720  0.62510  1.0000 -0.6135600154
O   O70       1.0  0.14570  0.56840  0.84560  1.0000 -0.6232281569
O   O71       1.0  0.70820  0.53793  0.06800  1.0000 -0.8517911081
O   O72       1.0  0.74330  0.46909  0.25370  1.0000 -0.8517911081
O   O73       1.0  0.63980  0.54253  0.29030  1.0000 -0.5633267406
O   O74       1.0  0.35140  0.53727  0.50310  1.0000 -0.5433649514
O   O75       1.0  0.33120  0.54066  0.29740  1.0000 -0.5633267406
O   O76       1.0  0.62090  0.47017  0.19610  1.0000 -0.5676331465
O   O77       1.0  0.76120  0.46160  0.95210  1.0000 -0.8429107015
O   O78       1.0  0.43560  0.38850  0.25490  1.0000 -0.6232281569
O   O79       1.0  0.37950  0.44280  0.12510  1.0000 -0.6135600154
O   O80       1.0  0.35430  0.43160  0.34560  1.0000 -0.6232281569
