# DDEC6 charges by PACMAN v1.1 (https://github.com/mtap-research/PACMAN-charge/)
data_2008[Co][rob]3[ASR]1
_chemical_formula_sum              "Co12 H264 C288 N24 O48"
_cell_length_a       13.6699
_cell_length_b       13.6699
_cell_length_c       46.339
_cell_angle_alpha    82.3367
_cell_angle_beta     97.6633
_cell_angle_gamma    121.303

_symmetry_space_group_name_H-M    "P 1"
_symmetry_Int_Tables_number       1

loop_
  _symmetry_equiv_pos_as_xyz
  'x, y, z'

loop_
  _atom_site_type_symbol
  _atom_site_label
  _atom_site_symmetry_multiplicity
  _atom_site_fract_x
  _atom_site_fract_y
  _atom_site_fract_z
  _atom_site_occupancy
  _atom_site_charge
Co  Co1       1.0  0.29064  0.64780  0.88000  1.0000 0.8378153187
Co  Co2       1.0  0.64780  0.29064  0.62000  1.0000 0.8378153187
Co  Co3       1.0  0.70936  0.35220  0.12000  1.0000 0.8378153187
Co  Co4       1.0  0.35220  0.70936  0.38000  1.0000 0.8378153187
Co  Co5       1.0  0.32456  0.68112  0.78988  1.0000 0.8378153187
Co  Co6       1.0  0.68112  0.32456  0.71012  1.0000 0.8378153187
Co  Co7       1.0  0.67544  0.31888  0.21012  1.0000 0.8378153187
Co  Co8       1.0  0.31888  0.67544  0.28988  1.0000 0.8378153187
Co  Co9       1.0  0.95100  0.98690  0.95622  1.0000 0.8378153187
Co  Co10      1.0  0.98690  0.95100  0.54378  1.0000 0.8378153187
Co  Co11      1.0  0.04900  0.01310  0.04378  1.0000 0.8378153187
Co  Co12      1.0  0.01310  0.04900  0.45622  1.0000 0.8378153187
H   H1        1.0  0.12670  0.35630  0.94730  1.0000 0.1196092463
H   H2        1.0  0.35630  0.12670  0.55270  1.0000 0.1196092463
H   H3        1.0  0.87330  0.64370  0.05270  1.0000 0.1196092463
H   H4        1.0  0.64370  0.87330  0.44730  1.0000 0.1196092463
H   H5        1.0  0.25040  0.33280  0.02990  1.0000 0.1196092463
H   H6        1.0  0.33280  0.25040  0.47010  1.0000 0.1196092463
H   H7        1.0  0.74960  0.66720  0.97010  1.0000 0.1196092463
H   H8        1.0  0.66720  0.74960  0.52990  1.0000 0.1196092463
H   H9        1.0  0.38100  0.63720  0.98440  1.0000 0.1196092463
H   H10       1.0  0.63720  0.38100  0.51560  1.0000 0.1196092463
H   H11       1.0  0.61900  0.36280  0.01560  1.0000 0.1196092463
H   H12       1.0  0.36280  0.61900  0.48440  1.0000 0.1196092463
H   H13       1.0  0.34390  0.43110  0.07160  1.0000 0.1307187012
H   H14       1.0  0.43110  0.34390  0.42840  1.0000 0.1307187012
H   H15       1.0  0.65610  0.56890  0.92840  1.0000 0.1307187012
H   H16       1.0  0.56890  0.65610  0.57160  1.0000 0.1307187012
H   H17       1.0  0.41910  0.41030  0.05330  1.0000 0.1307187012
H   H18       1.0  0.41030  0.41910  0.44670  1.0000 0.1307187012
H   H19       1.0  0.58090  0.58970  0.94670  1.0000 0.1307187012
H   H20       1.0  0.58970  0.58090  0.55330  1.0000 0.1307187012
H   H21       1.0  0.47820  0.50580  0.07550  1.0000 0.1307187012
H   H22       1.0  0.50580  0.47820  0.42450  1.0000 0.1307187012
H   H23       1.0  0.52180  0.49420  0.92450  1.0000 0.1307187012
H   H24       1.0  0.49420  0.52180  0.57550  1.0000 0.1307187012
H   H25       1.0  0.43210  0.67110  0.06490  1.0000 0.1196092463
H   H26       1.0  0.67110  0.43210  0.43510  1.0000 0.1196092463
H   H27       1.0  0.56790  0.32890  0.93510  1.0000 0.1196092463
H   H28       1.0  0.32890  0.56790  0.56490  1.0000 0.1196092463
H   H29       1.0  0.37460  0.68180  0.03390  1.0000 0.1114742866
H   H30       1.0  0.68180  0.37460  0.46610  1.0000 0.1114742866
H   H31       1.0  0.62540  0.31820  0.96610  1.0000 0.1114742866
H   H32       1.0  0.31820  0.62540  0.53390  1.0000 0.1114742866
H   H33       1.0  0.30270  0.58210  0.05690  1.0000 0.1307187012
H   H34       1.0  0.58210  0.30270  0.44310  1.0000 0.1307187012
H   H35       1.0  0.69730  0.41790  0.94310  1.0000 0.1307187012
H   H36       1.0  0.41790  0.69730  0.55690  1.0000 0.1307187012
H   H37       1.0  0.55510  0.58730  0.01920  1.0000 0.1386990156
H   H38       1.0  0.58730  0.55510  0.48080  1.0000 0.1386990156
H   H39       1.0  0.44490  0.41270  0.98080  1.0000 0.1386990156
H   H40       1.0  0.41270  0.44490  0.51920  1.0000 0.1386990156
H   H41       1.0  0.53870  0.69370  0.01600  1.0000 0.1196092463
H   H42       1.0  0.69370  0.53870  0.48400  1.0000 0.1196092463
H   H43       1.0  0.46130  0.30630  0.98400  1.0000 0.1196092463
H   H44       1.0  0.30630  0.46130  0.51600  1.0000 0.1196092463
H   H45       1.0  0.58570  0.65990  0.04600  1.0000 0.1307187012
H   H46       1.0  0.65990  0.58570  0.45400  1.0000 0.1307187012
H   H47       1.0  0.41430  0.34010  0.95400  1.0000 0.1307187012
H   H48       1.0  0.34010  0.41430  0.54600  1.0000 0.1307187012
H   H49       1.0  0.96820  0.42360  0.86560  1.0000 0.1196092463
H   H50       1.0  0.42360  0.96820  0.63440  1.0000 0.1196092463
H   H51       1.0  0.03180  0.57640  0.13440  1.0000 0.1196092463
H   H52       1.0  0.57640  0.03180  0.36560  1.0000 0.1196092463
H   H53       1.0  0.67480  0.26060  0.81590  1.0000 0.1196092463
H   H54       1.0  0.26060  0.67480  0.68410  1.0000 0.1196092463
H   H55       1.0  0.32520  0.73940  0.18410  1.0000 0.1196092463
H   H56       1.0  0.73940  0.32520  0.31590  1.0000 0.1196092463
H   H57       1.0  0.96330  0.49710  0.77890  1.0000 0.1307187012
H   H58       1.0  0.49710  0.96330  0.72110  1.0000 0.1307187012
H   H59       1.0  0.03670  0.50290  0.22110  1.0000 0.1307187012
H   H60       1.0  0.50290  0.03670  0.27890  1.0000 0.1307187012
H   H61       1.0  0.69320  0.37700  0.87710  1.0000 0.1307187012
H   H62       1.0  0.37700  0.69320  0.62290  1.0000 0.1307187012
H   H63       1.0  0.30680  0.62300  0.12290  1.0000 0.1307187012
H   H64       1.0  0.62300  0.30680  0.37710  1.0000 0.1307187012
H   H65       1.0  0.60220  0.27540  0.85850  1.0000 0.1114742866
H   H66       1.0  0.27540  0.60220  0.64150  1.0000 0.1114742866
H   H67       1.0  0.39780  0.72460  0.14150  1.0000 0.1114742866
H   H68       1.0  0.72460  0.39780  0.35850  1.0000 0.1114742866
H   H69       1.0  0.61490  0.25550  0.89260  1.0000 0.1196092463
H   H70       1.0  0.25550  0.61490  0.60740  1.0000 0.1196092463
H   H71       1.0  0.38510  0.74450  0.10740  1.0000 0.1196092463
H   H72       1.0  0.74450  0.38510  0.39260  1.0000 0.1196092463
H   H73       1.0  0.64230  0.09510  0.88590  1.0000 0.1307187012
H   H74       1.0  0.09510  0.64230  0.61410  1.0000 0.1307187012
H   H75       1.0  0.35770  0.90490  0.11410  1.0000 0.1307187012
H   H76       1.0  0.90490  0.35770  0.38590  1.0000 0.1307187012
H   H77       1.0  0.62780  0.12040  0.85210  1.0000 0.1196092463
H   H78       1.0  0.12040  0.62780  0.64790  1.0000 0.1196092463
H   H79       1.0  0.37220  0.87960  0.14790  1.0000 0.1196092463
H   H80       1.0  0.87960  0.37220  0.35210  1.0000 0.1196092463
H   H81       1.0  0.73550  0.11370  0.86590  1.0000 0.1386990156
H   H82       1.0  0.11370  0.73550  0.63410  1.0000 0.1386990156
H   H83       1.0  0.26450  0.88630  0.13410  1.0000 0.1386990156
H   H84       1.0  0.88630  0.26450  0.36590  1.0000 0.1386990156
H   H85       1.0  0.87700  0.26940  0.89970  1.0000 0.1307187012
H   H86       1.0  0.26940  0.87700  0.60030  1.0000 0.1307187012
H   H87       1.0  0.12300  0.73060  0.10030  1.0000 0.1307187012
H   H88       1.0  0.73060  0.12300  0.39970  1.0000 0.1307187012
H   H89       1.0  0.86030  0.37350  0.90150  1.0000 0.1307187012
H   H90       1.0  0.37350  0.86030  0.59850  1.0000 0.1307187012
H   H91       1.0  0.13970  0.62650  0.09850  1.0000 0.1307187012
H   H92       1.0  0.62650  0.13970  0.40150  1.0000 0.1307187012
H   H93       1.0  0.77620  0.25280  0.91630  1.0000 0.1196092463
H   H94       1.0  0.25280  0.77620  0.58370  1.0000 0.1196092463
H   H95       1.0  0.22380  0.74720  0.08370  1.0000 0.1196092463
H   H96       1.0  0.74720  0.22380  0.41630  1.0000 0.1196092463
H   H97       1.0  0.65750  0.81710  0.88960  1.0000 0.1307187012
H   H98       1.0  0.81710  0.65750  0.61040  1.0000 0.1307187012
H   H99       1.0  0.34250  0.18290  0.11040  1.0000 0.1307187012
H   H100      1.0  0.18290  0.34250  0.38960  1.0000 0.1307187012
H   H101      1.0  0.94460  0.04820  0.85080  1.0000 0.1196092463
H   H102      1.0  0.04820  0.94460  0.64920  1.0000 0.1196092463
H   H103      1.0  0.05540  0.95180  0.14920  1.0000 0.1196092463
H   H104      1.0  0.95180  0.05540  0.35080  1.0000 0.1196092463
H   H105      1.0  0.64220  0.90520  0.80380  1.0000 0.1196092463
H   H106      1.0  0.90520  0.64220  0.69620  1.0000 0.1196092463
H   H107      1.0  0.35780  0.09480  0.19620  1.0000 0.1196092463
H   H108      1.0  0.09480  0.35780  0.30380  1.0000 0.1196092463
H   H109      1.0  0.99190  0.07450  0.77290  1.0000 0.1196092463
H   H110      1.0  0.07450  0.99190  0.72710  1.0000 0.1196092463
H   H111      1.0  0.00810  0.92550  0.22710  1.0000 0.1196092463
H   H112      1.0  0.92550  0.00810  0.27290  1.0000 0.1196092463
H   H113      1.0  0.99490  0.02530  0.80530  1.0000 0.1114742866
H   H114      1.0  0.02530  0.99490  0.69470  1.0000 0.1114742866
H   H115      1.0  0.00510  0.97470  0.19470  1.0000 0.1114742866
H   H116      1.0  0.97470  0.00510  0.30530  1.0000 0.1114742866
H   H117      1.0  0.90130  0.94690  0.78210  1.0000 0.1307187012
H   H118      1.0  0.94690  0.90130  0.71790  1.0000 0.1307187012
H   H119      1.0  0.09870  0.05310  0.21790  1.0000 0.1307187012
H   H120      1.0  0.05310  0.09870  0.28210  1.0000 0.1307187012
H   H121      1.0  0.97520  0.23500  0.78500  1.0000 0.1307187012
H   H122      1.0  0.23500  0.97520  0.71500  1.0000 0.1307187012
H   H123      1.0  0.02480  0.76500  0.21500  1.0000 0.1307187012
H   H124      1.0  0.76500  0.02480  0.28500  1.0000 0.1307187012
H   H125      1.0  0.89310  0.21290  0.80880  1.0000 0.1307187012
H   H126      1.0  0.21290  0.89310  0.69120  1.0000 0.1307187012
H   H127      1.0  0.10690  0.78710  0.19120  1.0000 0.1386990156
H   H128      1.0  0.78710  0.10690  0.30880  1.0000 0.1307187012
H   H129      1.0  0.99930  0.19710  0.81730  1.0000 0.1196092463
H   H130      1.0  0.19710  0.99930  0.68270  1.0000 0.1196092463
H   H131      1.0  0.00070  0.80290  0.18270  1.0000 0.1196092463
H   H132      1.0  0.80290  0.00070  0.31730  1.0000 0.1196092463
H   H133      1.0  0.74540  0.97900  0.76240  1.0000 0.1307187012
H   H134      1.0  0.97900  0.74540  0.73760  1.0000 0.1307187012
H   H135      1.0  0.25460  0.02100  0.23760  1.0000 0.1307187012
H   H136      1.0  0.02100  0.25460  0.26240  1.0000 0.1307187012
H   H137      1.0  0.72660  0.06780  0.77530  1.0000 0.1386990156
H   H138      1.0  0.06780  0.72660  0.72470  1.0000 0.1386990156
H   H139      1.0  0.27340  0.93220  0.22470  1.0000 0.1386990156
H   H140      1.0  0.93220  0.27340  0.27530  1.0000 0.1386990156
H   H141      1.0  0.82400  0.11080  0.75420  1.0000 0.1307187012
H   H142      1.0  0.11080  0.82400  0.74580  1.0000 0.1307187012
H   H143      1.0  0.17600  0.88920  0.24580  1.0000 0.1307187012
H   H144      1.0  0.88920  0.17600  0.25420  1.0000 0.1307187012
H   H145      1.0  0.13750  0.38670  0.88610  1.0000 0.1114742866
H   H146      1.0  0.38670  0.13750  0.61390  1.0000 0.1114742866
H   H147      1.0  0.86250  0.61330  0.11390  1.0000 0.1114742866
H   H148      1.0  0.61330  0.86250  0.38610  1.0000 0.1114742866
H   H149      1.0  0.13460  0.21880  0.88460  1.0000 0.147661607
H   H150      1.0  0.21880  0.13460  0.61540  1.0000 0.147661607
H   H151      1.0  0.86540  0.78120  0.11540  1.0000 0.147661607
H   H152      1.0  0.78120  0.86540  0.38460  1.0000 0.147661607
H   H153      1.0  0.46080  0.40360  0.86400  1.0000 0.1386990156
H   H154      1.0  0.40360  0.46080  0.63600  1.0000 0.1386990156
H   H155      1.0  0.53920  0.59640  0.13600  1.0000 0.1386990156
H   H156      1.0  0.59640  0.53920  0.36400  1.0000 0.1386990156
H   H157      1.0  0.45610  0.56650  0.86680  1.0000 0.1114742866
H   H158      1.0  0.56650  0.45610  0.63320  1.0000 0.1114742866
H   H159      1.0  0.54390  0.43350  0.13320  1.0000 0.1114742866
H   H160      1.0  0.43350  0.54390  0.36680  1.0000 0.1114742866
H   H161      1.0  0.37340  0.20000  0.86800  1.0000 0.1196092463
H   H162      1.0  0.20000  0.37340  0.63200  1.0000 0.1196092463
H   H163      1.0  0.62660  0.80000  0.13200  1.0000 0.1196092463
H   H164      1.0  0.80000  0.62660  0.36800  1.0000 0.1196092463
H   H165      1.0  0.15350  0.06470  0.88330  1.0000 0.1307187012
H   H166      1.0  0.06470  0.15350  0.61670  1.0000 0.1307187012
H   H167      1.0  0.84650  0.93530  0.11670  1.0000 0.1307187012
H   H168      1.0  0.93530  0.84650  0.38330  1.0000 0.1307187012
H   H169      1.0  0.07480  0.85680  0.88140  1.0000 0.1386990156
H   H170      1.0  0.85680  0.07480  0.61860  1.0000 0.1386990156
H   H171      1.0  0.92520  0.14320  0.11860  1.0000 0.1386990156
H   H172      1.0  0.14320  0.92520  0.38140  1.0000 0.1386990156
H   H173      1.0  0.10210  0.70510  0.88120  1.0000 0.1196092463
H   H174      1.0  0.70510  0.10210  0.61880  1.0000 0.1196092463
H   H175      1.0  0.89790  0.29490  0.11880  1.0000 0.1196092463
H   H176      1.0  0.29490  0.89790  0.38120  1.0000 0.1196092463
H   H177      1.0  0.43120  0.91020  0.87920  1.0000 0.1114742866
H   H178      1.0  0.91020  0.43120  0.62080  1.0000 0.1114742866
H   H179      1.0  0.56880  0.08980  0.12080  1.0000 0.1114742866
H   H180      1.0  0.08980  0.56880  0.37920  1.0000 0.1114742866
H   H181      1.0  0.41310  0.06650  0.87860  1.0000 0.1307187012
H   H182      1.0  0.06650  0.41310  0.62140  1.0000 0.1307187012
H   H183      1.0  0.58690  0.93350  0.12140  1.0000 0.1307187012
H   H184      1.0  0.93350  0.58690  0.37860  1.0000 0.1307187012
H   H185      1.0  0.47440  0.94240  0.78110  1.0000 0.1196092463
H   H186      1.0  0.94240  0.47440  0.71890  1.0000 0.1196092463
H   H187      1.0  0.52560  0.05760  0.21890  1.0000 0.1196092463
H   H188      1.0  0.05760  0.52560  0.28110  1.0000 0.1196092463
H   H189      1.0  0.47600  0.11020  0.78160  1.0000 0.1386990156
H   H190      1.0  0.11020  0.47600  0.71840  1.0000 0.147661607
H   H191      1.0  0.52400  0.88980  0.21840  1.0000 0.1386990156
H   H192      1.0  0.88980  0.52400  0.28160  1.0000 0.1386990156
H   H193      1.0  0.15630  0.92450  0.80720  1.0000 0.1386990156
H   H194      1.0  0.92450  0.15630  0.69280  1.0000 0.1386990156
H   H195      1.0  0.84370  0.07550  0.19280  1.0000 0.1386990156
H   H196      1.0  0.07550  0.84370  0.30720  1.0000 0.1386990156
H   H197      1.0  0.16210  0.76230  0.80490  1.0000 0.1114742866
H   H198      1.0  0.76230  0.16210  0.69510  1.0000 0.1114742866
H   H199      1.0  0.83790  0.23770  0.19510  1.0000 0.1114742866
H   H200      1.0  0.23770  0.83790  0.30490  1.0000 0.1114742866
H   H201      1.0  0.23740  0.12680  0.80030  1.0000 0.1196092463
H   H202      1.0  0.12680  0.23740  0.69970  1.0000 0.1196092463
H   H203      1.0  0.76260  0.87320  0.19970  1.0000 0.1196092463
H   H204      1.0  0.87320  0.76260  0.30030  1.0000 0.1196092463
H   H205      1.0  0.45700  0.26260  0.78460  1.0000 0.1307187012
H   H206      1.0  0.26260  0.45700  0.71540  1.0000 0.1307187012
H   H207      1.0  0.54300  0.73740  0.21540  1.0000 0.1307187012
H   H208      1.0  0.73740  0.54300  0.28460  1.0000 0.1307187012
H   H209      1.0  0.53510  0.47010  0.78710  1.0000 0.1386990156
H   H210      1.0  0.47010  0.53510  0.71290  1.0000 0.1386990156
H   H211      1.0  0.46490  0.52990  0.21290  1.0000 0.1386990156
H   H212      1.0  0.52990  0.46490  0.28710  1.0000 0.1386990156
H   H213      1.0  0.50770  0.62110  0.78840  1.0000 0.1196092463
H   H214      1.0  0.62110  0.50770  0.71160  1.0000 0.1196092463
H   H215      1.0  0.49230  0.37890  0.21160  1.0000 0.1196092463
H   H216      1.0  0.37890  0.49230  0.28840  1.0000 0.1196092463
H   H217      1.0  0.17970  0.41670  0.79030  1.0000 0.1114742866
H   H218      1.0  0.41670  0.17970  0.70970  1.0000 0.1114742866
H   H219      1.0  0.82030  0.58330  0.20970  1.0000 0.1114742866
H   H220      1.0  0.58330  0.82030  0.29030  1.0000 0.1114742866
H   H221      1.0  0.19860  0.26040  0.79020  1.0000 0.1307187012
H   H222      1.0  0.26040  0.19860  0.70980  1.0000 0.1307187012
H   H223      1.0  0.80140  0.73960  0.20980  1.0000 0.1307187012
H   H224      1.0  0.73960  0.80140  0.29020  1.0000 0.1307187012
H   H225      1.0  0.87030  0.15330  0.96810  1.0000 0.1114742866
H   H226      1.0  0.15330  0.87030  0.53190  1.0000 0.1114742866
H   H227      1.0  0.12970  0.84670  0.03190  1.0000 0.1114742866
H   H228      1.0  0.84670  0.12970  0.46810  1.0000 0.1114742866
H   H229      1.0  0.70810  0.15830  0.97120  1.0000 0.1307187012
H   H230      1.0  0.15830  0.70810  0.52880  1.0000 0.1307187012
H   H231      1.0  0.29190  0.84170  0.02880  1.0000 0.1386990156
H   H232      1.0  0.84170  0.29190  0.47120  1.0000 0.1307187012
H   H233      1.0  0.52240  0.83200  0.95010  1.0000 0.147661607
H   H234      1.0  0.83200  0.52240  0.54990  1.0000 0.147661607
H   H235      1.0  0.47760  0.16800  0.04990  1.0000 0.147661607
H   H236      1.0  0.16800  0.47760  0.45010  1.0000 0.147661607
H   H237      1.0  0.68940  0.83440  0.94940  1.0000 0.1196092463
H   H238      1.0  0.83440  0.68940  0.55060  1.0000 0.1196092463
H   H239      1.0  0.31060  0.16560  0.05060  1.0000 0.1196092463
H   H240      1.0  0.16560  0.31060  0.44940  1.0000 0.1196092463
H   H241      1.0  0.50380  0.07380  0.96580  1.0000 0.1196092463
H   H242      1.0  0.07380  0.50380  0.53420  1.0000 0.1196092463
H   H243      1.0  0.49620  0.92620  0.03420  1.0000 0.1196092463
H   H244      1.0  0.92620  0.49620  0.46580  1.0000 0.1196092463
H   H245      1.0  0.36820  0.85080  0.95290  1.0000 0.1307187012
H   H246      1.0  0.85080  0.36820  0.54710  1.0000 0.1307187012
H   H247      1.0  0.63180  0.14920  0.04710  1.0000 0.1307187012
H   H248      1.0  0.14920  0.63180  0.45290  1.0000 0.1307187012
H   H249      1.0  0.36960  0.11120  0.95420  1.0000 0.1307187012
H   H250      1.0  0.11120  0.36960  0.54580  1.0000 0.1307187012
H   H251      1.0  0.63040  0.88880  0.04580  1.0000 0.1307187012
H   H252      1.0  0.88880  0.63040  0.45420  1.0000 0.1307187012
H   H253      1.0  0.21300  0.12940  0.95420  1.0000 0.1114742866
H   H254      1.0  0.12940  0.21300  0.54580  1.0000 0.1114742866
H   H255      1.0  0.78700  0.87060  0.04580  1.0000 0.1114742866
H   H256      1.0  0.87060  0.78700  0.45420  1.0000 0.1114742866
H   H257      1.0  0.01070  0.79850  0.95900  1.0000 0.1114742866
H   H258      1.0  0.79850  0.01070  0.54100  1.0000 0.1114742866
H   H259      1.0  0.98930  0.20150  0.04100  1.0000 0.1114742866
H   H260      1.0  0.20150  0.98930  0.45900  1.0000 0.1114742866
H   H261      1.0  0.16180  0.77160  0.95800  1.0000 0.1386990156
H   H262      1.0  0.77160  0.16180  0.54200  1.0000 0.1386990156
H   H263      1.0  0.83820  0.22840  0.04200  1.0000 0.1386990156
H   H264      1.0  0.22840  0.83820  0.45800  1.0000 0.1386990156
C   C1        1.0  0.25366  0.50834  0.96164  1.0000 -0.0109619638
C   C2        1.0  0.50834  0.25366  0.53836  1.0000 -0.0109619638
C   C3        1.0  0.74634  0.49166  0.03836  1.0000 -0.0109619638
C   C4        1.0  0.49166  0.74634  0.46164  1.0000 -0.0109619638
C   C5        1.0  0.17810  0.39070  0.96319  1.0000 -0.1398906002
C   C6        1.0  0.39070  0.17810  0.53681  1.0000 -0.1398906002
C   C7        1.0  0.82190  0.60930  0.03681  1.0000 -0.1398906002
C   C8        1.0  0.60930  0.82190  0.46319  1.0000 -0.1398906002
C   C9        1.0  0.17938  0.32442  0.98844  1.0000 -0.0275741374
C   C10       1.0  0.32442  0.17938  0.51156  1.0000 -0.0275741374
C   C11       1.0  0.82062  0.67558  0.01156  1.0000 -0.0275741374
C   C12       1.0  0.67558  0.82062  0.48844  1.0000 -0.0275741374
C   C13       1.0  0.25276  0.37744  0.01270  1.0000 -0.1710336658
C   C14       1.0  0.37744  0.25276  0.48730  1.0000 -0.1710336658
C   C15       1.0  0.74724  0.62256  0.98730  1.0000 -0.1710336658
C   C16       1.0  0.62256  0.74724  0.51270  1.0000 -0.1710336658
C   C17       1.0  0.32909  0.49511  0.01183  1.0000 0.0709809578
C   C18       1.0  0.49511  0.32909  0.48817  1.0000 0.0709809578
C   C19       1.0  0.67091  0.50489  0.98817  1.0000 0.0709809578
C   C20       1.0  0.50489  0.67091  0.51183  1.0000 0.0709809578
C   C21       1.0  0.32895  0.55845  0.98577  1.0000 -0.1710336658
C   C22       1.0  0.55845  0.32895  0.51423  1.0000 -0.1710336658
C   C23       1.0  0.67105  0.44155  0.01423  1.0000 -0.1710336658
C   C24       1.0  0.44155  0.67105  0.48577  1.0000 -0.1710336658
C   C25       1.0  0.26161  0.57699  0.93310  1.0000 0.5210921557
C   C26       1.0  0.57699  0.26161  0.56690  1.0000 0.5210921557
C   C27       1.0  0.73839  0.42301  0.06690  1.0000 0.5210921557
C   C28       1.0  0.42301  0.73839  0.43310  1.0000 0.5210921557
C   C29       1.0  0.10675  0.19565  0.98949  1.0000 0.5615137956
C   C30       1.0  0.19565  0.10675  0.51051  1.0000 0.5615137956
C   C31       1.0  0.89325  0.80435  0.01051  1.0000 0.5615137956
C   C32       1.0  0.80435  0.89325  0.48949  1.0000 0.5615137956
C   C33       1.0  0.41170  0.55350  0.03809  1.0000 0.2615248441
C   C34       1.0  0.55350  0.41170  0.46191  1.0000 0.2615248441
C   C35       1.0  0.58830  0.44650  0.96191  1.0000 0.2615248441
C   C36       1.0  0.44650  0.58830  0.53809  1.0000 0.2615248441
C   C37       1.0  0.41340  0.46740  0.06177  1.0000 -0.4606861481
C   C38       1.0  0.46740  0.41340  0.43823  1.0000 -0.4606861481
C   C39       1.0  0.58660  0.53260  0.93823  1.0000 -0.4606861481
C   C40       1.0  0.53260  0.58660  0.56177  1.0000 -0.4606861481
C   C41       1.0  0.37720  0.62900  0.04949  1.0000 -0.4606861481
C   C42       1.0  0.62900  0.37720  0.45051  1.0000 -0.4606861481
C   C43       1.0  0.62280  0.37100  0.95051  1.0000 -0.4606861481
C   C44       1.0  0.37100  0.62280  0.54949  1.0000 -0.4606861481
C   C45       1.0  0.53420  0.63080  0.02899  1.0000 -0.4714025342
C   C46       1.0  0.63080  0.53420  0.47101  1.0000 -0.4714025342
C   C47       1.0  0.46580  0.36920  0.97101  1.0000 -0.4714025342
C   C48       1.0  0.36920  0.46580  0.52899  1.0000 -0.4714025342
C   C49       1.0  0.98553  0.47067  0.82249  1.0000 -0.0275741374
C   C50       1.0  0.47067  0.98553  0.67751  1.0000 -0.0275741374
C   C51       1.0  0.01447  0.52933  0.17751  1.0000 -0.0275741374
C   C52       1.0  0.52933  0.01447  0.32249  1.0000 -0.0275741374
C   C53       1.0  0.92766  0.41034  0.84741  1.0000 -0.1710336658
C   C54       1.0  0.41034  0.92766  0.65259  1.0000 -0.1710336658
C   C55       1.0  0.07234  0.58966  0.15259  1.0000 -0.1710336658
C   C56       1.0  0.58966  0.07234  0.34741  1.0000 -0.1710336658
C   C57       1.0  0.81001  0.33059  0.84543  1.0000 0.0709809578
C   C58       1.0  0.33059  0.81001  0.65457  1.0000 0.0709809578
C   C59       1.0  0.18999  0.66941  0.15457  1.0000 0.0709809578
C   C60       1.0  0.66941  0.18999  0.34543  1.0000 0.0709809578
C   C61       1.0  0.75280  0.31500  0.81782  1.0000 -0.1710336658
C   C62       1.0  0.31500  0.75280  0.68218  1.0000 -0.1710336658
C   C63       1.0  0.24720  0.68500  0.18218  1.0000 -0.1710336658
C   C64       1.0  0.68500  0.24720  0.31782  1.0000 -0.1710336658
C   C65       1.0  0.80781  0.37759  0.79291  1.0000 -0.0109619638
C   C66       1.0  0.37759  0.80781  0.70709  1.0000 -0.0109619638
C   C67       1.0  0.19219  0.62241  0.20709  1.0000 -0.0109619638
C   C68       1.0  0.62241  0.19219  0.29291  1.0000 -0.0109619638
C   C69       1.0  0.92527  0.45533  0.79543  1.0000 -0.1342228511
C   C70       1.0  0.45533  0.92527  0.70457  1.0000 -0.1398906002
C   C71       1.0  0.07473  0.54467  0.20457  1.0000 -0.1398906002
C   C72       1.0  0.54467  0.07473  0.29543  1.0000 -0.1342228511
C   C73       1.0  0.11303  0.55217  0.82541  1.0000 0.5615137956
C   C74       1.0  0.55217  0.11303  0.67459  1.0000 0.5615137956
C   C75       1.0  0.88697  0.44783  0.17459  1.0000 0.5615137956
C   C76       1.0  0.44783  0.88697  0.32541  1.0000 0.5615137956
C   C77       1.0  0.74511  0.35889  0.76326  1.0000 0.5210921557
C   C78       1.0  0.35889  0.74511  0.73674  1.0000 0.5210921557
C   C79       1.0  0.25489  0.64111  0.23674  1.0000 0.5210921557
C   C80       1.0  0.64111  0.25489  0.26326  1.0000 0.5210921557
C   C81       1.0  0.74600  0.26260  0.87266  1.0000 0.2615248441
C   C82       1.0  0.26260  0.74600  0.62734  1.0000 0.2615248441
C   C83       1.0  0.25400  0.73740  0.12734  1.0000 0.2615248441
C   C84       1.0  0.73740  0.25400  0.37266  1.0000 0.2615248441
C   C85       1.0  0.65560  0.29580  0.87548  1.0000 -0.4494865657
C   C86       1.0  0.29580  0.65560  0.62452  1.0000 -0.4494865657
C   C87       1.0  0.34440  0.70420  0.12452  1.0000 -0.4494865657
C   C88       1.0  0.70420  0.34440  0.37548  1.0000 -0.4494865657
C   C89       1.0  0.68210  0.13670  0.86880  1.0000 -0.4771062293
C   C90       1.0  0.13670  0.68210  0.63120  1.0000 -0.4771062293
C   C91       1.0  0.31790  0.86330  0.13120  1.0000 -0.4771062293
C   C92       1.0  0.86330  0.31790  0.36880  1.0000 -0.4771062293
C   C93       1.0  0.82150  0.29210  0.89992  1.0000 -0.4494865657
C   C94       1.0  0.29210  0.82150  0.60008  1.0000 -0.4494865657
C   C95       1.0  0.17850  0.70790  0.10008  1.0000 -0.4494865657
C   C96       1.0  0.70790  0.17850  0.39992  1.0000 -0.4494865657
C   C97       1.0  0.63057  0.85143  0.84661  1.0000 -0.0275741374
C   C98       1.0  0.85143  0.63057  0.65339  1.0000 -0.0275741374
C   C99       1.0  0.36943  0.14857  0.15339  1.0000 -0.0275741374
C   C100      1.0  0.14857  0.36943  0.34661  1.0000 -0.0275741374
C   C101      1.0  0.69392  0.85988  0.87294  1.0000 -0.1398906002
C   C102      1.0  0.85988  0.69392  0.62706  1.0000 -0.1398906002
C   C103      1.0  0.30608  0.14012  0.12706  1.0000 -0.1398906002
C   C104      1.0  0.14012  0.30608  0.37294  1.0000 -0.1398906002
C   C105      1.0  0.81254  0.93266  0.87449  1.0000 -0.0047956606
C   C106      1.0  0.93266  0.81254  0.62551  1.0000 -0.0047956606
C   C107      1.0  0.18746  0.06734  0.12551  1.0000 -0.0047956606
C   C108      1.0  0.06734  0.18746  0.37449  1.0000 -0.0047956606
C   C109      1.0  0.86561  0.99779  0.84946  1.0000 -0.1710336658
C   C110      1.0  0.99779  0.86561  0.65054  1.0000 -0.1710336658
C   C111      1.0  0.13439  0.00221  0.15054  1.0000 -0.1710336658
C   C112      1.0  0.00221  0.13439  0.34946  1.0000 -0.1710336658
C   C113      1.0  0.80438  0.98982  0.82254  1.0000 0.0709809578
C   C114      1.0  0.98982  0.80438  0.67746  1.0000 0.0709809578
C   C115      1.0  0.19562  0.01018  0.17746  1.0000 0.0709809578
C   C116      1.0  0.01018  0.19562  0.32254  1.0000 0.0709809578
C   C117      1.0  0.68557  0.91403  0.82160  1.0000 -0.1710336658
C   C118      1.0  0.91403  0.68557  0.67840  1.0000 -0.1710336658
C   C119      1.0  0.31443  0.08597  0.17840  1.0000 -0.1710336658
C   C120      1.0  0.08597  0.31443  0.32160  1.0000 -0.1710336658
C   C121      1.0  0.50206  0.77474  0.84478  1.0000 0.5661032042
C   C122      1.0  0.77474  0.50206  0.65522  1.0000 0.5661032042
C   C123      1.0  0.49794  0.22526  0.15522  1.0000 0.5661032042
C   C124      1.0  0.22526  0.49794  0.34478  1.0000 0.5661032042
C   C125      1.0  0.88115  0.94765  0.90345  1.0000 0.5210921557
C   C126      1.0  0.94765  0.88115  0.59655  1.0000 0.5210921557
C   C127      1.0  0.11885  0.05235  0.09655  1.0000 0.5210921557
C   C128      1.0  0.05235  0.11885  0.40345  1.0000 0.5210921557
C   C129      1.0  0.86610  0.06170  0.79537  1.0000 0.2709020219
C   C130      1.0  0.06170  0.86610  0.70463  1.0000 0.2709020219
C   C131      1.0  0.13390  0.93830  0.20463  1.0000 0.2709020219
C   C132      1.0  0.93830  0.13390  0.29537  1.0000 0.2709020219
C   C133      1.0  0.94580  0.02360  0.78827  1.0000 -0.4606861481
C   C134      1.0  0.02360  0.94580  0.71173  1.0000 -0.4606861481
C   C135      1.0  0.05420  0.97640  0.21173  1.0000 -0.4606861481
C   C136      1.0  0.97640  0.05420  0.28827  1.0000 -0.4606861481
C   C137      1.0  0.94040  0.18860  0.80226  1.0000 -0.4714025342
C   C138      1.0  0.18860  0.94040  0.69774  1.0000 -0.4714025342
C   C139      1.0  0.05960  0.81140  0.19774  1.0000 -0.4714025342
C   C140      1.0  0.81140  0.05960  0.30226  1.0000 -0.4714025342
C   C141      1.0  0.78290  0.05410  0.76944  1.0000 -0.4606861481
C   C142      1.0  0.05410  0.78290  0.73056  1.0000 -0.4606861481
C   C143      1.0  0.21710  0.94590  0.23056  1.0000 -0.4606861481
C   C144      1.0  0.94590  0.21710  0.26944  1.0000 -0.4606861481
C   C145      1.0  0.20387  0.39013  0.88183  1.0000 0.089851779
C   C146      1.0  0.39013  0.20387  0.61817  1.0000 0.089851779
C   C147      1.0  0.79613  0.60987  0.11817  1.0000 0.089851779
C   C148      1.0  0.60987  0.79613  0.38183  1.0000 0.089851779
C   C149      1.0  0.20132  0.28848  0.88080  1.0000 -0.1870660716
C   C150      1.0  0.28848  0.20132  0.61920  1.0000 -0.1870660716
C   C151      1.0  0.79868  0.71152  0.11920  1.0000 -0.1870660716
C   C152      1.0  0.71152  0.79868  0.38080  1.0000 -0.1870660716
C   C153      1.0  0.29813  0.29007  0.87418  1.0000 0.1573235273
C   C154      1.0  0.29007  0.29813  0.62582  1.0000 0.1573235273
C   C155      1.0  0.70187  0.70993  0.12582  1.0000 0.1573235273
C   C156      1.0  0.70993  0.70187  0.37418  1.0000 0.1573235273
C   C157      1.0  0.39394  0.39766  0.86875  1.0000 -0.2014815396
C   C158      1.0  0.39766  0.39394  0.63125  1.0000 -0.2014815396
C   C159      1.0  0.60606  0.60234  0.13125  1.0000 -0.2014815396
C   C160      1.0  0.60234  0.60606  0.36875  1.0000 -0.2014815396
C   C161      1.0  0.39046  0.49574  0.87041  1.0000 0.089851779
C   C162      1.0  0.49574  0.39046  0.62959  1.0000 0.089851779
C   C163      1.0  0.60954  0.50426  0.12959  1.0000 0.089851779
C   C164      1.0  0.50426  0.60954  0.37041  1.0000 0.089851779
C   C165      1.0  0.30430  0.18770  0.87332  1.0000 -0.151122575
C   C166      1.0  0.18770  0.30430  0.62668  1.0000 -0.151122575
C   C167      1.0  0.69570  0.81230  0.12668  1.0000 -0.151122575
C   C168      1.0  0.81230  0.69570  0.37332  1.0000 -0.151122575
C   C169      1.0  0.22478  0.07962  0.87903  1.0000 -0.151122575
C   C170      1.0  0.07962  0.22478  0.62097  1.0000 -0.151122575
C   C171      1.0  0.77522  0.92038  0.12097  1.0000 -0.1398906002
C   C172      1.0  0.92038  0.77522  0.37903  1.0000 -0.151122575
C   C173      1.0  0.24023  0.98117  0.87914  1.0000 0.147661607
C   C174      1.0  0.98117  0.24023  0.62086  1.0000 0.147661607
C   C175      1.0  0.75977  0.01883  0.12086  1.0000 0.147661607
C   C176      1.0  0.01883  0.75977  0.37914  1.0000 0.147661607
C   C177      1.0  0.14845  0.87035  0.88057  1.0000 -0.2014815396
C   C178      1.0  0.87035  0.14845  0.61943  1.0000 -0.2014815396
C   C179      1.0  0.85155  0.12965  0.11943  1.0000 -0.2014815396
C   C180      1.0  0.12965  0.85155  0.38057  1.0000 -0.2014815396
C   C181      1.0  0.16573  0.77907  0.88079  1.0000 0.089851779
C   C182      1.0  0.77907  0.16573  0.61921  1.0000 0.089851779
C   C183      1.0  0.83427  0.22093  0.11921  1.0000 0.089851779
C   C184      1.0  0.22093  0.83427  0.38079  1.0000 0.089851779
C   C185      1.0  0.35821  0.89899  0.87950  1.0000 0.0830624877
C   C186      1.0  0.89899  0.35821  0.62050  1.0000 0.0830624877
C   C187      1.0  0.64179  0.10101  0.12050  1.0000 0.0830624877
C   C188      1.0  0.10101  0.64179  0.37950  1.0000 0.0830624877
C   C189      1.0  0.34785  0.99355  0.87903  1.0000 -0.2014815396
C   C190      1.0  0.99355  0.34785  0.62097  1.0000 -0.2014815396
C   C191      1.0  0.65215  0.00645  0.12097  1.0000 -0.2014815396
C   C192      1.0  0.00645  0.65215  0.37903  1.0000 -0.2014815396
C   C193      1.0  0.40899  0.93901  0.78606  1.0000 0.0830624877
C   C194      1.0  0.93901  0.40899  0.71394  1.0000 0.0830624877
C   C195      1.0  0.59101  0.06099  0.21394  1.0000 0.0830624877
C   C196      1.0  0.06099  0.59101  0.28606  1.0000 0.0830624877
C   C197      1.0  0.41097  0.04043  0.78651  1.0000 -0.1870660716
C   C198      1.0  0.04043  0.41097  0.71349  1.0000 -0.1870660716
C   C199      1.0  0.58903  0.95957  0.21349  1.0000 -0.1870660716
C   C200      1.0  0.95957  0.58903  0.28651  1.0000 -0.1870660716
C   C201      1.0  0.31533  0.03767  0.79428  1.0000 0.1573235273
C   C202      1.0  0.03767  0.31533  0.70572  1.0000 0.1573235273
C   C203      1.0  0.68467  0.96233  0.20572  1.0000 0.1573235273
C   C204      1.0  0.96233  0.68467  0.29428  1.0000 0.1573235273
C   C205      1.0  0.22189  0.93031  0.80146  1.0000 -0.2014815396
C   C206      1.0  0.93031  0.22189  0.69854  1.0000 -0.2014815396
C   C207      1.0  0.77811  0.06969  0.19854  1.0000 -0.2014815396
C   C208      1.0  0.06969  0.77811  0.30146  1.0000 -0.2014815396
C   C209      1.0  0.22630  0.83310  0.80015  1.0000 0.089851779
C   C210      1.0  0.83310  0.22630  0.69985  1.0000 0.089851779
C   C211      1.0  0.77370  0.16690  0.19985  1.0000 0.089851779
C   C212      1.0  0.16690  0.77370  0.30015  1.0000 0.089851779
C   C213      1.0  0.30679  0.13961  0.79505  1.0000 -0.151122575
C   C214      1.0  0.13961  0.30679  0.70495  1.0000 -0.151122575
C   C215      1.0  0.69321  0.86039  0.20495  1.0000 -0.151122575
C   C216      1.0  0.86039  0.69321  0.29505  1.0000 -0.151122575
C   C217      1.0  0.38602  0.24738  0.78918  1.0000 -0.1398906002
C   C218      1.0  0.24738  0.38602  0.71082  1.0000 -0.1398906002
C   C219      1.0  0.61398  0.75262  0.21082  1.0000 -0.1398906002
C   C220      1.0  0.75262  0.61398  0.28918  1.0000 -0.1398906002
C   C221      1.0  0.36949  0.34511  0.78942  1.0000 0.147661607
C   C222      1.0  0.34511  0.36949  0.71058  1.0000 0.147661607
C   C223      1.0  0.63051  0.65489  0.21058  1.0000 0.147661607
C   C224      1.0  0.65489  0.63051  0.28942  1.0000 0.147661607
C   C225      1.0  0.46150  0.45630  0.78820  1.0000 -0.2071748086
C   C226      1.0  0.45630  0.46150  0.71180  1.0000 -0.2071748086
C   C227      1.0  0.53850  0.54370  0.21180  1.0000 -0.2071748086
C   C228      1.0  0.54370  0.53850  0.28820  1.0000 -0.2071748086
C   C229      1.0  0.44410  0.54710  0.78859  1.0000 0.089851779
C   C230      1.0  0.54710  0.44410  0.71141  1.0000 0.089851779
C   C231      1.0  0.55590  0.45290  0.21141  1.0000 0.089851779
C   C232      1.0  0.45290  0.55590  0.28859  1.0000 0.089851779
C   C233      1.0  0.25279  0.42801  0.78985  1.0000 0.089851779
C   C234      1.0  0.42801  0.25279  0.71015  1.0000 0.089851779
C   C235      1.0  0.74721  0.57199  0.21015  1.0000 0.089851779
C   C236      1.0  0.57199  0.74721  0.28985  1.0000 0.089851779
C   C237      1.0  0.26371  0.33329  0.78988  1.0000 -0.2014815396
C   C238      1.0  0.33329  0.26371  0.71012  1.0000 -0.2014815396
C   C239      1.0  0.73629  0.66667  0.21012  1.0000 -0.2014815396
C   C240      1.0  0.66667  0.73629  0.28988  1.0000 -0.2014815396
C   C241      1.0  0.79940  0.08760  0.96461  1.0000 0.089851779
C   C242      1.0  0.08760  0.79940  0.53539  1.0000 0.089851779
C   C243      1.0  0.20060  0.91240  0.03539  1.0000 0.089851779
C   C244      1.0  0.91240  0.20060  0.46461  1.0000 0.089851779
C   C245      1.0  0.70205  0.09155  0.96628  1.0000 -0.2071748086
C   C246      1.0  0.09155  0.70205  0.53372  1.0000 -0.2071748086
C   C247      1.0  0.29795  0.90845  0.03372  1.0000 -0.2071748086
C   C248      1.0  0.90845  0.29795  0.46628  1.0000 -0.2071748086
C   C249      1.0  0.59477  0.99623  0.96061  1.0000 0.1573235273
C   C250      1.0  0.99623  0.59477  0.53939  1.0000 0.1573235273
C   C251      1.0  0.40523  0.00377  0.03939  1.0000 0.1573235273
C   C252      1.0  0.00377  0.40523  0.46061  1.0000 0.1573235273
C   C253      1.0  0.59213  0.89847  0.95405  1.0000 -0.1870660716
C   C254      1.0  0.89847  0.59213  0.54595  1.0000 -0.1870660716
C   C255      1.0  0.40787  0.10153  0.04595  1.0000 -0.1870660716
C   C256      1.0  0.10153  0.40787  0.45405  1.0000 -0.1870660716
C   C257      1.0  0.69303  0.90117  0.95343  1.0000 0.0830624877
C   C258      1.0  0.90117  0.69303  0.54657  1.0000 0.0830624877
C   C259      1.0  0.30697  0.09883  0.04657  1.0000 0.0830624877
C   C260      1.0  0.09883  0.30697  0.45343  1.0000 0.0830624877
C   C261      1.0  0.49126  0.00354  0.96140  1.0000 -0.1579206594
C   C262      1.0  0.00354  0.49126  0.53860  1.0000 -0.1579206594
C   C263      1.0  0.50874  0.99646  0.03860  1.0000 -0.1579206594
C   C264      1.0  0.99646  0.50874  0.46140  1.0000 -0.1579206594
C   C265      1.0  0.38325  0.92275  0.95658  1.0000 -0.1398906002
C   C266      1.0  0.92275  0.38325  0.54342  1.0000 -0.1398906002
C   C267      1.0  0.61675  0.07725  0.04342  1.0000 -0.1398906002
C   C268      1.0  0.07725  0.61675  0.45658  1.0000 -0.1398906002
C   C269      1.0  0.28518  0.93862  0.95670  1.0000 0.147661607
C   C270      1.0  0.93862  0.28518  0.54330  1.0000 0.147661607
C   C271      1.0  0.71482  0.06138  0.04330  1.0000 0.147661607
C   C272      1.0  0.06138  0.71482  0.45670  1.0000 0.147661607
C   C273      1.0  0.29710  0.04570  0.95523  1.0000 -0.2014815396
C   C274      1.0  0.04570  0.29710  0.54477  1.0000 -0.2014815396
C   C275      1.0  0.70290  0.95430  0.04477  1.0000 -0.2014815396
C   C276      1.0  0.95430  0.70290  0.45523  1.0000 -0.2014815396
C   C277      1.0  0.20222  0.05598  0.95525  1.0000 0.0830624877
C   C278      1.0  0.05598  0.20222  0.54475  1.0000 0.0830624877
C   C279      1.0  0.79778  0.94402  0.04475  1.0000 0.0830624877
C   C280      1.0  0.94402  0.79778  0.45525  1.0000 0.0830624877
C   C281      1.0  0.08407  0.86273  0.95789  1.0000 0.0830624877
C   C282      1.0  0.86273  0.08407  0.54211  1.0000 0.0830624877
C   C283      1.0  0.91593  0.13727  0.04211  1.0000 0.0830624877
C   C284      1.0  0.13727  0.91593  0.45789  1.0000 0.0830624877
C   C285      1.0  0.17493  0.84567  0.95759  1.0000 -0.2014815396
C   C286      1.0  0.84567  0.17493  0.54241  1.0000 -0.2014815396
C   C287      1.0  0.82507  0.15433  0.04241  1.0000 -0.2014815396
C   C288      1.0  0.15433  0.82507  0.45759  1.0000 -0.2014815396
N   N1        1.0  0.29709  0.49371  0.87697  1.0000 -0.2451215097
N   N2        1.0  0.49371  0.29709  0.62303  1.0000 -0.2451215097
N   N3        1.0  0.70291  0.50629  0.12303  1.0000 -0.2451215097
N   N4        1.0  0.50629  0.70291  0.37697  1.0000 -0.2451215097
N   N5        1.0  0.26914  0.79186  0.88043  1.0000 -0.2344946833
N   N6        1.0  0.79186  0.26914  0.61957  1.0000 -0.2344946833
N   N7        1.0  0.73086  0.20814  0.11957  1.0000 -0.2344946833
N   N8        1.0  0.20814  0.73086  0.38043  1.0000 -0.2344946833
N   N9        1.0  0.31719  0.83461  0.79249  1.0000 -0.2451215097
N   N10       1.0  0.83461  0.31719  0.70751  1.0000 -0.2410840821
N   N11       1.0  0.68281  0.16539  0.20751  1.0000 -0.2410840821
N   N12       1.0  0.16539  0.68281  0.29249  1.0000 -0.2410840821
N   N13       1.0  0.34155  0.53425  0.78922  1.0000 -0.2227210672
N   N14       1.0  0.53425  0.34155  0.71078  1.0000 -0.2227210672
N   N15       1.0  0.65845  0.46575  0.21078  1.0000 -0.2227210672
N   N16       1.0  0.46575  0.65845  0.28922  1.0000 -0.2227210672
N   N17       1.0  0.79742  0.99418  0.95824  1.0000 -0.2410840821
N   N18       1.0  0.99418  0.79742  0.54176  1.0000 -0.2410840821
N   N19       1.0  0.20258  0.00582  0.04176  1.0000 -0.2410840821
N   N20       1.0  0.00582  0.20258  0.45824  1.0000 -0.2410840821
N   N21       1.0  0.09557  0.96643  0.95665  1.0000 -0.2410840821
N   N22       1.0  0.96643  0.09557  0.54335  1.0000 -0.2410840821
N   N23       1.0  0.90443  0.03357  0.04335  1.0000 -0.2410840821
N   N24       1.0  0.03357  0.90443  0.45665  1.0000 -0.2410840821
O   O1        1.0  0.17445  0.54639  0.91536  1.0000 -0.5513980427
O   O2        1.0  0.54639  0.17445  0.58464  1.0000 -0.5513980427
O   O3        1.0  0.82555  0.45361  0.08464  1.0000 -0.5513980427
O   O4        1.0  0.45361  0.82555  0.41536  1.0000 -0.5513980427
O   O5        1.0  0.35757  0.65971  0.92608  1.0000 -0.5513980427
O   O6        1.0  0.65971  0.35757  0.57392  1.0000 -0.5513980427
O   O7        1.0  0.64243  0.34029  0.07392  1.0000 -0.5513980427
O   O8        1.0  0.34029  0.64243  0.42608  1.0000 -0.5513980427
O   O9        1.0  0.04720  0.15166  0.96668  1.0000 -0.5513980427
O   O10       1.0  0.15166  0.04720  0.53332  1.0000 -0.5513980427
O   O11       1.0  0.95280  0.84834  0.03332  1.0000 -0.5513980427
O   O12       1.0  0.84834  0.95280  0.46668  1.0000 -0.5513980427
O   O13       1.0  0.11344  0.14102  0.01260  1.0000 -0.5513980427
O   O14       1.0  0.14102  0.11344  0.48740  1.0000 -0.5513980427
O   O15       1.0  0.88656  0.85898  0.98740  1.0000 -0.5513980427
O   O16       1.0  0.85898  0.88656  0.51260  1.0000 -0.5513980427
O   O17       1.0  0.15730  0.58812  0.84977  1.0000 -0.5513980427
O   O18       1.0  0.58812  0.15730  0.65023  1.0000 -0.5513980427
O   O19       1.0  0.84270  0.41188  0.15023  1.0000 -0.5513980427
O   O20       1.0  0.41188  0.84270  0.34977  1.0000 -0.5513980427
O   O21       1.0  0.16457  0.57829  0.80257  1.0000 -0.557221786
O   O22       1.0  0.57829  0.16457  0.69743  1.0000 -0.557221786
O   O23       1.0  0.83543  0.42171  0.19743  1.0000 -0.557221786
O   O24       1.0  0.42171  0.83543  0.30257  1.0000 -0.557221786
O   O25       1.0  0.77777  0.44103  0.74406  1.0000 -0.54027249
O   O26       1.0  0.44103  0.77777  0.75594  1.0000 -0.54027249
O   O27       1.0  0.22223  0.55897  0.25594  1.0000 -0.54027249
O   O28       1.0  0.55897  0.22223  0.24406  1.0000 -0.54027249
O   O29       1.0  0.66439  0.26041  0.75744  1.0000 -0.5513980427
O   O30       1.0  0.26041  0.66439  0.74256  1.0000 -0.5513980427
O   O31       1.0  0.33561  0.73959  0.24256  1.0000 -0.5513980427
O   O32       1.0  0.73959  0.33561  0.25744  1.0000 -0.5513980427
O   O33       1.0  0.45513  0.73777  0.82059  1.0000 -0.5513980427
O   O34       1.0  0.73777  0.45513  0.67941  1.0000 -0.5513980427
O   O35       1.0  0.54487  0.26223  0.17941  1.0000 -0.5513980427
O   O36       1.0  0.26223  0.54487  0.32059  1.0000 -0.5513980427
O   O37       1.0  0.45239  0.75229  0.86761  1.0000 -0.5513980427
O   O38       1.0  0.75229  0.45239  0.63239  1.0000 -0.5513980427
O   O39       1.0  0.54761  0.24771  0.13239  1.0000 -0.5513980427
O   O40       1.0  0.24771  0.54761  0.36761  1.0000 -0.5513980427
O   O41       1.0  0.85056  0.86348  0.92204  1.0000 -0.5513980427
O   O42       1.0  0.86348  0.85056  0.57796  1.0000 -0.5513980427
O   O43       1.0  0.14944  0.13652  0.07796  1.0000 -0.5513980427
O   O44       1.0  0.13652  0.14944  0.42204  1.0000 -0.5513980427
O   O45       1.0  0.96282  0.04478  0.90916  1.0000 -0.5513980427
O   O46       1.0  0.04478  0.96282  0.59084  1.0000 -0.5513980427
O   O47       1.0  0.03718  0.95522  0.09084  1.0000 -0.5513980427
O   O48       1.0  0.95522  0.03718  0.40916  1.0000 -0.5513980427
