# DDEC6 charges by PACMAN v1.1 (https://github.com/mtap-research/PACMAN-charge/)
data_2008[Co][nan]3[ASR]1
_chemical_formula_sum              "Co6 H16 C28 N4 O20"
_cell_length_a       11.1575
_cell_length_b       11.2606
_cell_length_c       11.424
_cell_angle_alpha    76.762
_cell_angle_beta     65.814
_cell_angle_gamma    80.68

_symmetry_space_group_name_H-M    "P 1"
_symmetry_Int_Tables_number       1

loop_
  _symmetry_equiv_pos_as_xyz
  'x, y, z'

loop_
  _atom_site_type_symbol
  _atom_site_label
  _atom_site_symmetry_multiplicity
  _atom_site_fract_x
  _atom_site_fract_y
  _atom_site_fract_z
  _atom_site_occupancy
  _atom_site_charge
Co  Co1       1.0  0.10282  0.39292  0.49932  1.0000 0.8683164782
Co  Co2       1.0  0.89718  0.60708  0.50068  1.0000 0.8683164782
Co  Co3       1.0  0.02916  0.57180  0.71023  1.0000 1.0822499461
Co  Co4       1.0  0.97084  0.42820  0.28977  1.0000 1.0822499461
Co  Co5       1.0  0.99282  0.35928  0.00867  1.0000 1.0596366591
Co  Co6       1.0  0.00718  0.64072  0.99133  1.0000 1.0596366591
H   H1        1.0  0.87320  0.52390  0.92190  1.0000 0.3870234854
H   H2        1.0  0.12680  0.47610  0.07810  1.0000 0.3870234854
H   H3        1.0  0.85340  0.37250  0.53900  1.0000 0.3870234854
H   H4        1.0  0.14660  0.62750  0.46100  1.0000 0.3870234854
H   H5        1.0  0.96810  0.03560  0.86070  1.0000 0.1526485785
H   H6        1.0  0.03190  0.96440  0.13930  1.0000 0.1526485785
H   H7        1.0  0.13410  0.93000  0.50860  1.0000 0.1311812914
H   H8        1.0  0.86590  0.07000  0.49140  1.0000 0.1311812914
H   H9        1.0  0.17290  0.13350  0.41050  1.0000 0.1144146017
H   H10       1.0  0.82710  0.86650  0.58950  1.0000 0.1144146017
H   H11       1.0  0.54650  0.41420  0.13900  1.0000 0.1526485785
H   H12       1.0  0.45350  0.58580  0.86100  1.0000 0.1526485785
H   H13       1.0  0.57160  0.35580  0.49290  1.0000 0.1311812914
H   H14       1.0  0.42840  0.64420  0.50710  1.0000 0.1311812914
H   H15       1.0  0.34510  0.34410  0.59000  1.0000 0.1164679072
H   H16       1.0  0.65490  0.65590  0.41000  1.0000 0.1164679072
C   C1        1.0  0.00346  0.27884  0.77458  1.0000 0.561313457
C   C2        1.0  0.99654  0.72116  0.22542  1.0000 0.561313457
C   C3        1.0  0.03406  0.17282  0.70372  1.0000 0.1006788715
C   C4        1.0  0.96594  0.82718  0.29628  1.0000 0.1006788715
C   C5        1.0  0.00900  0.05381  0.76818  1.0000 -0.1492803291
C   C6        1.0  0.99100  0.94619  0.23182  1.0000 -0.1492803291
C   C7        1.0  0.04506  0.96152  0.69473  1.0000 0.0262878827
C   C8        1.0  0.95494  0.03848  0.30527  1.0000 0.0262878827
C   C9        1.0  0.10710  0.99169  0.56071  1.0000 -0.1640551173
C   C10       1.0  0.89290  0.00831  0.43929  1.0000 -0.1640551173
C   C11       1.0  0.12970  0.11353  0.50273  1.0000 0.089760135
C   C12       1.0  0.87030  0.88647  0.49727  1.0000 0.089760135
C   C13       1.0  0.01670  0.83084  0.75850  1.0000 0.5861538119
C   C14       1.0  0.98330  0.16916  0.24150  1.0000 0.5861538119
C   C15       1.0  0.28040  0.41387  0.22474  1.0000 0.5472045607
C   C16       1.0  0.71960  0.58613  0.77526  1.0000 0.5472045607
C   C17       1.0  0.37248  0.39606  0.29585  1.0000 0.1006788715
C   C18       1.0  0.62752  0.60394  0.70415  1.0000 0.1006788715
C   C19       1.0  0.50680  0.40140  0.23157  1.0000 -0.1492803291
C   C20       1.0  0.49320  0.59860  0.76843  1.0000 -0.1492803291
C   C21       1.0  0.58373  0.38769  0.30505  1.0000 0.0381158657
C   C22       1.0  0.41627  0.61231  0.69495  1.0000 0.0381158657
C   C23       1.0  0.52180  0.36624  0.44043  1.0000 -0.1695715868
C   C24       1.0  0.47820  0.63376  0.55957  1.0000 -0.1695715868
C   C25       1.0  0.38670  0.36027  0.49749  1.0000 0.089760135
C   C26       1.0  0.61330  0.63973  0.50251  1.0000 0.089760135
C   C27       1.0  0.73019  0.39787  0.24035  1.0000 0.5819467372
C   C28       1.0  0.26981  0.60213  0.75965  1.0000 0.5819467372
N   N1        1.0  0.09289  0.20295  0.57214  1.0000 -0.2749577098
N   N2        1.0  0.90711  0.79705  0.42786  1.0000 -0.2756153726
N   N3        1.0  0.31226  0.37644  0.42741  1.0000 -0.2749577098
N   N4        1.0  0.68774  0.62356  0.57259  1.0000 -0.2756153726
O   O1        1.0  0.03904  0.38043  0.70146  1.0000 -0.576270514
O   O2        1.0  0.96096  0.61957  0.29854  1.0000 -0.576270514
O   O3        1.0  0.95006  0.25945  0.89608  1.0000 -0.4995852046
O   O4        1.0  0.04994  0.74055  0.10392  1.0000 -0.4995852046
O   O5        1.0  0.03856  0.75767  0.68297  1.0000 -0.5724466377
O   O6        1.0  0.96144  0.24233  0.31703  1.0000 -0.5724466377
O   O7        1.0  0.97314  0.80604  0.88146  1.0000 -0.5505648189
O   O8        1.0  0.02686  0.19396  0.11854  1.0000 -0.5505648189
O   O9        1.0  0.15894  0.40662  0.30093  1.0000 -0.5886603528
O   O10       1.0  0.84106  0.59338  0.69907  1.0000 -0.5886603528
O   O11       1.0  0.32358  0.43219  0.10489  1.0000 -0.4676753961
O   O12       1.0  0.67642  0.56781  0.89511  1.0000 -0.4676753961
O   O13       1.0  0.79104  0.35872  0.13605  1.0000 -0.537579947
O   O14       1.0  0.20896  0.64128  0.86395  1.0000 -0.537579947
O   O15       1.0  0.77736  0.44887  0.29853  1.0000 -0.5886603528
O   O16       1.0  0.22264  0.55113  0.70147  1.0000 -0.5886603528
O   O17       1.0  0.95052  0.52990  0.90626  1.0000 -0.8895384007
O   O18       1.0  0.04948  0.47010  0.09374  1.0000 -0.8895384007
O   O19       1.0  0.91722  0.42420  0.48836  1.0000 -0.8509505623
O   O20       1.0  0.08278  0.57580  0.51164  1.0000 -0.8509505623
