# DDEC6 charges by PACMAN v1.1 (https://github.com/mtap-research/PACMAN-charge/)
data_2008[Cu][nbo]3[ASR]1
_chemical_formula_sum              "Cu6 H36 C96 N12 O24"
_cell_length_a       12.2618
_cell_length_b       25.7328
_cell_length_c       25.7328
_cell_angle_alpha    62.4736
_cell_angle_beta     80.8607
_cell_angle_gamma    99.1393

_symmetry_space_group_name_H-M    "P 1"
_symmetry_Int_Tables_number       1

loop_
  _symmetry_equiv_pos_as_xyz
  'x, y, z'

loop_
  _atom_site_type_symbol
  _atom_site_label
  _atom_site_symmetry_multiplicity
  _atom_site_fract_x
  _atom_site_fract_y
  _atom_site_fract_z
  _atom_site_occupancy
  _atom_site_charge
Cu  Cu1       1.0  0.59513  0.54069  0.45931  1.0000 0.8429288855
Cu  Cu2       1.0  0.05444  0.45931  0.00000  1.0000 0.8429288855
Cu  Cu3       1.0  0.05444  0.00000  0.54069  1.0000 0.8429288855
Cu  Cu4       1.0  0.94556  0.00000  0.45931  1.0000 0.8429288855
Cu  Cu5       1.0  0.94556  0.54069  0.00000  1.0000 0.8429288855
Cu  Cu6       1.0  0.40487  0.45931  0.54069  1.0000 0.8429288855
H   H1        1.0  0.48380  0.43085  0.70490  1.0000 0.123989909
H   H2        1.0  0.79192  0.55983  0.57239  1.0000 0.1114515095
H   H3        1.0  0.18869  0.70490  0.86426  1.0000 0.123989909
H   H4        1.0  0.36564  0.57263  0.86731  1.0000 0.1114515095
H   H5        1.0  0.05295  0.86425  0.43085  1.0000 0.123989909
H   H6        1.0  0.23295  0.86731  0.56007  1.0000 0.1114515095
H   H7        1.0  0.81131  0.86426  0.70490  1.0000 0.123989909
H   H8        1.0  0.63569  0.86778  0.57239  1.0000 0.1114515095
H   H9        1.0  0.94705  0.43085  0.86425  1.0000 0.123989909
H   H10       1.0  0.76705  0.56007  0.86731  1.0000 0.1114515095
H   H11       1.0  0.51620  0.70490  0.43085  1.0000 0.123989909
H   H12       1.0  0.20699  0.57263  0.56007  1.0000 0.1114515095
H   H13       1.0  0.51620  0.56915  0.29510  1.0000 0.123989909
H   H14       1.0  0.20699  0.43993  0.42737  1.0000 0.1114515095
H   H15       1.0  0.81131  0.29510  0.13574  1.0000 0.123989909
H   H16       1.0  0.63569  0.42761  0.13222  1.0000 0.1114515095
H   H17       1.0  0.94705  0.13575  0.56915  1.0000 0.123989909
H   H18       1.0  0.76705  0.13269  0.43993  1.0000 0.1114515095
H   H19       1.0  0.18869  0.13574  0.29510  1.0000 0.123989909
H   H20       1.0  0.36564  0.13269  0.42737  1.0000 0.1114515095
H   H21       1.0  0.05295  0.56915  0.13575  1.0000 0.123989909
H   H22       1.0  0.23295  0.43993  0.13269  1.0000 0.1114515095
H   H23       1.0  0.48380  0.29510  0.56915  1.0000 0.123989909
H   H24       1.0  0.79301  0.42737  0.43993  1.0000 0.1114515095
H   H25       1.0  0.87471  0.55940  0.65640  1.0000 0.0965465175
H   H26       1.0  0.53111  0.65640  0.78420  1.0000 0.0965465175
H   H27       1.0  0.31531  0.78420  0.55940  1.0000 0.0965465175
H   H28       1.0  0.46889  0.78420  0.65640  1.0000 0.0965465175
H   H29       1.0  0.68469  0.55940  0.78420  1.0000 0.0965465175
H   H30       1.0  0.12529  0.65640  0.55940  1.0000 0.0965465175
H   H31       1.0  0.12529  0.44060  0.34360  1.0000 0.0965465175
H   H32       1.0  0.46889  0.34360  0.21580  1.0000 0.0965465175
H   H33       1.0  0.68469  0.21580  0.44060  1.0000 0.0965465175
H   H34       1.0  0.53111  0.21580  0.34360  1.0000 0.0965465175
H   H35       1.0  0.31531  0.44060  0.21580  1.0000 0.0965465175
H   H36       1.0  0.87471  0.34360  0.44060  1.0000 0.0965465175
C   C1        1.0  0.63286  0.49707  0.63394  1.0000 -0.0027023023
C   C2        1.0  0.57286  0.46143  0.69265  1.0000 -0.1004701271
C   C3        1.0  0.61569  0.46027  0.74000  1.0000 0.0379298995
C   C4        1.0  0.72349  0.49457  0.72795  1.0000 0.029520006
C   C5        1.0  0.78464  0.52979  0.66867  1.0000 -0.1004701271
C   C6        1.0  0.73874  0.53050  0.62168  1.0000 -0.0713886813
C   C7        1.0  0.58328  0.49731  0.58369  1.0000 0.5859732917
C   C8        1.0  0.56010  0.41390  0.80160  1.0000 0.2169559949
C   C9        1.0  0.26680  0.63394  0.86899  1.0000 -0.0058289398
C   C10       1.0  0.26551  0.69265  0.84592  1.0000 -0.1004701271
C   C11       1.0  0.35569  0.74000  0.79973  1.0000 0.0379298995
C   C12       1.0  0.45144  0.72795  0.77748  1.0000 0.029520006
C   C13       1.0  0.45331  0.66867  0.80154  1.0000 -0.1004701271
C   C14       1.0  0.36042  0.62168  0.84782  1.0000 -0.0713886813
C   C15       1.0  0.16697  0.58369  0.91900  1.0000 0.5859732917
C   C16       1.0  0.36170  0.80160  0.78450  1.0000 0.2169559949
C   C17       1.0  0.13579  0.86899  0.49707  1.0000 -0.0027023023
C   C18       1.0  0.11143  0.84592  0.46143  1.0000 -0.1004701271
C   C19       1.0  0.15542  0.79973  0.46027  1.0000 0.0379298995
C   C20       1.0  0.22892  0.77748  0.49457  1.0000 0.029520006
C   C21       1.0  0.25485  0.80154  0.52979  1.0000 -0.1004701271
C   C22       1.0  0.20824  0.84782  0.53050  1.0000 -0.0713886813
C   C23       1.0  0.08597  0.91900  0.49731  1.0000 0.5859732917
C   C24       1.0  0.14620  0.78450  0.41390  1.0000 0.2169559949
C   C25       1.0  0.73320  0.86899  0.63394  1.0000 -0.0027023023
C   C26       1.0  0.73449  0.84592  0.69265  1.0000 -0.1004701271
C   C27       1.0  0.64431  0.79973  0.74000  1.0000 0.0379298995
C   C28       1.0  0.54856  0.77748  0.72795  1.0000 0.029520006
C   C29       1.0  0.54669  0.80154  0.66867  1.0000 -0.1004701271
C   C30       1.0  0.63958  0.84782  0.62168  1.0000 -0.0713886813
C   C31       1.0  0.83303  0.91900  0.58369  1.0000 0.5859732917
C   C32       1.0  0.63830  0.78450  0.80160  1.0000 0.2169559949
C   C33       1.0  0.86421  0.49707  0.86899  1.0000 -0.0027023023
C   C34       1.0  0.88857  0.46143  0.84592  1.0000 -0.1004701271
C   C35       1.0  0.84458  0.46027  0.79973  1.0000 0.0379298995
C   C36       1.0  0.77108  0.49457  0.77748  1.0000 0.029520006
C   C37       1.0  0.74515  0.52979  0.80154  1.0000 -0.1004701271
C   C38       1.0  0.79176  0.53050  0.84782  1.0000 -0.0713886813
C   C39       1.0  0.91403  0.49731  0.91900  1.0000 0.5859732917
C   C40       1.0  0.85380  0.41390  0.78450  1.0000 0.2169559949
C   C41       1.0  0.36714  0.63394  0.49707  1.0000 -0.0058289398
C   C42       1.0  0.42714  0.69265  0.46143  1.0000 -0.1004701271
C   C43       1.0  0.38431  0.74000  0.46027  1.0000 0.0379298995
C   C44       1.0  0.27651  0.72795  0.49457  1.0000 0.029520006
C   C45       1.0  0.21536  0.66867  0.52979  1.0000 -0.1004701271
C   C46       1.0  0.26126  0.62168  0.53050  1.0000 -0.0713886813
C   C47       1.0  0.41672  0.58369  0.49731  1.0000 0.5859732917
C   C48       1.0  0.43990  0.80160  0.41390  1.0000 0.2169559949
C   C49       1.0  0.36714  0.50293  0.36606  1.0000 -0.0058289398
C   C50       1.0  0.42714  0.53857  0.30735  1.0000 -0.1004701271
C   C51       1.0  0.38431  0.53973  0.26000  1.0000 0.0379298995
C   C52       1.0  0.27651  0.50543  0.27205  1.0000 0.029520006
C   C53       1.0  0.21536  0.47021  0.33133  1.0000 -0.1004701271
C   C54       1.0  0.26126  0.46950  0.37832  1.0000 -0.0713886813
C   C55       1.0  0.41672  0.50269  0.41631  1.0000 0.5859732917
C   C56       1.0  0.43990  0.58610  0.19840  1.0000 0.2169559949
C   C57       1.0  0.73320  0.36606  0.13101  1.0000 -0.0027023023
C   C58       1.0  0.73449  0.30735  0.15408  1.0000 -0.1004701271
C   C59       1.0  0.64431  0.26000  0.20027  1.0000 0.0379298995
C   C60       1.0  0.54856  0.27205  0.22252  1.0000 0.029520006
C   C61       1.0  0.54669  0.33133  0.19846  1.0000 -0.1004701271
C   C62       1.0  0.63958  0.37832  0.15218  1.0000 -0.0713886813
C   C63       1.0  0.83303  0.41631  0.08100  1.0000 0.5859732917
C   C64       1.0  0.63830  0.19840  0.21550  1.0000 0.2169559949
C   C65       1.0  0.86421  0.13101  0.50293  1.0000 -0.0027023023
C   C66       1.0  0.88857  0.15408  0.53857  1.0000 -0.1004701271
C   C67       1.0  0.84458  0.20027  0.53973  1.0000 0.0379298995
C   C68       1.0  0.77108  0.22252  0.50543  1.0000 0.029520006
C   C69       1.0  0.74515  0.19846  0.47021  1.0000 -0.1004701271
C   C70       1.0  0.79176  0.15218  0.46950  1.0000 -0.0713886813
C   C71       1.0  0.91403  0.08100  0.50269  1.0000 0.5859732917
C   C72       1.0  0.85380  0.21550  0.58610  1.0000 0.2169559949
C   C73       1.0  0.26680  0.13101  0.36606  1.0000 -0.0027023023
C   C74       1.0  0.26551  0.15408  0.30735  1.0000 -0.1004701271
C   C75       1.0  0.35569  0.20027  0.26000  1.0000 0.0379298995
C   C76       1.0  0.45144  0.22252  0.27205  1.0000 0.029520006
C   C77       1.0  0.45331  0.19846  0.33133  1.0000 -0.1004701271
C   C78       1.0  0.36042  0.15218  0.37832  1.0000 -0.0713886813
C   C79       1.0  0.16697  0.08100  0.41631  1.0000 0.5859732917
C   C80       1.0  0.36170  0.21550  0.19840  1.0000 0.2169559949
C   C81       1.0  0.13579  0.50293  0.13101  1.0000 -0.0027023023
C   C82       1.0  0.11143  0.53857  0.15408  1.0000 -0.1004701271
C   C83       1.0  0.15542  0.53973  0.20027  1.0000 0.0379298995
C   C84       1.0  0.22892  0.50543  0.22252  1.0000 0.029520006
C   C85       1.0  0.25485  0.47021  0.19846  1.0000 -0.1004701271
C   C86       1.0  0.20824  0.46950  0.15218  1.0000 -0.0713886813
C   C87       1.0  0.08597  0.50269  0.08100  1.0000 0.5859732917
C   C88       1.0  0.14620  0.58610  0.21550  1.0000 0.2169559949
C   C89       1.0  0.63286  0.36606  0.50293  1.0000 -0.0027023023
C   C90       1.0  0.57286  0.30735  0.53857  1.0000 -0.1004701271
C   C91       1.0  0.61569  0.26000  0.53973  1.0000 0.0379298995
C   C92       1.0  0.72349  0.27205  0.50543  1.0000 0.029520006
C   C93       1.0  0.78464  0.33133  0.47021  1.0000 -0.1004701271
C   C94       1.0  0.73874  0.37832  0.46950  1.0000 -0.0713886813
C   C95       1.0  0.58328  0.41631  0.50269  1.0000 0.5859732917
C   C96       1.0  0.56010  0.19840  0.58610  1.0000 0.2169559949
N   N1        1.0  0.51120  0.37860  0.85300  1.0000 -0.3411122027
N   N2        1.0  0.36420  0.85300  0.76840  1.0000 -0.3411122027
N   N3        1.0  0.13260  0.76840  0.37860  1.0000 -0.3411122027
N   N4        1.0  0.63580  0.76840  0.85300  1.0000 -0.3411122027
N   N5        1.0  0.86740  0.37860  0.76840  1.0000 -0.3411122027
N   N6        1.0  0.48880  0.85300  0.37860  1.0000 -0.3456574091
N   N7        1.0  0.48880  0.62140  0.14700  1.0000 -0.3411122027
N   N8        1.0  0.63580  0.14700  0.23160  1.0000 -0.3411122027
N   N9        1.0  0.86740  0.23160  0.62140  1.0000 -0.3411122027
N   N10       1.0  0.36420  0.23160  0.14700  1.0000 -0.3411122027
N   N11       1.0  0.13260  0.62140  0.23160  1.0000 -0.3411122027
N   N12       1.0  0.51120  0.14700  0.62140  1.0000 -0.3411122027
O   O1        1.0  0.64543  0.53164  0.53093  1.0000 -0.502930002
O   O2        1.0  0.48517  0.46333  0.59954  1.0000 -0.505600801
O   O3        1.0  0.17636  0.53093  0.93743  1.0000 -0.502930002
O   O4        1.0  0.08471  0.59954  0.93713  1.0000 -0.502930002
O   O5        1.0  0.11379  0.93743  0.53164  1.0000 -0.502930002
O   O6        1.0  0.02184  0.93713  0.46333  1.0000 -0.502930002
O   O7        1.0  0.82364  0.93743  0.53093  1.0000 -0.502930002
O   O8        1.0  0.91529  0.93713  0.59954  1.0000 -0.505600801
O   O9        1.0  0.88621  0.53164  0.93743  1.0000 -0.502930002
O   O10       1.0  0.97816  0.46333  0.93713  1.0000 -0.502930002
O   O11       1.0  0.35457  0.53093  0.53164  1.0000 -0.502930002
O   O12       1.0  0.51483  0.59954  0.46333  1.0000 -0.502930002
O   O13       1.0  0.35457  0.46836  0.46907  1.0000 -0.502930002
O   O14       1.0  0.51483  0.53667  0.40046  1.0000 -0.502930002
O   O15       1.0  0.82364  0.46907  0.06257  1.0000 -0.502930002
O   O16       1.0  0.91529  0.40046  0.06287  1.0000 -0.502930002
O   O17       1.0  0.88621  0.06257  0.46836  1.0000 -0.502930002
O   O18       1.0  0.97816  0.06287  0.53667  1.0000 -0.502930002
O   O19       1.0  0.17636  0.06257  0.46907  1.0000 -0.502930002
O   O20       1.0  0.08471  0.06287  0.40046  1.0000 -0.502930002
O   O21       1.0  0.11379  0.46836  0.06257  1.0000 -0.502930002
O   O22       1.0  0.02184  0.53667  0.06287  1.0000 -0.505600801
O   O23       1.0  0.64543  0.46907  0.46836  1.0000 -0.502930002
O   O24       1.0  0.48517  0.40046  0.53667  1.0000 -0.502930002
