# DDEC6 charges by PACMAN v1.1 (https://github.com/mtap-research/PACMAN-charge/)
data_2008[Zn][srs]3[ASR]1
_chemical_formula_sum              "Zn24 H192 C288 I48 N96"
_cell_length_a       13.839
_cell_length_b       27.91
_cell_length_c       44.93
_cell_angle_alpha    90
_cell_angle_beta     90
_cell_angle_gamma    90

_symmetry_space_group_name_H-M    "P 1"
_symmetry_Int_Tables_number       1

loop_
  _symmetry_equiv_pos_as_xyz
  'x, y, z'

loop_
  _atom_site_type_symbol
  _atom_site_label
  _atom_site_symmetry_multiplicity
  _atom_site_fract_x
  _atom_site_fract_y
  _atom_site_fract_z
  _atom_site_occupancy
  _atom_site_charge
Zn  Zn1       1.0  0.16202  0.74182  0.81660  1.0000 0.4664468648
Zn  Zn2       1.0  0.83798  0.75818  0.31660  1.0000 0.4664468648
Zn  Zn3       1.0  0.66202  0.25818  0.68340  1.0000 0.4664468648
Zn  Zn4       1.0  0.33798  0.24182  0.18340  1.0000 0.4664468648
Zn  Zn5       1.0  0.37420  0.52243  0.91411  1.0000 0.4612341182
Zn  Zn6       1.0  0.62580  0.97757  0.41411  1.0000 0.4612341182
Zn  Zn7       1.0  0.87420  0.47757  0.58589  1.0000 0.4612341182
Zn  Zn8       1.0  0.12580  0.02243  0.08589  1.0000 0.4612341182
Zn  Zn9       1.0  0.14668  0.55181  0.08001  1.0000 0.450999807
Zn  Zn10      1.0  0.85332  0.94819  0.58001  1.0000 0.450999807
Zn  Zn11      1.0  0.64668  0.44819  0.41999  1.0000 0.450999807
Zn  Zn12      1.0  0.35332  0.05181  0.91999  1.0000 0.450999807
Zn  Zn13      1.0  0.83798  0.25818  0.18340  1.0000 0.4664468648
Zn  Zn14      1.0  0.16202  0.24182  0.68340  1.0000 0.4664468648
Zn  Zn15      1.0  0.33798  0.74182  0.31660  1.0000 0.4664468648
Zn  Zn16      1.0  0.66202  0.75818  0.81660  1.0000 0.4664468648
Zn  Zn17      1.0  0.62580  0.47757  0.08589  1.0000 0.4612341182
Zn  Zn18      1.0  0.37420  0.02243  0.58589  1.0000 0.4612341182
Zn  Zn19      1.0  0.12580  0.52243  0.41411  1.0000 0.4612341182
Zn  Zn20      1.0  0.87420  0.97757  0.91411  1.0000 0.4612341182
Zn  Zn21      1.0  0.85332  0.44819  0.91999  1.0000 0.450999807
Zn  Zn22      1.0  0.14668  0.05181  0.41999  1.0000 0.450999807
Zn  Zn23      1.0  0.35332  0.55181  0.58001  1.0000 0.450999807
Zn  Zn24      1.0  0.64668  0.94819  0.08001  1.0000 0.450999807
H   H1        1.0  0.95390  0.72240  0.83260  1.0000 0.1099034913
H   H2        1.0  0.04610  0.77760  0.33260  1.0000 0.1099034913
H   H3        1.0  0.45390  0.27760  0.66740  1.0000 0.1099034913
H   H4        1.0  0.54610  0.22240  0.16740  1.0000 0.1099034913
H   H5        1.0  0.86550  0.68110  0.86890  1.0000 0.136595687
H   H6        1.0  0.13450  0.81890  0.36890  1.0000 0.136595687
H   H7        1.0  0.36550  0.31890  0.63110  1.0000 0.136595687
H   H8        1.0  0.63450  0.18110  0.13110  1.0000 0.136595687
H   H9        1.0  0.11600  0.64680  0.90800  1.0000 0.1316741947
H   H10       1.0  0.88400  0.85320  0.40800  1.0000 0.1316741947
H   H11       1.0  0.61600  0.35320  0.59200  1.0000 0.1316741947
H   H12       1.0  0.38400  0.14680  0.09200  1.0000 0.1316741947
H   H13       1.0  0.19820  0.68370  0.87020  1.0000 0.1099034913
H   H14       1.0  0.80180  0.81630  0.37020  1.0000 0.1099034913
H   H15       1.0  0.69820  0.31630  0.62980  1.0000 0.1099034913
H   H16       1.0  0.30180  0.18370  0.12980  1.0000 0.1099034913
H   H17       1.0  0.52400  0.57790  0.88140  1.0000 0.1099034913
H   H18       1.0  0.47600  0.92210  0.38140  1.0000 0.1099034913
H   H19       1.0  0.02400  0.42210  0.61860  1.0000 0.1099034913
H   H20       1.0  0.97600  0.07790  0.11860  1.0000 0.1099034913
H   H21       1.0  0.68140  0.60470  0.88710  1.0000 0.136595687
H   H22       1.0  0.31860  0.89530  0.38710  1.0000 0.136595687
H   H23       1.0  0.18140  0.39530  0.61290  1.0000 0.136595687
H   H24       1.0  0.81860  0.10470  0.11290  1.0000 0.136595687
H   H25       1.0  0.67080  0.56400  0.97310  1.0000 0.1316741947
H   H26       1.0  0.32920  0.93600  0.47310  1.0000 0.1316741947
H   H27       1.0  0.17080  0.43600  0.52690  1.0000 0.1316741947
H   H28       1.0  0.82920  0.06400  0.02690  1.0000 0.1316741947
H   H29       1.0  0.51540  0.53470  0.96470  1.0000 0.1099034913
H   H30       1.0  0.48460  0.96530  0.46470  1.0000 0.1099034913
H   H31       1.0  0.01540  0.46530  0.53530  1.0000 0.1099034913
H   H32       1.0  0.98460  0.03470  0.03530  1.0000 0.1099034913
H   H33       1.0  0.95350  0.53450  0.05220  1.0000 0.1099034913
H   H34       1.0  0.04650  0.96550  0.55220  1.0000 0.1099034913
H   H35       1.0  0.45350  0.46550  0.44780  1.0000 0.1099034913
H   H36       1.0  0.54650  0.03450  0.94780  1.0000 0.1099034913
H   H37       1.0  0.87050  0.55570  0.00970  1.0000 0.136595687
H   H38       1.0  0.12950  0.94430  0.50970  1.0000 0.136595687
H   H39       1.0  0.37050  0.44430  0.49030  1.0000 0.136595687
H   H40       1.0  0.62950  0.05570  0.99030  1.0000 0.136595687
H   H41       1.0  0.11810  0.59970  0.97330  1.0000 0.136595687
H   H42       1.0  0.88190  0.90030  0.47330  1.0000 0.136595687
H   H43       1.0  0.61810  0.40030  0.52670  1.0000 0.136595687
H   H44       1.0  0.38190  0.09970  0.02670  1.0000 0.136595687
H   H45       1.0  0.19810  0.57770  0.01690  1.0000 0.1033955372
H   H46       1.0  0.80190  0.92230  0.51690  1.0000 0.1033955372
H   H47       1.0  0.69810  0.42230  0.48310  1.0000 0.1033955372
H   H48       1.0  0.30190  0.07770  0.98310  1.0000 0.1033955372
H   H49       1.0  0.92060  0.51520  0.64750  1.0000 0.1099034913
H   H50       1.0  0.07940  0.98480  0.14750  1.0000 0.1099034913
H   H51       1.0  0.42060  0.48480  0.85250  1.0000 0.1099034913
H   H52       1.0  0.57940  0.01520  0.35250  1.0000 0.1099034913
H   H53       1.0  0.94250  0.58760  0.67190  1.0000 0.1316741947
H   H54       1.0  0.05750  0.91240  0.17190  1.0000 0.1316741947
H   H55       1.0  0.44250  0.41240  0.82810  1.0000 0.1316741947
H   H56       1.0  0.55750  0.08760  0.32810  1.0000 0.1316741947
H   H57       1.0  0.92350  0.65390  0.59270  1.0000 0.1316741947
H   H58       1.0  0.07650  0.84610  0.09270  1.0000 0.1316741947
H   H59       1.0  0.42350  0.34610  0.90730  1.0000 0.1316741947
H   H60       1.0  0.57650  0.15390  0.40730  1.0000 0.1316741947
H   H61       1.0  0.90440  0.58030  0.57050  1.0000 0.1099034913
H   H62       1.0  0.09560  0.91970  0.07050  1.0000 0.1099034913
H   H63       1.0  0.40440  0.41970  0.92950  1.0000 0.1099034913
H   H64       1.0  0.59560  0.08030  0.42950  1.0000 0.1099034913
H   H65       1.0  0.10070  0.66360  0.77670  1.0000 0.1099034913
H   H66       1.0  0.89930  0.83640  0.27670  1.0000 0.1099034913
H   H67       1.0  0.60070  0.33640  0.72330  1.0000 0.1099034913
H   H68       1.0  0.39930  0.16360  0.22330  1.0000 0.1099034913
H   H69       1.0  0.04190  0.65280  0.72860  1.0000 0.136595687
H   H70       1.0  0.95810  0.84720  0.22860  1.0000 0.136595687
H   H71       1.0  0.54190  0.34720  0.77140  1.0000 0.136595687
H   H72       1.0  0.45810  0.15280  0.27140  1.0000 0.136595687
H   H73       1.0  0.99220  0.79550  0.72470  1.0000 0.1316741947
H   H74       1.0  0.00780  0.70450  0.22470  1.0000 0.1316741947
H   H75       1.0  0.49220  0.20450  0.77530  1.0000 0.1316741947
H   H76       1.0  0.50780  0.29550  0.27530  1.0000 0.1316741947
H   H77       1.0  0.04900  0.80170  0.77300  1.0000 0.1099034913
H   H78       1.0  0.95100  0.69830  0.27300  1.0000 0.1099034913
H   H79       1.0  0.54900  0.19830  0.72700  1.0000 0.1099034913
H   H80       1.0  0.45100  0.30170  0.22700  1.0000 0.1099034913
H   H81       1.0  0.86980  0.84280  0.56560  1.0000 0.1033955372
H   H82       1.0  0.13020  0.65720  0.06560  1.0000 0.1033955372
H   H83       1.0  0.36980  0.15720  0.93440  1.0000 0.1033955372
H   H84       1.0  0.63020  0.34280  0.43440  1.0000 0.1033955372
H   H85       1.0  0.89460  0.77080  0.58990  1.0000 0.136595687
H   H86       1.0  0.10540  0.72920  0.08990  1.0000 0.136595687
H   H87       1.0  0.39460  0.22920  0.91010  1.0000 0.136595687
H   H88       1.0  0.60540  0.27080  0.41010  1.0000 0.136595687
H   H89       1.0  0.96320  0.84520  0.66410  1.0000 0.1316741947
H   H90       1.0  0.03680  0.65480  0.16410  1.0000 0.1316741947
H   H91       1.0  0.46320  0.15480  0.83590  1.0000 0.1316741947
H   H92       1.0  0.53680  0.34520  0.33590  1.0000 0.1316741947
H   H93       1.0  0.93120  0.91490  0.63790  1.0000 0.1033955372
H   H94       1.0  0.06880  0.58510  0.13790  1.0000 0.1033955372
H   H95       1.0  0.43120  0.08510  0.86210  1.0000 0.1033955372
H   H96       1.0  0.56880  0.41490  0.36210  1.0000 0.1033955372
H   H97       1.0  0.04610  0.27760  0.16740  1.0000 0.1099034913
H   H98       1.0  0.95390  0.22240  0.66740  1.0000 0.1099034913
H   H99       1.0  0.54610  0.72240  0.33260  1.0000 0.1099034913
H   H100      1.0  0.45390  0.77760  0.83260  1.0000 0.1099034913
H   H101      1.0  0.13450  0.31890  0.13110  1.0000 0.136595687
H   H102      1.0  0.86550  0.18110  0.63110  1.0000 0.136595687
H   H103      1.0  0.63450  0.68110  0.36890  1.0000 0.136595687
H   H104      1.0  0.36550  0.81890  0.86890  1.0000 0.136595687
H   H105      1.0  0.88400  0.35320  0.09200  1.0000 0.1316741947
H   H106      1.0  0.11600  0.14680  0.59200  1.0000 0.1316741947
H   H107      1.0  0.38400  0.64680  0.40800  1.0000 0.1316741947
H   H108      1.0  0.61600  0.85320  0.90800  1.0000 0.1316741947
H   H109      1.0  0.80180  0.31630  0.12980  1.0000 0.1099034913
H   H110      1.0  0.19820  0.18370  0.62980  1.0000 0.1099034913
H   H111      1.0  0.30180  0.68370  0.37020  1.0000 0.1099034913
H   H112      1.0  0.69820  0.81630  0.87020  1.0000 0.1099034913
H   H113      1.0  0.47600  0.42210  0.11860  1.0000 0.1099034913
H   H114      1.0  0.52400  0.07790  0.61860  1.0000 0.1099034913
H   H115      1.0  0.97600  0.57790  0.38140  1.0000 0.1099034913
H   H116      1.0  0.02400  0.92210  0.88140  1.0000 0.1099034913
H   H117      1.0  0.31860  0.39530  0.11290  1.0000 0.136595687
H   H118      1.0  0.68140  0.10470  0.61290  1.0000 0.136595687
H   H119      1.0  0.81860  0.60470  0.38710  1.0000 0.136595687
H   H120      1.0  0.18140  0.89530  0.88710  1.0000 0.136595687
H   H121      1.0  0.32920  0.43600  0.02690  1.0000 0.1316741947
H   H122      1.0  0.67080  0.06400  0.52690  1.0000 0.1316741947
H   H123      1.0  0.82920  0.56400  0.47310  1.0000 0.1316741947
H   H124      1.0  0.17080  0.93600  0.97310  1.0000 0.1316741947
H   H125      1.0  0.48460  0.46530  0.03530  1.0000 0.1099034913
H   H126      1.0  0.51540  0.03470  0.53530  1.0000 0.1099034913
H   H127      1.0  0.98460  0.53470  0.46470  1.0000 0.1099034913
H   H128      1.0  0.01540  0.96530  0.96470  1.0000 0.1099034913
H   H129      1.0  0.04650  0.46550  0.94780  1.0000 0.1099034913
H   H130      1.0  0.95350  0.03450  0.44780  1.0000 0.1099034913
H   H131      1.0  0.54650  0.53450  0.55220  1.0000 0.1099034913
H   H132      1.0  0.45350  0.96550  0.05220  1.0000 0.1099034913
H   H133      1.0  0.12950  0.44430  0.99030  1.0000 0.136595687
H   H134      1.0  0.87050  0.05570  0.49030  1.0000 0.136595687
H   H135      1.0  0.62950  0.55570  0.50970  1.0000 0.136595687
H   H136      1.0  0.37050  0.94430  0.00970  1.0000 0.136595687
H   H137      1.0  0.88190  0.40030  0.02670  1.0000 0.136595687
H   H138      1.0  0.11810  0.09970  0.52670  1.0000 0.136595687
H   H139      1.0  0.38190  0.59970  0.47330  1.0000 0.136595687
H   H140      1.0  0.61810  0.90030  0.97330  1.0000 0.136595687
H   H141      1.0  0.80190  0.42230  0.98310  1.0000 0.1033955372
H   H142      1.0  0.19810  0.07770  0.48310  1.0000 0.1033955372
H   H143      1.0  0.30190  0.57770  0.51690  1.0000 0.1033955372
H   H144      1.0  0.69810  0.92230  0.01690  1.0000 0.1033955372
H   H145      1.0  0.07940  0.48480  0.35250  1.0000 0.1099034913
H   H146      1.0  0.92060  0.01520  0.85250  1.0000 0.1099034913
H   H147      1.0  0.57940  0.51520  0.14750  1.0000 0.1099034913
H   H148      1.0  0.42060  0.98480  0.64750  1.0000 0.1099034913
H   H149      1.0  0.05750  0.41240  0.32810  1.0000 0.1316741947
H   H150      1.0  0.94250  0.08760  0.82810  1.0000 0.1316741947
H   H151      1.0  0.55750  0.58760  0.17190  1.0000 0.1316741947
H   H152      1.0  0.44250  0.91240  0.67190  1.0000 0.1316741947
H   H153      1.0  0.07650  0.34610  0.40730  1.0000 0.1316741947
H   H154      1.0  0.92350  0.15390  0.90730  1.0000 0.1316741947
H   H155      1.0  0.57650  0.65390  0.09270  1.0000 0.1316741947
H   H156      1.0  0.42350  0.84610  0.59270  1.0000 0.1316741947
H   H157      1.0  0.09560  0.41970  0.42950  1.0000 0.1099034913
H   H158      1.0  0.90440  0.08030  0.92950  1.0000 0.1099034913
H   H159      1.0  0.59560  0.58030  0.07050  1.0000 0.1099034913
H   H160      1.0  0.40440  0.91970  0.57050  1.0000 0.1099034913
H   H161      1.0  0.89930  0.33640  0.22330  1.0000 0.1099034913
H   H162      1.0  0.10070  0.16360  0.72330  1.0000 0.1099034913
H   H163      1.0  0.39930  0.66360  0.27670  1.0000 0.1099034913
H   H164      1.0  0.60070  0.83640  0.77670  1.0000 0.1099034913
H   H165      1.0  0.95810  0.34720  0.27140  1.0000 0.136595687
H   H166      1.0  0.04190  0.15280  0.77140  1.0000 0.136595687
H   H167      1.0  0.45810  0.65280  0.22860  1.0000 0.136595687
H   H168      1.0  0.54190  0.84720  0.72860  1.0000 0.136595687
H   H169      1.0  0.00780  0.20450  0.27530  1.0000 0.1316741947
H   H170      1.0  0.99220  0.29550  0.77530  1.0000 0.1316741947
H   H171      1.0  0.50780  0.79550  0.22470  1.0000 0.1316741947
H   H172      1.0  0.49220  0.70450  0.72470  1.0000 0.1316741947
H   H173      1.0  0.95100  0.19830  0.22700  1.0000 0.1099034913
H   H174      1.0  0.04900  0.30170  0.72700  1.0000 0.1099034913
H   H175      1.0  0.45100  0.80170  0.27300  1.0000 0.1099034913
H   H176      1.0  0.54900  0.69830  0.77300  1.0000 0.1099034913
H   H177      1.0  0.13020  0.15720  0.43440  1.0000 0.1033955372
H   H178      1.0  0.86980  0.34280  0.93440  1.0000 0.1033955372
H   H179      1.0  0.63020  0.84280  0.06560  1.0000 0.1033955372
H   H180      1.0  0.36980  0.65720  0.56560  1.0000 0.1033955372
H   H181      1.0  0.10540  0.22920  0.41010  1.0000 0.136595687
H   H182      1.0  0.89460  0.27080  0.91010  1.0000 0.136595687
H   H183      1.0  0.60540  0.77080  0.08990  1.0000 0.136595687
H   H184      1.0  0.39460  0.72920  0.58990  1.0000 0.136595687
H   H185      1.0  0.03680  0.15480  0.33590  1.0000 0.1316741947
H   H186      1.0  0.96320  0.34520  0.83590  1.0000 0.1316741947
H   H187      1.0  0.53680  0.84520  0.16410  1.0000 0.1316741947
H   H188      1.0  0.46320  0.65480  0.66410  1.0000 0.1316741947
H   H189      1.0  0.06880  0.08510  0.36210  1.0000 0.1033955372
H   H190      1.0  0.93120  0.41490  0.86210  1.0000 0.1033955372
H   H191      1.0  0.56880  0.91490  0.13790  1.0000 0.1033955372
H   H192      1.0  0.43120  0.58510  0.63790  1.0000 0.1033955372
C   C1        1.0  0.98740  0.70600  0.84800  1.0000 0.0885389708
C   C2        1.0  0.01260  0.79400  0.34800  1.0000 0.0885389708
C   C3        1.0  0.48740  0.29400  0.65200  1.0000 0.0885389708
C   C4        1.0  0.51260  0.20600  0.15200  1.0000 0.0885389708
C   C5        1.0  0.93400  0.68230  0.86990  1.0000 -0.1219816624
C   C6        1.0  0.06600  0.81770  0.36990  1.0000 -0.1219816624
C   C7        1.0  0.43400  0.31770  0.63010  1.0000 -0.1219816624
C   C8        1.0  0.56600  0.18230  0.13010  1.0000 -0.1219816624
C   C9        1.0  0.98200  0.66080  0.89294  1.0000 0.0519688992
C   C10       1.0  0.01800  0.83920  0.39294  1.0000 0.0519688992
C   C11       1.0  0.48200  0.33920  0.60706  1.0000 0.0519688992
C   C12       1.0  0.51800  0.16080  0.10706  1.0000 0.0519688992
C   C13       1.0  0.08080  0.66180  0.89240  1.0000 -0.1219816624
C   C14       1.0  0.91920  0.83820  0.39240  1.0000 -0.1219816624
C   C15       1.0  0.58080  0.33820  0.60760  1.0000 -0.1219816624
C   C16       1.0  0.41920  0.16180  0.10760  1.0000 -0.1219816624
C   C17       1.0  0.12950  0.68400  0.87000  1.0000 0.0834787082
C   C18       1.0  0.87050  0.81600  0.37000  1.0000 0.0834787082
C   C19       1.0  0.62950  0.31600  0.63000  1.0000 0.0834787082
C   C20       1.0  0.37050  0.18400  0.13000  1.0000 0.0834787082
C   C21       1.0  0.92940  0.63540  0.91661  1.0000 0.3795156659
C   C22       1.0  0.07060  0.86460  0.41661  1.0000 0.3795156659
C   C23       1.0  0.42940  0.36460  0.58339  1.0000 0.3795156659
C   C24       1.0  0.57060  0.13540  0.08339  1.0000 0.3795156659
C   C25       1.0  0.79430  0.60130  0.93499  1.0000 0.3690342115
C   C26       1.0  0.20570  0.89870  0.43499  1.0000 0.3690342115
C   C27       1.0  0.29430  0.39870  0.56501  1.0000 0.3690342115
C   C28       1.0  0.70570  0.10130  0.06501  1.0000 0.3690342115
C   C29       1.0  0.93130  0.59730  0.96064  1.0000 0.3690342115
C   C30       1.0  0.06870  0.90270  0.46064  1.0000 0.3690342115
C   C31       1.0  0.43130  0.40270  0.53936  1.0000 0.3690342115
C   C32       1.0  0.56870  0.09730  0.03936  1.0000 0.3690342115
C   C33       1.0  0.55500  0.57400  0.90010  1.0000 0.0834787082
C   C34       1.0  0.44500  0.92600  0.40010  1.0000 0.0834787082
C   C35       1.0  0.05500  0.42600  0.59990  1.0000 0.0834787082
C   C36       1.0  0.94500  0.07400  0.09990  1.0000 0.0834787082
C   C37       1.0  0.64820  0.59070  0.90340  1.0000 -0.1219816624
C   C38       1.0  0.35180  0.90930  0.40340  1.0000 -0.1219816624
C   C39       1.0  0.14820  0.40930  0.59660  1.0000 -0.1219816624
C   C40       1.0  0.85180  0.09070  0.09660  1.0000 -0.1219816624
C   C41       1.0  0.69250  0.58670  0.93080  1.0000 0.0519688992
C   C42       1.0  0.30750  0.91330  0.43080  1.0000 0.0519688992
C   C43       1.0  0.19250  0.41330  0.56920  1.0000 0.0519688992
C   C44       1.0  0.80750  0.08670  0.06920  1.0000 0.0519688992
C   C45       1.0  0.64250  0.56640  0.95390  1.0000 -0.1219816624
C   C46       1.0  0.35750  0.93360  0.45390  1.0000 -0.1219816624
C   C47       1.0  0.14250  0.43360  0.54610  1.0000 -0.1219816624
C   C48       1.0  0.85750  0.06640  0.04610  1.0000 -0.1219816624
C   C49       1.0  0.54950  0.54930  0.94870  1.0000 0.0834787082
C   C50       1.0  0.45050  0.95070  0.44870  1.0000 0.0834787082
C   C51       1.0  0.04950  0.45070  0.55130  1.0000 0.0834787082
C   C52       1.0  0.95050  0.04930  0.05130  1.0000 0.0834787082
C   C53       1.0  0.98730  0.54950  0.03630  1.0000 0.0591512627
C   C54       1.0  0.01270  0.95050  0.53630  1.0000 0.0591512627
C   C55       1.0  0.48730  0.45050  0.46370  1.0000 0.0591512627
C   C56       1.0  0.51270  0.04950  0.96370  1.0000 0.0591512627
C   C57       1.0  0.93800  0.56140  0.01100  1.0000 -0.1408762025
C   C58       1.0  0.06200  0.93860  0.51100  1.0000 -0.1408762025
C   C59       1.0  0.43800  0.43860  0.48900  1.0000 -0.1408762025
C   C60       1.0  0.56200  0.06140  0.98900  1.0000 -0.1408762025
C   C61       1.0  0.98560  0.58170  0.98725  1.0000 0.0519688992
C   C62       1.0  0.01440  0.91830  0.48725  1.0000 0.0519688992
C   C63       1.0  0.48560  0.41830  0.51275  1.0000 0.0519688992
C   C64       1.0  0.51440  0.08170  0.01275  1.0000 0.0519688992
C   C65       1.0  0.08230  0.58720  0.98950  1.0000 -0.1408762025
C   C66       1.0  0.91770  0.91280  0.48950  1.0000 -0.1408762025
C   C67       1.0  0.58230  0.41280  0.51050  1.0000 -0.1408762025
C   C68       1.0  0.41770  0.08720  0.01050  1.0000 -0.1408762025
C   C69       1.0  0.12980  0.57460  0.01590  1.0000 0.0885389708
C   C70       1.0  0.87020  0.92540  0.51590  1.0000 0.0885389708
C   C71       1.0  0.62980  0.42540  0.48410  1.0000 0.0885389708
C   C72       1.0  0.37020  0.07460  0.98410  1.0000 0.0885389708
C   C73       1.0  0.92030  0.54400  0.63620  1.0000 0.0834787082
C   C74       1.0  0.07970  0.95600  0.13620  1.0000 0.0834787082
C   C75       1.0  0.42030  0.45600  0.86380  1.0000 0.0834787082
C   C76       1.0  0.57970  0.04400  0.36380  1.0000 0.0834787082
C   C77       1.0  0.93390  0.58690  0.65100  1.0000 -0.1483745749
C   C78       1.0  0.06610  0.91310  0.15100  1.0000 -0.1483745749
C   C79       1.0  0.43390  0.41310  0.84900  1.0000 -0.1483745749
C   C80       1.0  0.56610  0.08690  0.34900  1.0000 -0.1483745749
C   C81       1.0  0.93470  0.62760  0.63491  1.0000 0.0591512627
C   C82       1.0  0.06530  0.87240  0.13491  1.0000 0.0591512627
C   C83       1.0  0.43470  0.37240  0.86509  1.0000 0.0591512627
C   C84       1.0  0.56530  0.12760  0.36509  1.0000 0.0591512627
C   C85       1.0  0.92300  0.62560  0.60440  1.0000 -0.1408762025
C   C86       1.0  0.07700  0.87440  0.10440  1.0000 -0.1408762025
C   C87       1.0  0.42300  0.37440  0.89560  1.0000 -0.1408762025
C   C88       1.0  0.57700  0.12560  0.39560  1.0000 -0.1408762025
C   C89       1.0  0.91060  0.58170  0.59150  1.0000 0.0834787082
C   C90       1.0  0.08940  0.91830  0.09150  1.0000 0.0834787082
C   C91       1.0  0.41060  0.41830  0.90850  1.0000 0.0834787082
C   C92       1.0  0.58940  0.08170  0.40850  1.0000 0.0834787082
C   C93       1.0  0.94610  0.67580  0.64980  1.0000 0.3795156659
C   C94       1.0  0.05390  0.82420  0.14980  1.0000 0.3795156659
C   C95       1.0  0.44610  0.32420  0.85020  1.0000 0.3795156659
C   C96       1.0  0.55390  0.17580  0.35020  1.0000 0.3795156659
C   C97       1.0  0.98090  0.71960  0.68999  1.0000 0.3641522931
C   C98       1.0  0.01910  0.78040  0.18999  1.0000 0.3690342115
C   C99       1.0  0.48090  0.28040  0.81001  1.0000 0.3641522931
C   C100      1.0  0.51910  0.21960  0.31001  1.0000 0.3641522931
C   C101      1.0  0.94450  0.75540  0.64685  1.0000 0.3641522931
C   C102      1.0  0.05550  0.74460  0.14685  1.0000 0.3690342115
C   C103      1.0  0.44450  0.24460  0.85315  1.0000 0.3641522931
C   C104      1.0  0.55550  0.25540  0.35315  1.0000 0.3641522931
C   C105      1.0  0.07940  0.69070  0.76560  1.0000 0.0885389708
C   C106      1.0  0.92060  0.80930  0.26560  1.0000 0.0885389708
C   C107      1.0  0.57940  0.30930  0.73440  1.0000 0.0885389708
C   C108      1.0  0.42060  0.19070  0.23440  1.0000 0.0885389708
C   C109      1.0  0.04420  0.68400  0.73710  1.0000 -0.1583555949
C   C110      1.0  0.95580  0.81600  0.23710  1.0000 -0.1583555949
C   C111      1.0  0.54420  0.31600  0.76290  1.0000 -0.1583555949
C   C112      1.0  0.45580  0.18400  0.26290  1.0000 -0.1583555949
C   C113      1.0  0.01230  0.72350  0.72099  1.0000 0.0519688992
C   C114      1.0  0.98770  0.77650  0.22099  1.0000 0.0519688992
C   C115      1.0  0.51230  0.27650  0.77901  1.0000 0.0519688992
C   C116      1.0  0.48770  0.22350  0.27901  1.0000 0.0519688992
C   C117      1.0  0.01460  0.76780  0.73485  1.0000 -0.1408762025
C   C118      1.0  0.98540  0.73220  0.23485  1.0000 -0.1408762025
C   C119      1.0  0.51460  0.23220  0.76515  1.0000 -0.1408762025
C   C120      1.0  0.48540  0.26780  0.26515  1.0000 -0.1408762025
C   C121      1.0  0.04940  0.77140  0.76336  1.0000 0.0885389708
C   C122      1.0  0.95060  0.72860  0.26336  1.0000 0.0885389708
C   C123      1.0  0.54940  0.22860  0.73664  1.0000 0.0885389708
C   C124      1.0  0.45060  0.27140  0.23664  1.0000 0.0885389708
C   C125      1.0  0.88750  0.84330  0.58600  1.0000 0.0834787082
C   C126      1.0  0.11250  0.65670  0.08600  1.0000 0.0834787082
C   C127      1.0  0.38750  0.15670  0.91400  1.0000 0.0834787082
C   C128      1.0  0.61250  0.34330  0.41400  1.0000 0.0834787082
C   C129      1.0  0.90270  0.80020  0.60028  1.0000 -0.1583555949
C   C130      1.0  0.09730  0.69980  0.10028  1.0000 -0.1583555949
C   C131      1.0  0.40270  0.19980  0.89972  1.0000 -0.1583555949
C   C132      1.0  0.59730  0.30020  0.39972  1.0000 -0.1583555949
C   C133      1.0  0.93000  0.80050  0.62990  1.0000 0.0591512627
C   C134      1.0  0.07000  0.69950  0.12990  1.0000 0.0591512627
C   C135      1.0  0.43000  0.19950  0.87010  1.0000 0.0591512627
C   C136      1.0  0.57000  0.30050  0.37010  1.0000 0.0591512627
C   C137      1.0  0.94240  0.84380  0.64394  1.0000 -0.1583555949
C   C138      1.0  0.05760  0.65620  0.14394  1.0000 -0.1583555949
C   C139      1.0  0.44240  0.15620  0.85606  1.0000 -0.1583555949
C   C140      1.0  0.55760  0.34380  0.35606  1.0000 -0.1583555949
C   C141      1.0  0.92400  0.88500  0.62811  1.0000 0.0885389708
C   C142      1.0  0.07600  0.61500  0.12811  1.0000 0.0885389708
C   C143      1.0  0.42400  0.11500  0.87189  1.0000 0.0885389708
C   C144      1.0  0.57600  0.38500  0.37189  1.0000 0.0885389708
C   C145      1.0  0.01260  0.29400  0.15200  1.0000 0.0885389708
C   C146      1.0  0.98740  0.20600  0.65200  1.0000 0.0885389708
C   C147      1.0  0.51260  0.70600  0.34800  1.0000 0.0885389708
C   C148      1.0  0.48740  0.79400  0.84800  1.0000 0.0885389708
C   C149      1.0  0.06600  0.31770  0.13010  1.0000 -0.1219816624
C   C150      1.0  0.93400  0.18230  0.63010  1.0000 -0.1219816624
C   C151      1.0  0.56600  0.68230  0.36990  1.0000 -0.1219816624
C   C152      1.0  0.43400  0.81770  0.86990  1.0000 -0.1219816624
C   C153      1.0  0.01800  0.33920  0.10706  1.0000 0.0519688992
C   C154      1.0  0.98200  0.16080  0.60706  1.0000 0.0519688992
C   C155      1.0  0.51800  0.66080  0.39294  1.0000 0.0519688992
C   C156      1.0  0.48200  0.83920  0.89294  1.0000 0.0519688992
C   C157      1.0  0.91920  0.33820  0.10760  1.0000 -0.1219816624
C   C158      1.0  0.08080  0.16180  0.60760  1.0000 -0.1219816624
C   C159      1.0  0.41920  0.66180  0.39240  1.0000 -0.1219816624
C   C160      1.0  0.58080  0.83820  0.89240  1.0000 -0.1219816624
C   C161      1.0  0.87050  0.31600  0.13000  1.0000 0.0834787082
C   C162      1.0  0.12950  0.18400  0.63000  1.0000 0.0834787082
C   C163      1.0  0.37050  0.68400  0.37000  1.0000 0.0834787082
C   C164      1.0  0.62950  0.81600  0.87000  1.0000 0.0834787082
C   C165      1.0  0.07060  0.36460  0.08339  1.0000 0.3795156659
C   C166      1.0  0.92940  0.13540  0.58339  1.0000 0.3795156659
C   C167      1.0  0.57060  0.63540  0.41661  1.0000 0.3795156659
C   C168      1.0  0.42940  0.86460  0.91661  1.0000 0.3795156659
C   C169      1.0  0.20570  0.39870  0.06501  1.0000 0.3690342115
C   C170      1.0  0.79430  0.10130  0.56501  1.0000 0.3690342115
C   C171      1.0  0.70570  0.60130  0.43499  1.0000 0.3690342115
C   C172      1.0  0.29430  0.89870  0.93499  1.0000 0.3690342115
C   C173      1.0  0.06870  0.40270  0.03936  1.0000 0.3690342115
C   C174      1.0  0.93130  0.09730  0.53936  1.0000 0.3690342115
C   C175      1.0  0.56870  0.59730  0.46064  1.0000 0.3690342115
C   C176      1.0  0.43130  0.90270  0.96064  1.0000 0.3690342115
C   C177      1.0  0.44500  0.42600  0.09990  1.0000 0.0834787082
C   C178      1.0  0.55500  0.07400  0.59990  1.0000 0.0834787082
C   C179      1.0  0.94500  0.57400  0.40010  1.0000 0.0834787082
C   C180      1.0  0.05500  0.92600  0.90010  1.0000 0.0834787082
C   C181      1.0  0.35180  0.40930  0.09660  1.0000 -0.1219816624
C   C182      1.0  0.64820  0.09070  0.59660  1.0000 -0.1219816624
C   C183      1.0  0.85180  0.59070  0.40340  1.0000 -0.1219816624
C   C184      1.0  0.14820  0.90930  0.90340  1.0000 -0.1219816624
C   C185      1.0  0.30750  0.41330  0.06920  1.0000 0.0519688992
C   C186      1.0  0.69250  0.08670  0.56920  1.0000 0.0519688992
C   C187      1.0  0.80750  0.58670  0.43080  1.0000 0.0519688992
C   C188      1.0  0.19250  0.91330  0.93080  1.0000 0.0519688992
C   C189      1.0  0.35750  0.43360  0.04610  1.0000 -0.1219816624
C   C190      1.0  0.64250  0.06640  0.54610  1.0000 -0.1219816624
C   C191      1.0  0.85750  0.56640  0.45390  1.0000 -0.1219816624
C   C192      1.0  0.14250  0.93360  0.95390  1.0000 -0.1219816624
C   C193      1.0  0.45050  0.45070  0.05130  1.0000 0.0834787082
C   C194      1.0  0.54950  0.04930  0.55130  1.0000 0.0834787082
C   C195      1.0  0.95050  0.54930  0.44870  1.0000 0.0834787082
C   C196      1.0  0.04950  0.95070  0.94870  1.0000 0.0834787082
C   C197      1.0  0.01270  0.45050  0.96370  1.0000 0.0591512627
C   C198      1.0  0.98730  0.04950  0.46370  1.0000 0.0591512627
C   C199      1.0  0.51270  0.54950  0.53630  1.0000 0.0591512627
C   C200      1.0  0.48730  0.95050  0.03630  1.0000 0.0591512627
C   C201      1.0  0.06200  0.43860  0.98900  1.0000 -0.1408762025
C   C202      1.0  0.93800  0.06140  0.48900  1.0000 -0.1408762025
C   C203      1.0  0.56200  0.56140  0.51100  1.0000 -0.1408762025
C   C204      1.0  0.43800  0.93860  0.01100  1.0000 -0.1408762025
C   C205      1.0  0.01440  0.41830  0.01275  1.0000 0.0519688992
C   C206      1.0  0.98560  0.08170  0.51275  1.0000 0.0519688992
C   C207      1.0  0.51440  0.58170  0.48725  1.0000 0.0519688992
C   C208      1.0  0.48560  0.91830  0.98725  1.0000 0.0519688992
C   C209      1.0  0.91770  0.41280  0.01050  1.0000 -0.1408762025
C   C210      1.0  0.08230  0.08720  0.51050  1.0000 -0.1408762025
C   C211      1.0  0.41770  0.58720  0.48950  1.0000 -0.1408762025
C   C212      1.0  0.58230  0.91280  0.98950  1.0000 -0.1408762025
C   C213      1.0  0.87020  0.42540  0.98410  1.0000 0.0885389708
C   C214      1.0  0.12980  0.07460  0.48410  1.0000 0.0885389708
C   C215      1.0  0.37020  0.57460  0.51590  1.0000 0.0885389708
C   C216      1.0  0.62980  0.92540  0.01590  1.0000 0.0885389708
C   C217      1.0  0.07970  0.45600  0.36380  1.0000 0.0834787082
C   C218      1.0  0.92030  0.04400  0.86380  1.0000 0.0834787082
C   C219      1.0  0.57970  0.54400  0.13620  1.0000 0.0834787082
C   C220      1.0  0.42030  0.95600  0.63620  1.0000 0.0834787082
C   C221      1.0  0.06610  0.41310  0.34900  1.0000 -0.1483745749
C   C222      1.0  0.93390  0.08690  0.84900  1.0000 -0.1483745749
C   C223      1.0  0.56610  0.58690  0.15100  1.0000 -0.1483745749
C   C224      1.0  0.43390  0.91310  0.65100  1.0000 -0.1483745749
C   C225      1.0  0.06530  0.37240  0.36509  1.0000 0.0591512627
C   C226      1.0  0.93470  0.12760  0.86509  1.0000 0.0591512627
C   C227      1.0  0.56530  0.62760  0.13491  1.0000 0.0591512627
C   C228      1.0  0.43470  0.87240  0.63491  1.0000 0.0591512627
C   C229      1.0  0.07700  0.37440  0.39560  1.0000 -0.1408762025
C   C230      1.0  0.92300  0.12560  0.89560  1.0000 -0.1408762025
C   C231      1.0  0.57700  0.62560  0.10440  1.0000 -0.1408762025
C   C232      1.0  0.42300  0.87440  0.60440  1.0000 -0.1408762025
C   C233      1.0  0.08940  0.41830  0.40850  1.0000 0.0834787082
C   C234      1.0  0.91060  0.08170  0.90850  1.0000 0.0834787082
C   C235      1.0  0.58940  0.58170  0.09150  1.0000 0.0834787082
C   C236      1.0  0.41060  0.91830  0.59150  1.0000 0.0834787082
C   C237      1.0  0.05390  0.32420  0.35020  1.0000 0.3795156659
C   C238      1.0  0.94610  0.17580  0.85020  1.0000 0.3795156659
C   C239      1.0  0.55390  0.67580  0.14980  1.0000 0.3795156659
C   C240      1.0  0.44610  0.82420  0.64980  1.0000 0.3795156659
C   C241      1.0  0.01910  0.28040  0.31001  1.0000 0.3690342115
C   C242      1.0  0.98090  0.21960  0.81001  1.0000 0.3641522931
C   C243      1.0  0.51910  0.71960  0.18999  1.0000 0.3641522931
C   C244      1.0  0.48090  0.78040  0.68999  1.0000 0.3641522931
C   C245      1.0  0.05550  0.24460  0.35315  1.0000 0.3690342115
C   C246      1.0  0.94450  0.25540  0.85315  1.0000 0.3641522931
C   C247      1.0  0.55550  0.75540  0.14685  1.0000 0.3641522931
C   C248      1.0  0.44450  0.74460  0.64685  1.0000 0.3641522931
C   C249      1.0  0.92060  0.30930  0.23440  1.0000 0.0885389708
C   C250      1.0  0.07940  0.19070  0.73440  1.0000 0.0885389708
C   C251      1.0  0.42060  0.69070  0.26560  1.0000 0.0885389708
C   C252      1.0  0.57940  0.80930  0.76560  1.0000 0.0885389708
C   C253      1.0  0.95580  0.31600  0.26290  1.0000 -0.1583555949
C   C254      1.0  0.04420  0.18400  0.76290  1.0000 -0.1583555949
C   C255      1.0  0.45580  0.68400  0.23710  1.0000 -0.1583555949
C   C256      1.0  0.54420  0.81600  0.73710  1.0000 -0.1583555949
C   C257      1.0  0.98770  0.27650  0.27901  1.0000 0.0519688992
C   C258      1.0  0.01230  0.22350  0.77901  1.0000 0.0519688992
C   C259      1.0  0.48770  0.72350  0.22099  1.0000 0.0519688992
C   C260      1.0  0.51230  0.77650  0.72099  1.0000 0.0519688992
C   C261      1.0  0.98540  0.23220  0.26515  1.0000 -0.1408762025
C   C262      1.0  0.01460  0.26780  0.76515  1.0000 -0.1408762025
C   C263      1.0  0.48540  0.76780  0.23485  1.0000 -0.1408762025
C   C264      1.0  0.51460  0.73220  0.73485  1.0000 -0.1408762025
C   C265      1.0  0.95060  0.22860  0.23664  1.0000 0.0885389708
C   C266      1.0  0.04940  0.27140  0.73664  1.0000 0.0885389708
C   C267      1.0  0.45060  0.77140  0.26336  1.0000 0.0885389708
C   C268      1.0  0.54940  0.72860  0.76336  1.0000 0.0885389708
C   C269      1.0  0.11250  0.15670  0.41400  1.0000 0.0834787082
C   C270      1.0  0.88750  0.34330  0.91400  1.0000 0.0834787082
C   C271      1.0  0.61250  0.84330  0.08600  1.0000 0.0834787082
C   C272      1.0  0.38750  0.65670  0.58600  1.0000 0.0834787082
C   C273      1.0  0.09730  0.19980  0.39972  1.0000 -0.1583555949
C   C274      1.0  0.90270  0.30020  0.89972  1.0000 -0.1583555949
C   C275      1.0  0.59730  0.80020  0.10028  1.0000 -0.1583555949
C   C276      1.0  0.40270  0.69980  0.60028  1.0000 -0.1583555949
C   C277      1.0  0.07000  0.19950  0.37010  1.0000 0.0591512627
C   C278      1.0  0.93000  0.30050  0.87010  1.0000 0.0591512627
C   C279      1.0  0.57000  0.80050  0.12990  1.0000 0.0591512627
C   C280      1.0  0.43000  0.69950  0.62990  1.0000 0.0591512627
C   C281      1.0  0.05760  0.15620  0.35606  1.0000 -0.1583555949
C   C282      1.0  0.94240  0.34380  0.85606  1.0000 -0.1583555949
C   C283      1.0  0.55760  0.84380  0.14394  1.0000 -0.1583555949
C   C284      1.0  0.44240  0.65620  0.64394  1.0000 -0.1583555949
C   C285      1.0  0.07600  0.11500  0.37189  1.0000 0.0885389708
C   C286      1.0  0.92400  0.38500  0.87189  1.0000 0.0885389708
C   C287      1.0  0.57600  0.88500  0.12811  1.0000 0.0885389708
C   C288      1.0  0.42400  0.61500  0.62811  1.0000 0.0885389708
I   I1        1.0  0.17109  0.83049  0.82937  1.0000 -0.4592375854
I   I2        1.0  0.82891  0.66951  0.32937  1.0000 -0.4592375854
I   I3        1.0  0.67109  0.16951  0.67063  1.0000 -0.4592375854
I   I4        1.0  0.32891  0.33049  0.17063  1.0000 -0.4592375854
I   I5        1.0  0.32033  0.69613  0.81044  1.0000 -0.4711047696
I   I6        1.0  0.67967  0.80387  0.31044  1.0000 -0.4711047696
I   I7        1.0  0.82033  0.30387  0.68956  1.0000 -0.4711047696
I   I8        1.0  0.17967  0.19613  0.18956  1.0000 -0.4711047696
I   I9        1.0  0.29024  0.57504  0.87643  1.0000 -0.4359984888
I   I10       1.0  0.70976  0.92496  0.37643  1.0000 -0.4359984888
I   I11       1.0  0.79024  0.42496  0.62357  1.0000 -0.4359984888
I   I12       1.0  0.20976  0.07504  0.12357  1.0000 -0.4359984888
I   I13       1.0  0.29907  0.50269  0.96449  1.0000 -0.4711047696
I   I14       1.0  0.70093  0.99731  0.46449  1.0000 -0.4711047696
I   I15       1.0  0.79907  0.49731  0.53551  1.0000 -0.4711047696
I   I16       1.0  0.20093  0.00269  0.03551  1.0000 -0.4711047696
I   I17       1.0  0.32772  0.55994  0.07336  1.0000 -0.4592375854
I   I18       1.0  0.67228  0.94006  0.57336  1.0000 -0.4592375854
I   I19       1.0  0.82772  0.44006  0.42664  1.0000 -0.4592375854
I   I20       1.0  0.17228  0.05994  0.92664  1.0000 -0.4592375854
I   I21       1.0  0.06036  0.48636  0.10851  1.0000 -0.4342534854
I   I22       1.0  0.93964  0.01364  0.60851  1.0000 -0.4359984888
I   I23       1.0  0.56036  0.51364  0.39149  1.0000 -0.4359984888
I   I24       1.0  0.43964  0.98636  0.89149  1.0000 -0.4342534854
I   I25       1.0  0.82891  0.16951  0.17063  1.0000 -0.4592375854
I   I26       1.0  0.17109  0.33049  0.67063  1.0000 -0.4592375854
I   I27       1.0  0.32891  0.83049  0.32937  1.0000 -0.4592375854
I   I28       1.0  0.67109  0.66951  0.82937  1.0000 -0.4592375854
I   I29       1.0  0.67967  0.30387  0.18956  1.0000 -0.4711047696
I   I30       1.0  0.32033  0.19613  0.68956  1.0000 -0.4711047696
I   I31       1.0  0.17967  0.69613  0.31044  1.0000 -0.4711047696
I   I32       1.0  0.82033  0.80387  0.81044  1.0000 -0.4711047696
I   I33       1.0  0.70976  0.42496  0.12357  1.0000 -0.4359984888
I   I34       1.0  0.29024  0.07504  0.62357  1.0000 -0.4359984888
I   I35       1.0  0.20976  0.57504  0.37643  1.0000 -0.4359984888
I   I36       1.0  0.79024  0.92496  0.87643  1.0000 -0.4359984888
I   I37       1.0  0.70093  0.49731  0.03551  1.0000 -0.4711047696
I   I38       1.0  0.29907  0.00269  0.53551  1.0000 -0.4711047696
I   I39       1.0  0.20093  0.50269  0.46449  1.0000 -0.4711047696
I   I40       1.0  0.79907  0.99731  0.96449  1.0000 -0.4711047696
I   I41       1.0  0.67228  0.44006  0.92664  1.0000 -0.4592375854
I   I42       1.0  0.32772  0.05994  0.42664  1.0000 -0.4592375854
I   I43       1.0  0.17228  0.55994  0.57336  1.0000 -0.4592375854
I   I44       1.0  0.82772  0.94006  0.07336  1.0000 -0.4592375854
I   I45       1.0  0.93964  0.51364  0.89149  1.0000 -0.4342534854
I   I46       1.0  0.06036  0.98636  0.39149  1.0000 -0.4342534854
I   I47       1.0  0.43964  0.48636  0.60851  1.0000 -0.4342534854
I   I48       1.0  0.56036  0.01364  0.10851  1.0000 -0.4359984888
N   N1        1.0  0.08330  0.70620  0.84783  1.0000 -0.1795190692
N   N2        1.0  0.91670  0.79380  0.34783  1.0000 -0.1795190692
N   N3        1.0  0.58330  0.29380  0.65217  1.0000 -0.1795190692
N   N4        1.0  0.41670  0.20620  0.15217  1.0000 -0.1795190692
N   N5        1.0  0.83560  0.62760  0.91286  1.0000 -0.3724287791
N   N6        1.0  0.16440  0.87240  0.41286  1.0000 -0.3724287791
N   N7        1.0  0.33560  0.37240  0.58714  1.0000 -0.3724287791
N   N8        1.0  0.66440  0.12760  0.08714  1.0000 -0.3724287791
N   N9        1.0  0.83830  0.58590  0.95916  1.0000 -0.3781236714
N   N10       1.0  0.16170  0.91410  0.45916  1.0000 -0.3781236714
N   N11       1.0  0.33830  0.41410  0.54084  1.0000 -0.3781236714
N   N12       1.0  0.66170  0.08590  0.04084  1.0000 -0.3781236714
N   N13       1.0  0.98150  0.62130  0.94024  1.0000 -0.3855277492
N   N14       1.0  0.01850  0.87870  0.44024  1.0000 -0.3855277492
N   N15       1.0  0.48150  0.37870  0.55976  1.0000 -0.3855277492
N   N16       1.0  0.51850  0.12130  0.05976  1.0000 -0.3855277492
N   N17       1.0  0.50640  0.55250  0.92214  1.0000 -0.1795190692
N   N18       1.0  0.49360  0.94750  0.42214  1.0000 -0.1795190692
N   N19       1.0  0.00640  0.44750  0.57786  1.0000 -0.1795190692
N   N20       1.0  0.99360  0.05250  0.07786  1.0000 -0.1795190692
N   N21       1.0  0.08310  0.55850  0.03935  1.0000 -0.1795190692
N   N22       1.0  0.91690  0.94150  0.53935  1.0000 -0.1854394121
N   N23       1.0  0.58310  0.44150  0.46065  1.0000 -0.1795190692
N   N24       1.0  0.41690  0.05850  0.96065  1.0000 -0.1795190692
N   N25       1.0  0.90680  0.54080  0.60664  1.0000 -0.1795190692
N   N26       1.0  0.09320  0.95920  0.10664  1.0000 -0.1795190692
N   N27       1.0  0.40680  0.45920  0.89336  1.0000 -0.1795190692
N   N28       1.0  0.59320  0.04080  0.39336  1.0000 -0.1795190692
N   N29       1.0  0.96980  0.67560  0.67825  1.0000 -0.4096396497
N   N30       1.0  0.03020  0.82440  0.17825  1.0000 -0.4096396497
N   N31       1.0  0.46980  0.32440  0.82175  1.0000 -0.4096396497
N   N32       1.0  0.53020  0.17560  0.32175  1.0000 -0.4096396497
N   N33       1.0  0.96890  0.75970  0.67563  1.0000 -0.4002418077
N   N34       1.0  0.03110  0.74030  0.17563  1.0000 -0.4002418077
N   N35       1.0  0.46890  0.24030  0.82437  1.0000 -0.4002418077
N   N36       1.0  0.53110  0.25970  0.32437  1.0000 -0.4002418077
N   N37       1.0  0.93370  0.71400  0.63283  1.0000 -0.4096396497
N   N38       1.0  0.06630  0.78600  0.13283  1.0000 -0.4096396497
N   N39       1.0  0.43370  0.28600  0.86717  1.0000 -0.4096396497
N   N40       1.0  0.56630  0.21400  0.36717  1.0000 -0.4096396497
N   N41       1.0  0.08400  0.73330  0.77795  1.0000 -0.1795190692
N   N42       1.0  0.91600  0.76670  0.27795  1.0000 -0.1795190692
N   N43       1.0  0.58400  0.26670  0.72205  1.0000 -0.1795190692
N   N44       1.0  0.41600  0.23330  0.22205  1.0000 -0.1795190692
N   N45       1.0  0.89630  0.88500  0.59930  1.0000 -0.1795190692
N   N46       1.0  0.10370  0.61500  0.09930  1.0000 -0.1854394121
N   N47       1.0  0.39630  0.11500  0.90070  1.0000 -0.1854394121
N   N48       1.0  0.60370  0.38500  0.40070  1.0000 -0.1854394121
N   N49       1.0  0.91670  0.29380  0.15217  1.0000 -0.1795190692
N   N50       1.0  0.08330  0.20620  0.65217  1.0000 -0.1795190692
N   N51       1.0  0.41670  0.70620  0.34783  1.0000 -0.1795190692
N   N52       1.0  0.58330  0.79380  0.84783  1.0000 -0.1795190692
N   N53       1.0  0.16440  0.37240  0.08714  1.0000 -0.3724287791
N   N54       1.0  0.83560  0.12760  0.58714  1.0000 -0.3724287791
N   N55       1.0  0.66440  0.62760  0.41286  1.0000 -0.3724287791
N   N56       1.0  0.33560  0.87240  0.91286  1.0000 -0.3724287791
N   N57       1.0  0.16170  0.41410  0.04084  1.0000 -0.3781236714
N   N58       1.0  0.83830  0.08590  0.54084  1.0000 -0.3781236714
N   N59       1.0  0.66170  0.58590  0.45916  1.0000 -0.3781236714
N   N60       1.0  0.33830  0.91410  0.95916  1.0000 -0.3781236714
N   N61       1.0  0.01850  0.37870  0.05976  1.0000 -0.3855277492
N   N62       1.0  0.98150  0.12130  0.55976  1.0000 -0.3855277492
N   N63       1.0  0.51850  0.62130  0.44024  1.0000 -0.3855277492
N   N64       1.0  0.48150  0.87870  0.94024  1.0000 -0.3855277492
N   N65       1.0  0.49360  0.44750  0.07786  1.0000 -0.1795190692
N   N66       1.0  0.50640  0.05250  0.57786  1.0000 -0.1795190692
N   N67       1.0  0.99360  0.55250  0.42214  1.0000 -0.1795190692
N   N68       1.0  0.00640  0.94750  0.92214  1.0000 -0.1795190692
N   N69       1.0  0.91690  0.44150  0.96065  1.0000 -0.1795190692
N   N70       1.0  0.08310  0.05850  0.46065  1.0000 -0.1795190692
N   N71       1.0  0.41690  0.55850  0.53935  1.0000 -0.1795190692
N   N72       1.0  0.58310  0.94150  0.03935  1.0000 -0.1795190692
N   N73       1.0  0.09320  0.45920  0.39336  1.0000 -0.1795190692
N   N74       1.0  0.90680  0.04080  0.89336  1.0000 -0.1795190692
N   N75       1.0  0.59320  0.54080  0.10664  1.0000 -0.1795190692
N   N76       1.0  0.40680  0.95920  0.60664  1.0000 -0.1795190692
N   N77       1.0  0.03020  0.32440  0.32175  1.0000 -0.4096396497
N   N78       1.0  0.96980  0.17560  0.82175  1.0000 -0.4096396497
N   N79       1.0  0.53020  0.67560  0.17825  1.0000 -0.4096396497
N   N80       1.0  0.46980  0.82440  0.67825  1.0000 -0.4096396497
N   N81       1.0  0.03110  0.24030  0.32437  1.0000 -0.4002418077
N   N82       1.0  0.96890  0.25970  0.82437  1.0000 -0.4002418077
N   N83       1.0  0.53110  0.75970  0.17563  1.0000 -0.4002418077
N   N84       1.0  0.46890  0.74030  0.67563  1.0000 -0.4002418077
N   N85       1.0  0.06630  0.28600  0.36717  1.0000 -0.4096396497
N   N86       1.0  0.93370  0.21400  0.86717  1.0000 -0.4096396497
N   N87       1.0  0.56630  0.71400  0.13283  1.0000 -0.4096396497
N   N88       1.0  0.43370  0.78600  0.63283  1.0000 -0.4096396497
N   N89       1.0  0.91600  0.26670  0.22205  1.0000 -0.1795190692
N   N90       1.0  0.08400  0.23330  0.72205  1.0000 -0.1795190692
N   N91       1.0  0.41600  0.73330  0.27795  1.0000 -0.1795190692
N   N92       1.0  0.58400  0.76670  0.77795  1.0000 -0.1795190692
N   N93       1.0  0.10370  0.11500  0.40070  1.0000 -0.1854394121
N   N94       1.0  0.89630  0.38500  0.90070  1.0000 -0.1795190692
N   N95       1.0  0.60370  0.88500  0.09930  1.0000 -0.1854394121
N   N96       1.0  0.39630  0.61500  0.59930  1.0000 -0.1854394121
