# DDEC6 charges by PACMAN v1.1 (https://github.com/mtap-research/PACMAN-charge/)
data_2008[Zn][srs]3[ASR]9
_chemical_formula_sum              "Zn24 H192 C288 I48 N96"
_cell_length_a       13.6728
_cell_length_b       28.4576
_cell_length_c       45.5987
_cell_angle_alpha    90
_cell_angle_beta     90
_cell_angle_gamma    90

_symmetry_space_group_name_H-M    "P 1"
_symmetry_Int_Tables_number       1

loop_
  _symmetry_equiv_pos_as_xyz
  'x, y, z'

loop_
  _atom_site_type_symbol
  _atom_site_label
  _atom_site_symmetry_multiplicity
  _atom_site_fract_x
  _atom_site_fract_y
  _atom_site_fract_z
  _atom_site_occupancy
  _atom_site_charge
Zn  Zn1       1.0  0.66945  0.43676  0.43177  1.0000 0.4507587082
Zn  Zn2       1.0  0.83055  0.93676  0.56823  1.0000 0.4507587082
Zn  Zn3       1.0  0.33055  0.06324  0.93177  1.0000 0.4507587082
Zn  Zn4       1.0  0.16945  0.56324  0.06823  1.0000 0.4507587082
Zn  Zn5       1.0  0.36183  0.24314  0.18994  1.0000 0.4675583369
Zn  Zn6       1.0  0.13817  0.74314  0.81006  1.0000 0.4675583369
Zn  Zn7       1.0  0.63817  0.25686  0.68994  1.0000 0.4675583369
Zn  Zn8       1.0  0.86183  0.75686  0.31006  1.0000 0.4675583369
Zn  Zn9       1.0  0.65282  0.97382  0.41263  1.0000 0.4634468682
Zn  Zn10      1.0  0.84718  0.47382  0.58737  1.0000 0.4634468682
Zn  Zn11      1.0  0.34718  0.52618  0.91263  1.0000 0.4634468682
Zn  Zn12      1.0  0.15282  0.02618  0.08737  1.0000 0.4634468682
Zn  Zn13      1.0  0.33055  0.56324  0.56823  1.0000 0.4507587082
Zn  Zn14      1.0  0.16945  0.06324  0.43177  1.0000 0.4507587082
Zn  Zn15      1.0  0.66945  0.93676  0.06823  1.0000 0.4507587082
Zn  Zn16      1.0  0.83055  0.43676  0.93177  1.0000 0.4507587082
Zn  Zn17      1.0  0.63817  0.75686  0.81006  1.0000 0.4675583369
Zn  Zn18      1.0  0.86183  0.25686  0.18994  1.0000 0.4675583369
Zn  Zn19      1.0  0.36183  0.74314  0.31006  1.0000 0.4675583369
Zn  Zn20      1.0  0.13817  0.24314  0.68994  1.0000 0.4675583369
Zn  Zn21      1.0  0.34718  0.02618  0.58737  1.0000 0.4634468682
Zn  Zn22      1.0  0.15282  0.52618  0.41263  1.0000 0.4634468682
Zn  Zn23      1.0  0.65282  0.47382  0.08737  1.0000 0.4634468682
Zn  Zn24      1.0  0.84718  0.97382  0.91263  1.0000 0.4634468682
H   H1        1.0  0.63290  0.26370  0.41470  1.0000 0.1363045346
H   H2        1.0  0.86710  0.76370  0.58530  1.0000 0.1326495539
H   H3        1.0  0.36710  0.23630  0.91470  1.0000 0.1363045346
H   H4        1.0  0.13290  0.73630  0.08530  1.0000 0.1363045346
H   H5        1.0  0.65800  0.33200  0.44040  1.0000 0.1009775709
H   H6        1.0  0.84200  0.83200  0.55960  1.0000 0.1009775709
H   H7        1.0  0.34200  0.16800  0.94040  1.0000 0.1009775709
H   H8        1.0  0.15800  0.66800  0.05960  1.0000 0.1009775709
H   H9        1.0  0.59560  0.40890  0.37150  1.0000 0.1009775709
H   H10       1.0  0.90440  0.90890  0.62850  1.0000 0.1009775709
H   H11       1.0  0.40440  0.09110  0.87150  1.0000 0.1009775709
H   H12       1.0  0.09560  0.59110  0.12850  1.0000 0.1009775709
H   H13       1.0  0.56700  0.34240  0.34340  1.0000 0.1326495539
H   H14       1.0  0.93300  0.84240  0.65660  1.0000 0.1326495539
H   H15       1.0  0.43300  0.15760  0.84340  1.0000 0.1326495539
H   H16       1.0  0.06700  0.65760  0.15660  1.0000 0.1326495539
H   H17       1.0  0.54790  0.29160  0.27990  1.0000 0.1326495539
H   H18       1.0  0.95210  0.79160  0.72010  1.0000 0.1326495539
H   H19       1.0  0.45210  0.20840  0.77990  1.0000 0.1326495539
H   H20       1.0  0.04790  0.70840  0.22010  1.0000 0.1326495539
H   H21       1.0  0.48340  0.29970  0.23260  1.0000 0.1009775709
H   H22       1.0  0.01660  0.79970  0.76740  1.0000 0.1009775709
H   H23       1.0  0.51660  0.20030  0.73260  1.0000 0.1009775709
H   H24       1.0  0.98340  0.70030  0.26740  1.0000 0.1009775709
H   H25       1.0  0.40460  0.16660  0.23200  1.0000 0.1093803507
H   H26       1.0  0.09540  0.66667  0.76800  1.0000 0.1093803507
H   H27       1.0  0.59540  0.33340  0.73200  1.0000 0.1093803507
H   H28       1.0  0.90460  0.83340  0.26800  1.0000 0.1093803507
H   H29       1.0  0.46880  0.15550  0.27900  1.0000 0.1326495539
H   H30       1.0  0.03120  0.65550  0.72100  1.0000 0.1326495539
H   H31       1.0  0.53120  0.34450  0.77900  1.0000 0.1326495539
H   H32       1.0  0.96880  0.84450  0.22100  1.0000 0.1326495539
H   H33       1.0  0.58450  0.08650  0.33080  1.0000 0.1326495539
H   H34       1.0  0.91550  0.58650  0.66920  1.0000 0.1326495539
H   H35       1.0  0.41550  0.41350  0.83080  1.0000 0.1326495539
H   H36       1.0  0.08450  0.91350  0.16920  1.0000 0.1326495539
H   H37       1.0  0.60290  0.01480  0.35370  1.0000 0.1093803507
H   H38       1.0  0.89710  0.51480  0.64630  1.0000 0.1093803507
H   H39       1.0  0.39710  0.48520  0.85370  1.0000 0.1093803507
H   H40       1.0  0.10290  0.98520  0.14630  1.0000 0.1093803507
H   H41       1.0  0.62650  0.07530  0.43100  1.0000 0.1093803507
H   H42       1.0  0.87350  0.57530  0.56900  1.0000 0.1093803507
H   H43       1.0  0.37350  0.42470  0.93100  1.0000 0.1093803507
H   H44       1.0  0.12650  0.92470  0.06900  1.0000 0.1093803507
H   H45       1.0  0.60290  0.14880  0.41010  1.0000 0.1326495539
H   H46       1.0  0.89710  0.64880  0.58990  1.0000 0.1326495539
H   H47       1.0  0.39710  0.35120  0.91010  1.0000 0.1326495539
H   H48       1.0  0.10290  0.85120  0.08990  1.0000 0.1326495539
H   H49       1.0  0.37470  0.44550  0.49760  1.0000 0.1363045346
H   H50       1.0  0.12530  0.94550  0.50240  1.0000 0.1363045346
H   H51       1.0  0.62530  0.05450  0.99760  1.0000 0.1363045346
H   H52       1.0  0.87470  0.55450  0.00240  1.0000 0.1363045346
H   H53       1.0  0.47460  0.46460  0.45780  1.0000 0.1093803507
H   H54       1.0  0.02540  0.96460  0.54220  1.0000 0.1093803507
H   H55       1.0  0.52540  0.03540  0.95780  1.0000 0.1093803507
H   H56       1.0  0.97460  0.53540  0.04220  1.0000 0.1093803507
H   H57       1.0  0.69170  0.39140  0.49000  1.0000 0.1009775709
H   H58       1.0  0.80830  0.89140  0.51000  1.0000 0.1009775709
H   H59       1.0  0.30830  0.10860  0.99000  1.0000 0.1009775709
H   H60       1.0  0.19170  0.60860  0.01000  1.0000 0.1009775709
H   H61       1.0  0.59790  0.36880  0.53030  1.0000 0.1363045346
H   H62       1.0  0.90210  0.86880  0.46970  1.0000 0.1363045346
H   H63       1.0  0.40210  0.13120  0.03030  1.0000 0.1363045346
H   H64       1.0  0.09790  0.63120  0.96970  1.0000 0.1363045346
H   H65       1.0  0.59710  0.35170  0.60000  1.0000 0.1326495539
H   H66       1.0  0.90290  0.85170  0.40000  1.0000 0.1326495539
H   H67       1.0  0.40290  0.14830  0.10000  1.0000 0.1326495539
H   H68       1.0  0.09710  0.64830  0.90000  1.0000 0.1326495539
H   H69       1.0  0.67780  0.31750  0.63930  1.0000 0.1093803507
H   H70       1.0  0.82220  0.81750  0.36070  1.0000 0.1093803507
H   H71       1.0  0.32220  0.18250  0.13930  1.0000 0.1093803507
H   H72       1.0  0.17780  0.68250  0.86070  1.0000 0.1093803507
H   H73       1.0  0.42770  0.28290  0.67570  1.0000 0.1093803507
H   H74       1.0  0.07230  0.78290  0.32430  1.0000 0.1093803507
H   H75       1.0  0.57230  0.21710  0.17570  1.0000 0.1093803507
H   H76       1.0  0.92770  0.71710  0.82430  1.0000 0.1093803507
H   H77       1.0  0.33950  0.31970  0.63810  1.0000 0.1326495539
H   H78       1.0  0.16050  0.81970  0.36190  1.0000 0.1326495539
H   H79       1.0  0.66050  0.18030  0.13810  1.0000 0.1326495539
H   H80       1.0  0.83950  0.68030  0.86190  1.0000 0.1326495539
H   H81       1.0  0.14360  0.37940  0.61190  1.0000 0.1326495539
H   H82       1.0  0.35640  0.87940  0.38810  1.0000 0.1326495539
H   H83       1.0  0.85640  0.12060  0.11190  1.0000 0.1326495539
H   H84       1.0  0.64360  0.62060  0.88810  1.0000 0.1326495539
H   H85       1.0  0.98880  0.40880  0.61750  1.0000 0.1093803507
H   H86       1.0  0.51120  0.90880  0.38250  1.0000 0.1093803507
H   H87       1.0  0.01120  0.09120  0.11750  1.0000 0.1093803507
H   H88       1.0  0.48880  0.59120  0.88250  1.0000 0.1093803507
H   H89       1.0  0.00500  0.47230  0.54140  1.0000 0.1093803507
H   H90       1.0  0.49500  0.97230  0.45860  1.0000 0.1093803507
H   H91       1.0  0.99500  0.02770  0.04140  1.0000 0.1093803507
H   H92       1.0  0.50500  0.52770  0.95860  1.0000 0.1093803507
H   H93       1.0  0.16050  0.44520  0.53390  1.0000 0.1363045346
H   H94       1.0  0.33950  0.94520  0.46610  1.0000 0.1363045346
H   H95       1.0  0.83950  0.05480  0.03390  1.0000 0.1363045346
H   H96       1.0  0.66050  0.55480  0.96610  1.0000 0.1363045346
H   H97       1.0  0.36710  0.73630  0.58530  1.0000 0.1326495539
H   H98       1.0  0.13290  0.23630  0.41470  1.0000 0.1363045346
H   H99       1.0  0.63290  0.76370  0.08530  1.0000 0.1363045346
H   H100      1.0  0.86710  0.26370  0.91470  1.0000 0.1326495539
H   H101      1.0  0.34200  0.66800  0.55960  1.0000 0.1009775709
H   H102      1.0  0.15800  0.16800  0.44040  1.0000 0.1009775709
H   H103      1.0  0.65800  0.83200  0.05960  1.0000 0.1009775709
H   H104      1.0  0.84200  0.33200  0.94040  1.0000 0.1009775709
H   H105      1.0  0.40440  0.59110  0.62850  1.0000 0.1009775709
H   H106      1.0  0.09560  0.09110  0.37150  1.0000 0.1009775709
H   H107      1.0  0.59560  0.90890  0.12850  1.0000 0.1009775709
H   H108      1.0  0.90440  0.40890  0.87150  1.0000 0.1009775709
H   H109      1.0  0.43300  0.65760  0.65660  1.0000 0.1326495539
H   H110      1.0  0.06700  0.15760  0.34340  1.0000 0.1326495539
H   H111      1.0  0.56700  0.84240  0.15660  1.0000 0.1326495539
H   H112      1.0  0.93300  0.34240  0.84340  1.0000 0.1326495539
H   H113      1.0  0.45210  0.70840  0.72010  1.0000 0.1326495539
H   H114      1.0  0.04790  0.20840  0.27990  1.0000 0.1326495539
H   H115      1.0  0.54790  0.79160  0.22010  1.0000 0.1326495539
H   H116      1.0  0.95210  0.29160  0.77990  1.0000 0.1326495539
H   H117      1.0  0.51660  0.70030  0.76740  1.0000 0.1009775709
H   H118      1.0  0.98340  0.20030  0.23260  1.0000 0.1009775709
H   H119      1.0  0.48340  0.79970  0.26740  1.0000 0.1009775709
H   H120      1.0  0.01660  0.29970  0.73260  1.0000 0.1009775709
H   H121      1.0  0.59540  0.83340  0.76800  1.0000 0.1093803507
H   H122      1.0  0.90460  0.33340  0.23200  1.0000 0.1093803507
H   H123      1.0  0.40460  0.66667  0.26800  1.0000 0.1093803507
H   H124      1.0  0.09540  0.16660  0.73200  1.0000 0.1093803507
H   H125      1.0  0.53120  0.84450  0.72100  1.0000 0.1326495539
H   H126      1.0  0.96880  0.34450  0.27900  1.0000 0.1326495539
H   H127      1.0  0.46880  0.65550  0.22100  1.0000 0.1326495539
H   H128      1.0  0.03120  0.15550  0.77900  1.0000 0.1326495539
H   H129      1.0  0.41550  0.91350  0.66920  1.0000 0.1326495539
H   H130      1.0  0.08450  0.41350  0.33080  1.0000 0.1326495539
H   H131      1.0  0.58450  0.58650  0.16920  1.0000 0.1326495539
H   H132      1.0  0.91550  0.08650  0.83080  1.0000 0.1326495539
H   H133      1.0  0.39710  0.98520  0.64630  1.0000 0.1093803507
H   H134      1.0  0.10290  0.48520  0.35370  1.0000 0.1093803507
H   H135      1.0  0.60290  0.51480  0.14630  1.0000 0.1093803507
H   H136      1.0  0.89710  0.01480  0.85370  1.0000 0.1093803507
H   H137      1.0  0.37350  0.92470  0.56900  1.0000 0.1093803507
H   H138      1.0  0.12650  0.42470  0.43100  1.0000 0.1093803507
H   H139      1.0  0.62650  0.57530  0.06900  1.0000 0.1093803507
H   H140      1.0  0.87350  0.07530  0.93100  1.0000 0.1093803507
H   H141      1.0  0.39710  0.85120  0.58990  1.0000 0.1326495539
H   H142      1.0  0.10290  0.35120  0.41010  1.0000 0.1326495539
H   H143      1.0  0.60290  0.64880  0.08990  1.0000 0.1326495539
H   H144      1.0  0.89710  0.14880  0.91010  1.0000 0.1326495539
H   H145      1.0  0.62530  0.55450  0.50240  1.0000 0.1363045346
H   H146      1.0  0.87470  0.05450  0.49760  1.0000 0.1363045346
H   H147      1.0  0.37470  0.94550  0.00240  1.0000 0.1363045346
H   H148      1.0  0.12530  0.44550  0.99760  1.0000 0.1363045346
H   H149      1.0  0.52540  0.53540  0.54220  1.0000 0.1093803507
H   H150      1.0  0.97460  0.03540  0.45780  1.0000 0.1093803507
H   H151      1.0  0.47460  0.96460  0.04220  1.0000 0.1093803507
H   H152      1.0  0.02540  0.46460  0.95780  1.0000 0.1093803507
H   H153      1.0  0.30830  0.60860  0.51000  1.0000 0.1009775709
H   H154      1.0  0.19170  0.10860  0.49000  1.0000 0.1009775709
H   H155      1.0  0.69170  0.89140  0.01000  1.0000 0.1009775709
H   H156      1.0  0.80830  0.39140  0.99000  1.0000 0.1009775709
H   H157      1.0  0.40210  0.63120  0.46970  1.0000 0.1363045346
H   H158      1.0  0.09790  0.13120  0.53030  1.0000 0.1363045346
H   H159      1.0  0.59790  0.86880  0.96970  1.0000 0.1363045346
H   H160      1.0  0.90210  0.36880  0.03030  1.0000 0.1363045346
H   H161      1.0  0.40290  0.64830  0.40000  1.0000 0.1326495539
H   H162      1.0  0.09710  0.14830  0.60000  1.0000 0.1326495539
H   H163      1.0  0.59710  0.85170  0.90000  1.0000 0.1326495539
H   H164      1.0  0.90290  0.35170  0.10000  1.0000 0.1326495539
H   H165      1.0  0.32220  0.68250  0.36070  1.0000 0.1093803507
H   H166      1.0  0.17780  0.18250  0.63930  1.0000 0.1093803507
H   H167      1.0  0.67780  0.81750  0.86070  1.0000 0.1093803507
H   H168      1.0  0.82220  0.31750  0.13930  1.0000 0.1093803507
H   H169      1.0  0.57230  0.71710  0.32430  1.0000 0.1093803507
H   H170      1.0  0.92770  0.21710  0.67570  1.0000 0.1093803507
H   H171      1.0  0.42770  0.78290  0.82430  1.0000 0.1093803507
H   H172      1.0  0.07230  0.28290  0.17570  1.0000 0.1093803507
H   H173      1.0  0.66050  0.68030  0.36190  1.0000 0.1326495539
H   H174      1.0  0.83950  0.18030  0.63810  1.0000 0.1326495539
H   H175      1.0  0.33950  0.81970  0.86190  1.0000 0.1326495539
H   H176      1.0  0.16050  0.31970  0.13810  1.0000 0.1326495539
H   H177      1.0  0.85640  0.62060  0.38810  1.0000 0.1326495539
H   H178      1.0  0.64360  0.12060  0.61190  1.0000 0.1326495539
H   H179      1.0  0.14360  0.87940  0.88810  1.0000 0.1326495539
H   H180      1.0  0.35640  0.37940  0.11190  1.0000 0.1326495539
H   H181      1.0  0.01120  0.59120  0.38250  1.0000 0.1093803507
H   H182      1.0  0.48880  0.09120  0.61750  1.0000 0.1093803507
H   H183      1.0  0.98880  0.90880  0.88250  1.0000 0.1093803507
H   H184      1.0  0.51120  0.40880  0.11750  1.0000 0.1093803507
H   H185      1.0  0.99500  0.52770  0.45860  1.0000 0.1093803507
H   H186      1.0  0.50500  0.02770  0.54140  1.0000 0.1093803507
H   H187      1.0  0.00500  0.97230  0.95860  1.0000 0.1093803507
H   H188      1.0  0.49500  0.47230  0.04140  1.0000 0.1093803507
H   H189      1.0  0.83950  0.55480  0.46610  1.0000 0.1363045346
H   H190      1.0  0.66050  0.05480  0.53390  1.0000 0.1363045346
H   H191      1.0  0.16050  0.94520  0.96610  1.0000 0.1363045346
H   H192      1.0  0.33950  0.44520  0.03390  1.0000 0.1363045346
C   C1        1.0  0.58470  0.25140  0.35861  1.0000 0.37941255
C   C2        1.0  0.91530  0.75140  0.64139  1.0000 0.37941255
C   C3        1.0  0.41530  0.24860  0.85861  1.0000 0.37941255
C   C4        1.0  0.08470  0.74860  0.14139  1.0000 0.3869651533
C   C5        1.0  0.54720  0.21760  0.31516  1.0000 0.3869651533
C   C6        1.0  0.95280  0.71760  0.68484  1.0000 0.37941255
C   C7        1.0  0.45280  0.28240  0.81516  1.0000 0.3869651533
C   C8        1.0  0.04720  0.78240  0.18484  1.0000 0.3869651533
C   C9        1.0  0.58300  0.17270  0.35444  1.0000 0.37941255
C   C10       1.0  0.91700  0.67270  0.64556  1.0000 0.37941255
C   C11       1.0  0.41700  0.32730  0.85444  1.0000 0.37941255
C   C12       1.0  0.08300  0.82730  0.14556  1.0000 0.37941255
C   C13       1.0  0.59850  0.29540  0.37598  1.0000 0.0590710068
C   C14       1.0  0.90150  0.79540  0.62402  1.0000 0.0590710068
C   C15       1.0  0.40150  0.20460  0.87598  1.0000 0.0693850879
C   C16       1.0  0.09850  0.70460  0.12402  1.0000 0.0590710068
C   C17       1.0  0.62520  0.29320  0.40527  1.0000 -0.1717549598
C   C18       1.0  0.87480  0.79320  0.59473  1.0000 -0.1717549598
C   C19       1.0  0.37480  0.20680  0.90527  1.0000 -0.1717549598
C   C20       1.0  0.12520  0.70680  0.09473  1.0000 -0.1717549598
C   C21       1.0  0.64020  0.33400  0.42032  1.0000 0.0837088304
C   C22       1.0  0.85980  0.83400  0.57968  1.0000 0.0837088304
C   C23       1.0  0.35980  0.16600  0.92032  1.0000 0.0837088304
C   C24       1.0  0.14020  0.66600  0.07968  1.0000 0.0837088304
C   C25       1.0  0.60370  0.37870  0.38017  1.0000 0.0892542542
C   C26       1.0  0.89630  0.87870  0.61983  1.0000 0.0892542542
C   C27       1.0  0.39630  0.12130  0.88017  1.0000 0.0892542542
C   C28       1.0  0.10370  0.62130  0.11983  1.0000 0.0892542542
C   C29       1.0  0.58660  0.33950  0.36330  1.0000 -0.16051296
C   C30       1.0  0.91340  0.83950  0.63670  1.0000 -0.16051296
C   C31       1.0  0.41340  0.16050  0.86330  1.0000 -0.16051296
C   C32       1.0  0.08660  0.66050  0.13670  1.0000 -0.16051296
C   C33       1.0  0.51320  0.22290  0.28431  1.0000 0.0590710068
C   C34       1.0  0.98680  0.72290  0.71569  1.0000 0.0590710068
C   C35       1.0  0.48680  0.27710  0.78431  1.0000 0.0590710068
C   C36       1.0  0.01320  0.77710  0.21569  1.0000 0.0590710068
C   C37       1.0  0.51810  0.26550  0.27043  1.0000 -0.1390877151
C   C38       1.0  0.98190  0.76550  0.72957  1.0000 -0.1390877151
C   C39       1.0  0.48190  0.23450  0.77043  1.0000 -0.1390877151
C   C40       1.0  0.01810  0.73450  0.22957  1.0000 -0.1390877151
C   C41       1.0  0.47920  0.27020  0.24233  1.0000 0.1009775709
C   C42       1.0  0.02080  0.77020  0.75767  1.0000 0.1009775709
C   C43       1.0  0.52080  0.22980  0.74233  1.0000 0.1009775709
C   C44       1.0  0.97920  0.72980  0.25767  1.0000 0.1009775709
C   C45       1.0  0.43340  0.19250  0.24193  1.0000 0.0892542542
C   C46       1.0  0.06660  0.69250  0.75807  1.0000 0.0892542542
C   C47       1.0  0.56660  0.30750  0.74193  1.0000 0.0892542542
C   C48       1.0  0.93340  0.80750  0.25807  1.0000 0.0892542542
C   C49       1.0  0.47160  0.18560  0.27001  1.0000 -0.16051296
C   C50       1.0  0.02840  0.68560  0.72999  1.0000 -0.16051296
C   C51       1.0  0.52840  0.31440  0.77001  1.0000 -0.16051296
C   C52       1.0  0.97160  0.81440  0.22999  1.0000 -0.16051296
C   C53       1.0  0.59310  0.12590  0.36836  1.0000 0.0590710068
C   C54       1.0  0.90690  0.62590  0.63164  1.0000 0.0590710068
C   C55       1.0  0.40690  0.37410  0.86836  1.0000 0.0590710068
C   C56       1.0  0.09310  0.87410  0.13164  1.0000 0.0590710068
C   C57       1.0  0.59270  0.08500  0.35144  1.0000 -0.16051296
C   C58       1.0  0.90730  0.58500  0.64856  1.0000 -0.16051296
C   C59       1.0  0.40730  0.41500  0.85144  1.0000 -0.16051296
C   C60       1.0  0.09270  0.91500  0.14856  1.0000 -0.16051296
C   C61       1.0  0.60430  0.04250  0.36530  1.0000 0.0892542542
C   C62       1.0  0.89570  0.54250  0.63470  1.0000 0.0892542542
C   C63       1.0  0.39570  0.45750  0.86530  1.0000 0.0892542542
C   C64       1.0  0.10430  0.95750  0.13470  1.0000 0.0892542542
C   C65       1.0  0.61730  0.07770  0.41037  1.0000 0.0892542542
C   C66       1.0  0.88270  0.57770  0.58963  1.0000 0.0892542542
C   C67       1.0  0.38270  0.42230  0.91037  1.0000 0.0892542542
C   C68       1.0  0.11730  0.92230  0.08963  1.0000 0.0837088304
C   C69       1.0  0.60420  0.12160  0.39798  1.0000 -0.1390877151
C   C70       1.0  0.89580  0.62160  0.60202  1.0000 -0.1390877151
C   C71       1.0  0.39580  0.37840  0.89798  1.0000 -0.1390877151
C   C72       1.0  0.10420  0.87840  0.10202  1.0000 -0.1390877151
C   C73       1.0  0.41740  0.39250  0.54454  1.0000 0.37941255
C   C74       1.0  0.08260  0.89250  0.45546  1.0000 0.37941255
C   C75       1.0  0.58260  0.10750  0.04454  1.0000 0.37941255
C   C76       1.0  0.91740  0.60750  0.95546  1.0000 0.37941255
C   C77       1.0  0.40860  0.36170  0.58999  1.0000 0.3675880856
C   C78       1.0  0.09140  0.86170  0.41001  1.0000 0.3675880856
C   C79       1.0  0.59140  0.13830  0.08999  1.0000 0.3675880856
C   C80       1.0  0.90860  0.63830  0.91001  1.0000 0.3675880856
C   C81       1.0  0.27460  0.39340  0.56946  1.0000 0.37941255
C   C82       1.0  0.22540  0.89340  0.43054  1.0000 0.37941255
C   C83       1.0  0.72540  0.10660  0.06946  1.0000 0.37941255
C   C84       1.0  0.77460  0.60660  0.93054  1.0000 0.37941255
C   C85       1.0  0.47590  0.40540  0.51833  1.0000 0.0590710068
C   C86       1.0  0.02410  0.90540  0.48167  1.0000 0.0590710068
C   C87       1.0  0.52410  0.09460  0.01833  1.0000 0.0590710068
C   C88       1.0  0.97590  0.59460  0.98167  1.0000 0.0590710068
C   C89       1.0  0.43950  0.43350  0.49648  1.0000 -0.1390877151
C   C90       1.0  0.06050  0.93350  0.50352  1.0000 -0.1390877151
C   C91       1.0  0.56050  0.06650  0.99648  1.0000 -0.1390877151
C   C92       1.0  0.93950  0.56650  0.00352  1.0000 -0.1390877151
C   C93       1.0  0.49910  0.44430  0.47261  1.0000 0.0837088304
C   C94       1.0  0.00090  0.94430  0.52739  1.0000 0.0837088304
C   C95       1.0  0.50090  0.05570  0.97261  1.0000 0.0837088304
C   C96       1.0  0.99910  0.55570  0.02739  1.0000 0.0837088304
C   C97       1.0  0.62560  0.40150  0.49121  1.0000 0.0892542542
C   C98       1.0  0.87440  0.90150  0.50879  1.0000 0.0892542542
C   C99       1.0  0.37440  0.09850  0.99121  1.0000 0.0892542542
C   C100      1.0  0.12560  0.59850  0.00879  1.0000 0.0892542542
C   C101      1.0  0.57070  0.38870  0.51569  1.0000 -0.1461905004
C   C102      1.0  0.92930  0.88870  0.48431  1.0000 -0.1461905004
C   C103      1.0  0.42930  0.11130  0.01569  1.0000 -0.1461905004
C   C104      1.0  0.07070  0.61130  0.98431  1.0000 -0.1461905004
C   C105      1.0  0.45930  0.33960  0.61491  1.0000 0.0590710068
C   C106      1.0  0.04070  0.83960  0.38509  1.0000 0.0590710068
C   C107      1.0  0.54070  0.16040  0.11491  1.0000 0.0590710068
C   C108      1.0  0.95930  0.66040  0.88509  1.0000 0.0590710068
C   C109      1.0  0.56050  0.33810  0.61556  1.0000 -0.123545567
C   C110      1.0  0.93950  0.83810  0.38444  1.0000 -0.123545567
C   C111      1.0  0.43950  0.16190  0.11556  1.0000 -0.123545567
C   C112      1.0  0.06050  0.66190  0.88444  1.0000 -0.123545567
C   C113      1.0  0.60830  0.31700  0.63869  1.0000 0.0892542542
C   C114      1.0  0.89170  0.81700  0.36131  1.0000 0.0892542542
C   C115      1.0  0.39170  0.18300  0.13869  1.0000 0.0892542542
C   C116      1.0  0.10830  0.68300  0.86131  1.0000 0.0892542542
C   C117      1.0  0.46220  0.29720  0.66004  1.0000 0.0892542542
C   C118      1.0  0.03780  0.79720  0.33996  1.0000 0.0892542542
C   C119      1.0  0.53780  0.20280  0.16004  1.0000 0.0892542542
C   C120      1.0  0.96220  0.70280  0.83996  1.0000 0.0892542542
C   C121      1.0  0.40890  0.31910  0.63760  1.0000 -0.123545567
C   C122      1.0  0.09110  0.81910  0.36240  1.0000 -0.123545567
C   C123      1.0  0.59110  0.18090  0.13760  1.0000 -0.123545567
C   C124      1.0  0.90890  0.68090  0.86240  1.0000 -0.123545567
C   C125      1.0  0.17140  0.40930  0.57219  1.0000 0.0693850879
C   C126      1.0  0.32860  0.90930  0.42781  1.0000 0.0693850879
C   C127      1.0  0.82860  0.09070  0.07219  1.0000 0.0693850879
C   C128      1.0  0.67140  0.59070  0.92781  1.0000 0.0693850879
C   C129      1.0  0.11660  0.39890  0.59703  1.0000 -0.123545567
C   C130      1.0  0.38340  0.89890  0.40297  1.0000 -0.123545567
C   C131      1.0  0.88340  0.10110  0.09703  1.0000 -0.123545567
C   C132      1.0  0.61660  0.60110  0.90297  1.0000 -0.1250946433
C   C133      1.0  0.02450  0.41640  0.60027  1.0000 0.0693850879
C   C134      1.0  0.47550  0.91640  0.39973  1.0000 0.0693850879
C   C135      1.0  0.97550  0.08360  0.10027  1.0000 0.0693850879
C   C136      1.0  0.52450  0.58360  0.89973  1.0000 0.0693850879
C   C137      1.0  0.03420  0.45330  0.55613  1.0000 0.0892542542
C   C138      1.0  0.46580  0.95330  0.44387  1.0000 0.0892542542
C   C139      1.0  0.96580  0.04670  0.05613  1.0000 0.0892542542
C   C140      1.0  0.53420  0.54670  0.94387  1.0000 0.0892542542
C   C141      1.0  0.12680  0.43720  0.55141  1.0000 -0.1390877151
C   C142      1.0  0.37320  0.93720  0.44859  1.0000 -0.1390877151
C   C143      1.0  0.87320  0.06280  0.05141  1.0000 -0.1390877151
C   C144      1.0  0.62680  0.56280  0.94859  1.0000 -0.1390877151
C   C145      1.0  0.41530  0.74860  0.64139  1.0000 0.37941255
C   C146      1.0  0.08470  0.24860  0.35861  1.0000 0.3869651533
C   C147      1.0  0.58470  0.75140  0.14139  1.0000 0.37941255
C   C148      1.0  0.91530  0.25140  0.85861  1.0000 0.37941255
C   C149      1.0  0.45280  0.78240  0.68484  1.0000 0.3869651533
C   C150      1.0  0.04720  0.28240  0.31516  1.0000 0.3869651533
C   C151      1.0  0.54720  0.71760  0.18484  1.0000 0.3869651533
C   C152      1.0  0.95280  0.21760  0.81516  1.0000 0.37941255
C   C153      1.0  0.41700  0.82730  0.64556  1.0000 0.37941255
C   C154      1.0  0.08300  0.32730  0.35444  1.0000 0.37941255
C   C155      1.0  0.58300  0.67270  0.14556  1.0000 0.37941255
C   C156      1.0  0.91700  0.17270  0.85444  1.0000 0.37941255
C   C157      1.0  0.40150  0.70460  0.62402  1.0000 0.0590710068
C   C158      1.0  0.09850  0.20460  0.37598  1.0000 0.0590710068
C   C159      1.0  0.59850  0.79540  0.12402  1.0000 0.0590710068
C   C160      1.0  0.90150  0.29540  0.87598  1.0000 0.0693850879
C   C161      1.0  0.37480  0.70680  0.59473  1.0000 -0.1717549598
C   C162      1.0  0.12520  0.20680  0.40527  1.0000 -0.1717549598
C   C163      1.0  0.62520  0.79320  0.09473  1.0000 -0.1717549598
C   C164      1.0  0.87480  0.29320  0.90527  1.0000 -0.1717549598
C   C165      1.0  0.35980  0.66600  0.57968  1.0000 0.0837088304
C   C166      1.0  0.14020  0.16600  0.42032  1.0000 0.0837088304
C   C167      1.0  0.64020  0.83400  0.07968  1.0000 0.0837088304
C   C168      1.0  0.85980  0.33400  0.92032  1.0000 0.0837088304
C   C169      1.0  0.39630  0.62130  0.61983  1.0000 0.0892542542
C   C170      1.0  0.10370  0.12130  0.38017  1.0000 0.0892542542
C   C171      1.0  0.60370  0.87870  0.11983  1.0000 0.0892542542
C   C172      1.0  0.89630  0.37870  0.88017  1.0000 0.0892542542
C   C173      1.0  0.41340  0.66050  0.63670  1.0000 -0.16051296
C   C174      1.0  0.08660  0.16050  0.36330  1.0000 -0.16051296
C   C175      1.0  0.58660  0.83950  0.13670  1.0000 -0.16051296
C   C176      1.0  0.91340  0.33950  0.86330  1.0000 -0.16051296
C   C177      1.0  0.48680  0.77710  0.71569  1.0000 0.0590710068
C   C178      1.0  0.01320  0.27710  0.28431  1.0000 0.0590710068
C   C179      1.0  0.51320  0.72290  0.21569  1.0000 0.0590710068
C   C180      1.0  0.98680  0.22290  0.78431  1.0000 0.0590710068
C   C181      1.0  0.48190  0.73450  0.72957  1.0000 -0.1390877151
C   C182      1.0  0.01810  0.23450  0.27043  1.0000 -0.1390877151
C   C183      1.0  0.51810  0.76550  0.22957  1.0000 -0.1390877151
C   C184      1.0  0.98190  0.26550  0.77043  1.0000 -0.1390877151
C   C185      1.0  0.52080  0.72980  0.75767  1.0000 0.1009775709
C   C186      1.0  0.97920  0.22980  0.24233  1.0000 0.1009775709
C   C187      1.0  0.47920  0.77020  0.25767  1.0000 0.1009775709
C   C188      1.0  0.02080  0.27020  0.74233  1.0000 0.1009775709
C   C189      1.0  0.56660  0.80750  0.75807  1.0000 0.0892542542
C   C190      1.0  0.93340  0.30750  0.24193  1.0000 0.0892542542
C   C191      1.0  0.43340  0.69250  0.25807  1.0000 0.0892542542
C   C192      1.0  0.06660  0.19250  0.74193  1.0000 0.0892542542
C   C193      1.0  0.52840  0.81440  0.72999  1.0000 -0.16051296
C   C194      1.0  0.97160  0.31440  0.27001  1.0000 -0.16051296
C   C195      1.0  0.47160  0.68560  0.22999  1.0000 -0.16051296
C   C196      1.0  0.02840  0.18560  0.77001  1.0000 -0.16051296
C   C197      1.0  0.40690  0.87410  0.63164  1.0000 0.0590710068
C   C198      1.0  0.09310  0.37410  0.36836  1.0000 0.0590710068
C   C199      1.0  0.59310  0.62590  0.13164  1.0000 0.0590710068
C   C200      1.0  0.90690  0.12590  0.86836  1.0000 0.0590710068
C   C201      1.0  0.40730  0.91500  0.64856  1.0000 -0.16051296
C   C202      1.0  0.09270  0.41500  0.35144  1.0000 -0.16051296
C   C203      1.0  0.59270  0.58500  0.14856  1.0000 -0.16051296
C   C204      1.0  0.90730  0.08500  0.85144  1.0000 -0.16051296
C   C205      1.0  0.39570  0.95750  0.63470  1.0000 0.0892542542
C   C206      1.0  0.10430  0.45750  0.36530  1.0000 0.0892542542
C   C207      1.0  0.60430  0.54250  0.13470  1.0000 0.0892542542
C   C208      1.0  0.89570  0.04250  0.86530  1.0000 0.0892542542
C   C209      1.0  0.38270  0.92230  0.58963  1.0000 0.0892542542
C   C210      1.0  0.11730  0.42230  0.41037  1.0000 0.0837088304
C   C211      1.0  0.61730  0.57770  0.08963  1.0000 0.0892542542
C   C212      1.0  0.88270  0.07770  0.91037  1.0000 0.0892542542
C   C213      1.0  0.39580  0.87840  0.60202  1.0000 -0.1390877151
C   C214      1.0  0.10420  0.37840  0.39798  1.0000 -0.1390877151
C   C215      1.0  0.60420  0.62160  0.10202  1.0000 -0.1390877151
C   C216      1.0  0.89580  0.12160  0.89798  1.0000 -0.1390877151
C   C217      1.0  0.58260  0.60750  0.45546  1.0000 0.37941255
C   C218      1.0  0.91740  0.10750  0.54454  1.0000 0.37941255
C   C219      1.0  0.41740  0.89250  0.95546  1.0000 0.37941255
C   C220      1.0  0.08260  0.39250  0.04454  1.0000 0.37941255
C   C221      1.0  0.59140  0.63830  0.41001  1.0000 0.3675880856
C   C222      1.0  0.90860  0.13830  0.58999  1.0000 0.3675880856
C   C223      1.0  0.40860  0.86170  0.91001  1.0000 0.3675880856
C   C224      1.0  0.09140  0.36170  0.08999  1.0000 0.3675880856
C   C225      1.0  0.72540  0.60660  0.43054  1.0000 0.37941255
C   C226      1.0  0.77460  0.10660  0.56946  1.0000 0.37941255
C   C227      1.0  0.27460  0.89340  0.93054  1.0000 0.37941255
C   C228      1.0  0.22540  0.39340  0.06946  1.0000 0.37941255
C   C229      1.0  0.52410  0.59460  0.48167  1.0000 0.0590710068
C   C230      1.0  0.97590  0.09460  0.51833  1.0000 0.0590710068
C   C231      1.0  0.47590  0.90540  0.98167  1.0000 0.0590710068
C   C232      1.0  0.02410  0.40540  0.01833  1.0000 0.0590710068
C   C233      1.0  0.56050  0.56650  0.50352  1.0000 -0.1390877151
C   C234      1.0  0.93950  0.06650  0.49648  1.0000 -0.1390877151
C   C235      1.0  0.43950  0.93350  0.00352  1.0000 -0.1390877151
C   C236      1.0  0.06050  0.43350  0.99648  1.0000 -0.1390877151
C   C237      1.0  0.50090  0.55570  0.52739  1.0000 0.0837088304
C   C238      1.0  0.99910  0.05570  0.47261  1.0000 0.0837088304
C   C239      1.0  0.49910  0.94430  0.02739  1.0000 0.0837088304
C   C240      1.0  0.00090  0.44430  0.97261  1.0000 0.0837088304
C   C241      1.0  0.37440  0.59850  0.50879  1.0000 0.0892542542
C   C242      1.0  0.12560  0.09850  0.49121  1.0000 0.0892542542
C   C243      1.0  0.62560  0.90150  0.00879  1.0000 0.0892542542
C   C244      1.0  0.87440  0.40150  0.99121  1.0000 0.0892542542
C   C245      1.0  0.42930  0.61130  0.48431  1.0000 -0.1461905004
C   C246      1.0  0.07070  0.11130  0.51569  1.0000 -0.1461905004
C   C247      1.0  0.57070  0.88870  0.98431  1.0000 -0.1461905004
C   C248      1.0  0.92930  0.38870  0.01569  1.0000 -0.1461905004
C   C249      1.0  0.54070  0.66040  0.38509  1.0000 0.0590710068
C   C250      1.0  0.95930  0.16040  0.61491  1.0000 0.0590710068
C   C251      1.0  0.45930  0.83960  0.88509  1.0000 0.0590710068
C   C252      1.0  0.04070  0.33960  0.11491  1.0000 0.0590710068
C   C253      1.0  0.43950  0.66190  0.38444  1.0000 -0.123545567
C   C254      1.0  0.06050  0.16190  0.61556  1.0000 -0.123545567
C   C255      1.0  0.56050  0.83810  0.88444  1.0000 -0.123545567
C   C256      1.0  0.93950  0.33810  0.11556  1.0000 -0.123545567
C   C257      1.0  0.39170  0.68300  0.36131  1.0000 0.0892542542
C   C258      1.0  0.10830  0.18300  0.63869  1.0000 0.0892542542
C   C259      1.0  0.60830  0.81700  0.86131  1.0000 0.0892542542
C   C260      1.0  0.89170  0.31700  0.13869  1.0000 0.0892542542
C   C261      1.0  0.53780  0.70280  0.33996  1.0000 0.0892542542
C   C262      1.0  0.96220  0.20280  0.66004  1.0000 0.0892542542
C   C263      1.0  0.46220  0.79720  0.83996  1.0000 0.0892542542
C   C264      1.0  0.03780  0.29720  0.16004  1.0000 0.0892542542
C   C265      1.0  0.59110  0.68090  0.36240  1.0000 -0.123545567
C   C266      1.0  0.90890  0.18090  0.63760  1.0000 -0.123545567
C   C267      1.0  0.40890  0.81910  0.86240  1.0000 -0.123545567
C   C268      1.0  0.09110  0.31910  0.13760  1.0000 -0.123545567
C   C269      1.0  0.82860  0.59070  0.42781  1.0000 0.0693850879
C   C270      1.0  0.67140  0.09070  0.57219  1.0000 0.0693850879
C   C271      1.0  0.17140  0.90930  0.92781  1.0000 0.0693850879
C   C272      1.0  0.32860  0.40930  0.07219  1.0000 0.0693850879
C   C273      1.0  0.88340  0.60110  0.40297  1.0000 -0.123545567
C   C274      1.0  0.61660  0.10110  0.59703  1.0000 -0.123545567
C   C275      1.0  0.11660  0.89890  0.90297  1.0000 -0.1250946433
C   C276      1.0  0.38340  0.39890  0.09703  1.0000 -0.123545567
C   C277      1.0  0.97550  0.58360  0.39973  1.0000 0.0693850879
C   C278      1.0  0.52450  0.08360  0.60027  1.0000 0.0693850879
C   C279      1.0  0.02450  0.91640  0.89973  1.0000 0.0693850879
C   C280      1.0  0.47550  0.41640  0.10027  1.0000 0.0693850879
C   C281      1.0  0.96580  0.54670  0.44387  1.0000 0.0892542542
C   C282      1.0  0.53420  0.04670  0.55613  1.0000 0.0892542542
C   C283      1.0  0.03420  0.95330  0.94387  1.0000 0.0892542542
C   C284      1.0  0.46580  0.45330  0.05613  1.0000 0.0892542542
C   C285      1.0  0.87320  0.56280  0.44859  1.0000 -0.1390877151
C   C286      1.0  0.62680  0.06280  0.55141  1.0000 -0.1390877151
C   C287      1.0  0.12680  0.93720  0.94859  1.0000 -0.1390877151
C   C288      1.0  0.37320  0.43720  0.05141  1.0000 -0.1390877151
I   I1        1.0  0.59766  0.50462  0.40339  1.0000 -0.437409407
I   I2        1.0  0.90234  0.00462  0.59661  1.0000 -0.437409407
I   I3        1.0  0.40234  0.99538  0.90339  1.0000 -0.437409407
I   I4        1.0  0.09766  0.49538  0.09661  1.0000 -0.437409407
I   I5        1.0  0.84940  0.42333  0.44467  1.0000 -0.467414035
I   I6        1.0  0.65060  0.92333  0.55533  1.0000 -0.467414035
I   I7        1.0  0.15060  0.07667  0.94467  1.0000 -0.467414035
I   I8        1.0  0.34940  0.57667  0.05533  1.0000 -0.467414035
I   I9        1.0  0.19901  0.20119  0.19673  1.0000 -0.46274246
I   I10       1.0  0.30099  0.70119  0.80327  1.0000 -0.46274246
I   I11       1.0  0.80099  0.29881  0.69673  1.0000 -0.46274246
I   I12       1.0  0.69901  0.79881  0.30327  1.0000 -0.46274246
I   I13       1.0  0.36591  0.32904  0.17530  1.0000 -0.46274246
I   I14       1.0  0.13409  0.82904  0.82470  1.0000 -0.46274246
I   I15       1.0  0.63409  0.17096  0.67530  1.0000 -0.46274246
I   I16       1.0  0.86591  0.67096  0.32470  1.0000 -0.46274246
I   I17       1.0  0.72993  0.98980  0.46257  1.0000 -0.46274246
I   I18       1.0  0.77007  0.48980  0.53743  1.0000 -0.467414035
I   I19       1.0  0.27007  0.51020  0.96257  1.0000 -0.46274246
I   I20       1.0  0.22993  0.01020  0.03743  1.0000 -0.46274246
I   I21       1.0  0.73855  0.92827  0.37204  1.0000 -0.4481089399
I   I22       1.0  0.76145  0.42827  0.62796  1.0000 -0.4481089399
I   I23       1.0  0.26145  0.57173  0.87204  1.0000 -0.4481089399
I   I24       1.0  0.23855  0.07173  0.12796  1.0000 -0.4481089399
I   I25       1.0  0.40234  0.49538  0.59661  1.0000 -0.437409407
I   I26       1.0  0.09766  0.99538  0.40339  1.0000 -0.437409407
I   I27       1.0  0.59766  0.00462  0.09661  1.0000 -0.437409407
I   I28       1.0  0.90234  0.50462  0.90339  1.0000 -0.437409407
I   I29       1.0  0.15060  0.57667  0.55533  1.0000 -0.467414035
I   I30       1.0  0.34940  0.07667  0.44467  1.0000 -0.467414035
I   I31       1.0  0.84940  0.92333  0.05533  1.0000 -0.467414035
I   I32       1.0  0.65060  0.42333  0.94467  1.0000 -0.467414035
I   I33       1.0  0.80099  0.79881  0.80327  1.0000 -0.46274246
I   I34       1.0  0.69901  0.29881  0.19673  1.0000 -0.46274246
I   I35       1.0  0.19901  0.70119  0.30327  1.0000 -0.46274246
I   I36       1.0  0.30099  0.20119  0.69673  1.0000 -0.46274246
I   I37       1.0  0.63409  0.67096  0.82470  1.0000 -0.46274246
I   I38       1.0  0.86591  0.17096  0.17530  1.0000 -0.46274246
I   I39       1.0  0.36591  0.82904  0.32470  1.0000 -0.46274246
I   I40       1.0  0.13409  0.32904  0.67530  1.0000 -0.46274246
I   I41       1.0  0.27007  0.01020  0.53743  1.0000 -0.46274246
I   I42       1.0  0.22993  0.51020  0.46257  1.0000 -0.46274246
I   I43       1.0  0.72993  0.48980  0.03743  1.0000 -0.46274246
I   I44       1.0  0.77007  0.98980  0.96257  1.0000 -0.467414035
I   I45       1.0  0.26145  0.07173  0.62796  1.0000 -0.4481089399
I   I46       1.0  0.23855  0.57173  0.37204  1.0000 -0.4481089399
I   I47       1.0  0.73855  0.42827  0.12796  1.0000 -0.4481089399
I   I48       1.0  0.76145  0.92827  0.87204  1.0000 -0.4481089399
N   N1        1.0  0.56180  0.25780  0.32991  1.0000 -0.4310874366
N   N2        1.0  0.93820  0.75780  0.67009  1.0000 -0.4310874366
N   N3        1.0  0.43820  0.24220  0.82991  1.0000 -0.4310874366
N   N4        1.0  0.06180  0.74220  0.17009  1.0000 -0.4310874366
N   N5        1.0  0.55880  0.17460  0.32585  1.0000 -0.4184981187
N   N6        1.0  0.94120  0.67460  0.67415  1.0000 -0.4184981187
N   N7        1.0  0.44120  0.32540  0.82585  1.0000 -0.4184981187
N   N8        1.0  0.05880  0.82540  0.17415  1.0000 -0.4184981187
N   N9        1.0  0.59560  0.21070  0.37167  1.0000 -0.4184981187
N   N10       1.0  0.90440  0.71070  0.62833  1.0000 -0.414226307
N   N11       1.0  0.40440  0.28930  0.87167  1.0000 -0.4184981187
N   N12       1.0  0.09560  0.78930  0.12833  1.0000 -0.4184981187
N   N13       1.0  0.63130  0.37610  0.40836  1.0000 -0.1801708438
N   N14       1.0  0.86870  0.87610  0.59164  1.0000 -0.1801708438
N   N15       1.0  0.36870  0.12390  0.90836  1.0000 -0.1801708438
N   N16       1.0  0.13130  0.62390  0.09164  1.0000 -0.1801708438
N   N17       1.0  0.43580  0.23390  0.22863  1.0000 -0.1801708438
N   N18       1.0  0.06420  0.73390  0.77137  1.0000 -0.1801708438
N   N19       1.0  0.56420  0.26610  0.72863  1.0000 -0.1801708438
N   N20       1.0  0.93580  0.76610  0.27137  1.0000 -0.1801708438
N   N21       1.0  0.61740  0.03800  0.39392  1.0000 -0.1801708438
N   N22       1.0  0.88260  0.53800  0.60608  1.0000 -0.1801708438
N   N23       1.0  0.38260  0.46200  0.89392  1.0000 -0.1801708438
N   N24       1.0  0.11740  0.96200  0.10608  1.0000 -0.1801708438
N   N25       1.0  0.46330  0.37210  0.56618  1.0000 -0.3893564124
N   N26       1.0  0.03670  0.87210  0.43382  1.0000 -0.3893564124
N   N27       1.0  0.53670  0.12790  0.06618  1.0000 -0.3893564124
N   N28       1.0  0.96330  0.62790  0.93382  1.0000 -0.3893564124
N   N29       1.0  0.31280  0.37140  0.59246  1.0000 -0.3766023651
N   N30       1.0  0.18720  0.87140  0.40754  1.0000 -0.3766023651
N   N31       1.0  0.68720  0.12860  0.09246  1.0000 -0.3766023651
N   N32       1.0  0.81280  0.62860  0.90754  1.0000 -0.3766023651
N   N33       1.0  0.32080  0.40430  0.54449  1.0000 -0.3893564124
N   N34       1.0  0.17920  0.90430  0.45551  1.0000 -0.3893564124
N   N35       1.0  0.67920  0.09570  0.04449  1.0000 -0.3893564124
N   N36       1.0  0.82080  0.59570  0.95551  1.0000 -0.3893564124
N   N37       1.0  0.58990  0.42700  0.46983  1.0000 -0.1801708438
N   N38       1.0  0.91010  0.92700  0.53017  1.0000 -0.1801708438
N   N39       1.0  0.41010  0.07300  0.96983  1.0000 -0.1801708438
N   N40       1.0  0.08990  0.57300  0.03017  1.0000 -0.1801708438
N   N41       1.0  0.55960  0.29590  0.66007  1.0000 -0.1717549598
N   N42       1.0  0.94040  0.79590  0.33993  1.0000 -0.1717549598
N   N43       1.0  0.44040  0.20410  0.16007  1.0000 -0.1717549598
N   N44       1.0  0.05960  0.70410  0.83993  1.0000 -0.1717549598
N   N45       1.0  0.98220  0.44420  0.57998  1.0000 -0.1717549598
N   N46       1.0  0.51780  0.94420  0.42002  1.0000 -0.1717549598
N   N47       1.0  0.01780  0.05580  0.07998  1.0000 -0.1717549598
N   N48       1.0  0.48220  0.55580  0.92002  1.0000 -0.1717549598
N   N49       1.0  0.43820  0.74220  0.67009  1.0000 -0.4310874366
N   N50       1.0  0.06180  0.24220  0.32991  1.0000 -0.4310874366
N   N51       1.0  0.56180  0.75780  0.17009  1.0000 -0.4310874366
N   N52       1.0  0.93820  0.25780  0.82991  1.0000 -0.4310874366
N   N53       1.0  0.44120  0.82540  0.67415  1.0000 -0.4184981187
N   N54       1.0  0.05880  0.32540  0.32585  1.0000 -0.4184981187
N   N55       1.0  0.55880  0.67460  0.17415  1.0000 -0.4184981187
N   N56       1.0  0.94120  0.17460  0.82585  1.0000 -0.4184981187
N   N57       1.0  0.40440  0.78930  0.62833  1.0000 -0.4184981187
N   N58       1.0  0.09560  0.28930  0.37167  1.0000 -0.4184981187
N   N59       1.0  0.59560  0.71070  0.12833  1.0000 -0.4184981187
N   N60       1.0  0.90440  0.21070  0.87167  1.0000 -0.414226307
N   N61       1.0  0.36870  0.62390  0.59164  1.0000 -0.1801708438
N   N62       1.0  0.13130  0.12390  0.40836  1.0000 -0.1801708438
N   N63       1.0  0.63130  0.87610  0.09164  1.0000 -0.1801708438
N   N64       1.0  0.86870  0.37610  0.90836  1.0000 -0.1801708438
N   N65       1.0  0.56420  0.76610  0.77137  1.0000 -0.1801708438
N   N66       1.0  0.93580  0.26610  0.22863  1.0000 -0.1801708438
N   N67       1.0  0.43580  0.73390  0.27137  1.0000 -0.1801708438
N   N68       1.0  0.06420  0.23390  0.72863  1.0000 -0.1801708438
N   N69       1.0  0.38260  0.96200  0.60608  1.0000 -0.1801708438
N   N70       1.0  0.11740  0.46200  0.39392  1.0000 -0.1801708438
N   N71       1.0  0.61740  0.53800  0.10608  1.0000 -0.1801708438
N   N72       1.0  0.88260  0.03800  0.89392  1.0000 -0.1801708438
N   N73       1.0  0.53670  0.62790  0.43382  1.0000 -0.3893564124
N   N74       1.0  0.96330  0.12790  0.56618  1.0000 -0.3893564124
N   N75       1.0  0.46330  0.87210  0.93382  1.0000 -0.3893564124
N   N76       1.0  0.03670  0.37210  0.06618  1.0000 -0.3893564124
N   N77       1.0  0.68720  0.62860  0.40754  1.0000 -0.3766023651
N   N78       1.0  0.81280  0.12860  0.59246  1.0000 -0.3766023651
N   N79       1.0  0.31280  0.87140  0.90754  1.0000 -0.3766023651
N   N80       1.0  0.18720  0.37140  0.09246  1.0000 -0.3766023651
N   N81       1.0  0.67920  0.59570  0.45551  1.0000 -0.3893564124
N   N82       1.0  0.82080  0.09570  0.54449  1.0000 -0.3893564124
N   N83       1.0  0.32080  0.90430  0.95551  1.0000 -0.3893564124
N   N84       1.0  0.17920  0.40430  0.04449  1.0000 -0.3893564124
N   N85       1.0  0.41010  0.57300  0.53017  1.0000 -0.1801708438
N   N86       1.0  0.08990  0.07300  0.46983  1.0000 -0.1801708438
N   N87       1.0  0.58990  0.92700  0.03017  1.0000 -0.1801708438
N   N88       1.0  0.91010  0.42700  0.96983  1.0000 -0.1801708438
N   N89       1.0  0.44040  0.70410  0.33993  1.0000 -0.1717549598
N   N90       1.0  0.05960  0.20410  0.66007  1.0000 -0.1717549598
N   N91       1.0  0.55960  0.79590  0.83993  1.0000 -0.1717549598
N   N92       1.0  0.94040  0.29590  0.16007  1.0000 -0.1717549598
N   N93       1.0  0.01780  0.55580  0.42002  1.0000 -0.1717549598
N   N94       1.0  0.48220  0.05580  0.57998  1.0000 -0.1717549598
N   N95       1.0  0.98220  0.94420  0.92002  1.0000 -0.1717549598
N   N96       1.0  0.51780  0.44420  0.07998  1.0000 -0.1717549598
