# DDEC6 charges by PACMAN v1.1 (https://github.com/mtap-research/PACMAN-charge/)
data_2008[Zn][nan]3[ASR]2
_chemical_formula_sum              "Zn24 P16 H200 C336 O120"
_cell_length_a       22.9079
_cell_length_b       22.9079
_cell_length_c       22.9079
_cell_angle_alpha    90
_cell_angle_beta     90
_cell_angle_gamma    90

_symmetry_space_group_name_H-M    "P 1"
_symmetry_Int_Tables_number       1

loop_
  _symmetry_equiv_pos_as_xyz
  'x, y, z'

loop_
  _atom_site_type_symbol
  _atom_site_label
  _atom_site_symmetry_multiplicity
  _atom_site_fract_x
  _atom_site_fract_y
  _atom_site_fract_z
  _atom_site_occupancy
  _atom_site_charge
Zn  Zn1       1.0  0.77374  0.28820  0.67500  1.0000 0.9594804626
Zn  Zn2       1.0  0.67500  0.77374  0.28820  1.0000 0.9594804626
Zn  Zn3       1.0  0.28820  0.67500  0.77374  1.0000 0.9594804626
Zn  Zn4       1.0  0.72626  0.71180  0.17500  1.0000 0.9594804626
Zn  Zn5       1.0  0.22626  0.78820  0.82500  1.0000 0.9594804626
Zn  Zn6       1.0  0.27374  0.21180  0.32500  1.0000 0.9594804626
Zn  Zn7       1.0  0.17500  0.72626  0.71180  1.0000 0.9594804626
Zn  Zn8       1.0  0.82500  0.22626  0.78820  1.0000 0.9594804626
Zn  Zn9       1.0  0.32500  0.27374  0.21180  1.0000 0.9594804626
Zn  Zn10      1.0  0.71180  0.17500  0.72626  1.0000 0.9594804626
Zn  Zn11      1.0  0.78820  0.82500  0.22626  1.0000 0.9594804626
Zn  Zn12      1.0  0.21180  0.32500  0.27374  1.0000 0.9594804626
Zn  Zn13      1.0  0.22626  0.71180  0.32500  1.0000 0.9594804626
Zn  Zn14      1.0  0.32500  0.22626  0.71180  1.0000 0.9594804626
Zn  Zn15      1.0  0.71180  0.32500  0.22626  1.0000 0.9594804626
Zn  Zn16      1.0  0.27374  0.28820  0.82500  1.0000 0.9594804626
Zn  Zn17      1.0  0.77374  0.21180  0.17500  1.0000 0.9594804626
Zn  Zn18      1.0  0.72626  0.78820  0.67500  1.0000 0.9594804626
Zn  Zn19      1.0  0.82500  0.27374  0.28820  1.0000 0.9594804626
Zn  Zn20      1.0  0.17500  0.77374  0.21180  1.0000 0.9594804626
Zn  Zn21      1.0  0.67500  0.72626  0.78820  1.0000 0.9594804626
Zn  Zn22      1.0  0.28820  0.82500  0.27374  1.0000 0.9594804626
Zn  Zn23      1.0  0.21180  0.17500  0.77374  1.0000 0.9594804626
Zn  Zn24      1.0  0.78820  0.67500  0.72626  1.0000 0.9594804626
P   P1        1.0  0.64049  0.64049  0.64049  1.0000 0.8603367936
P   P2        1.0  0.85951  0.35951  0.14049  1.0000 0.8603367936
P   P3        1.0  0.35951  0.14049  0.85951  1.0000 0.8603367936
P   P4        1.0  0.14049  0.85951  0.35951  1.0000 0.8603367936
P   P5        1.0  0.64817  0.14817  0.35183  1.0000 0.8423106875
P   P6        1.0  0.35183  0.64817  0.14817  1.0000 0.8423106875
P   P7        1.0  0.14817  0.35183  0.64817  1.0000 0.8423106875
P   P8        1.0  0.85183  0.85183  0.85183  1.0000 0.8423106875
P   P9        1.0  0.35951  0.35951  0.35951  1.0000 0.8603367936
P   P10       1.0  0.14049  0.64049  0.85951  1.0000 0.8603367936
P   P11       1.0  0.64049  0.85951  0.14049  1.0000 0.8603367936
P   P12       1.0  0.85951  0.14049  0.64049  1.0000 0.8603367936
P   P13       1.0  0.35183  0.85183  0.64817  1.0000 0.8423106875
P   P14       1.0  0.64817  0.35183  0.85183  1.0000 0.8423106875
P   P15       1.0  0.85183  0.64817  0.35183  1.0000 0.8423106875
P   P16       1.0  0.14817  0.14817  0.14817  1.0000 0.8423106875
H   H1        1.0  0.72620  0.27380  0.77380  1.0000 0.3991013374
H   H2        1.0  0.77380  0.72620  0.27380  1.0000 0.3991013374
H   H3        1.0  0.27380  0.77380  0.72620  1.0000 0.3991013374
H   H4        1.0  0.22620  0.22620  0.22620  1.0000 0.3991013374
H   H5        1.0  0.57180  0.53540  0.66060  1.0000 0.1148209404
H   H6        1.0  0.66060  0.57180  0.53540  1.0000 0.1148209404
H   H7        1.0  0.53540  0.66060  0.57180  1.0000 0.1148209404
H   H8        1.0  0.92820  0.46460  0.16060  1.0000 0.1148209404
H   H9        1.0  0.42820  0.03540  0.83940  1.0000 0.1148209404
H   H10       1.0  0.07180  0.96460  0.33940  1.0000 0.1148209404
H   H11       1.0  0.16060  0.92820  0.46460  1.0000 0.1148209404
H   H12       1.0  0.83940  0.42820  0.03540  1.0000 0.1148209404
H   H13       1.0  0.33940  0.07180  0.96460  1.0000 0.1148209404
H   H14       1.0  0.46460  0.16060  0.92820  1.0000 0.1148209404
H   H15       1.0  0.03540  0.83940  0.42820  1.0000 0.1148209404
H   H16       1.0  0.96460  0.33940  0.07180  1.0000 0.1148209404
H   H17       1.0  0.59720  0.43600  0.67430  1.0000 0.1194614931
H   H18       1.0  0.67430  0.59720  0.43600  1.0000 0.1194614931
H   H19       1.0  0.43600  0.67430  0.59720  1.0000 0.1194614931
H   H20       1.0  0.90280  0.56400  0.17430  1.0000 0.1194614931
H   H21       1.0  0.40280  0.93600  0.82570  1.0000 0.1194614931
H   H22       1.0  0.09720  0.06400  0.32570  1.0000 0.1194614931
H   H23       1.0  0.17430  0.90280  0.56400  1.0000 0.1194614931
H   H24       1.0  0.82570  0.40280  0.93600  1.0000 0.1194614931
H   H25       1.0  0.32570  0.09720  0.06400  1.0000 0.1194614931
H   H26       1.0  0.56400  0.17430  0.90280  1.0000 0.1194614931
H   H27       1.0  0.93600  0.82570  0.40280  1.0000 0.1194614931
H   H28       1.0  0.06400  0.32570  0.09720  1.0000 0.1194614931
H   H29       1.0  0.76560  0.47530  0.65160  1.0000 0.1288670404
H   H30       1.0  0.65160  0.76560  0.47530  1.0000 0.1288670404
H   H31       1.0  0.47530  0.65160  0.76560  1.0000 0.1288670404
H   H32       1.0  0.73440  0.52470  0.15160  1.0000 0.1288670404
H   H33       1.0  0.23440  0.97530  0.84840  1.0000 0.1288670404
H   H34       1.0  0.26560  0.02470  0.34840  1.0000 0.1288670404
H   H35       1.0  0.15160  0.73440  0.52470  1.0000 0.1288670404
H   H36       1.0  0.84840  0.23440  0.97530  1.0000 0.1288670404
H   H37       1.0  0.34840  0.26560  0.02470  1.0000 0.1288670404
H   H38       1.0  0.52470  0.15160  0.73440  1.0000 0.1288670404
H   H39       1.0  0.97530  0.84840  0.23440  1.0000 0.1288670404
H   H40       1.0  0.02470  0.34840  0.26560  1.0000 0.1288670404
H   H41       1.0  0.74160  0.57420  0.64330  1.0000 0.1288670404
H   H42       1.0  0.64330  0.74160  0.57420  1.0000 0.1288670404
H   H43       1.0  0.57420  0.64330  0.74160  1.0000 0.1288670404
H   H44       1.0  0.75840  0.42580  0.14330  1.0000 0.1288670404
H   H45       1.0  0.25840  0.07420  0.85670  1.0000 0.1288670404
H   H46       1.0  0.24160  0.92580  0.35670  1.0000 0.1288670404
H   H47       1.0  0.14330  0.75840  0.42580  1.0000 0.1288670404
H   H48       1.0  0.85670  0.25840  0.07420  1.0000 0.1288670404
H   H49       1.0  0.35670  0.24160  0.92580  1.0000 0.1288670404
H   H50       1.0  0.42580  0.14330  0.75840  1.0000 0.1288670404
H   H51       1.0  0.07420  0.85670  0.25840  1.0000 0.1288670404
H   H52       1.0  0.92580  0.35670  0.24160  1.0000 0.1288670404
H   H53       1.0  0.65520  0.07900  0.45930  1.0000 0.1194614931
H   H54       1.0  0.45930  0.65520  0.07900  1.0000 0.1194614931
H   H55       1.0  0.07900  0.45930  0.65520  1.0000 0.1194614931
H   H56       1.0  0.84480  0.92100  0.95930  1.0000 0.1194614931
H   H57       1.0  0.34480  0.57900  0.04070  1.0000 0.1194614931
H   H58       1.0  0.15520  0.42100  0.54070  1.0000 0.1194614931
H   H59       1.0  0.95930  0.84480  0.92100  1.0000 0.1194614931
H   H60       1.0  0.04070  0.34480  0.57900  1.0000 0.1194614931
H   H61       1.0  0.54070  0.15520  0.42100  1.0000 0.1194614931
H   H62       1.0  0.92100  0.95930  0.84480  1.0000 0.1194614931
H   H63       1.0  0.57900  0.04070  0.34480  1.0000 0.1194614931
H   H64       1.0  0.42100  0.54070  0.15520  1.0000 0.1194614931
H   H65       1.0  0.66750  0.10470  0.55740  1.0000 0.1194614931
H   H66       1.0  0.55740  0.66750  0.10470  1.0000 0.1194614931
H   H67       1.0  0.10470  0.55740  0.66750  1.0000 0.1194614931
H   H68       1.0  0.83250  0.89530  0.05740  1.0000 0.1194614931
H   H69       1.0  0.33250  0.60470  0.94260  1.0000 0.1194614931
H   H70       1.0  0.16750  0.39530  0.44260  1.0000 0.1194614931
H   H71       1.0  0.05740  0.83250  0.89530  1.0000 0.1194614931
H   H72       1.0  0.94260  0.33250  0.60470  1.0000 0.1194614931
H   H73       1.0  0.44260  0.16750  0.39530  1.0000 0.1194614931
H   H74       1.0  0.89530  0.05740  0.83250  1.0000 0.1194614931
H   H75       1.0  0.60470  0.94260  0.33250  1.0000 0.1194614931
H   H76       1.0  0.39530  0.44260  0.16750  1.0000 0.1194614931
H   H77       1.0  0.70200  0.26770  0.50880  1.0000 0.1288670404
H   H78       1.0  0.50880  0.70200  0.26770  1.0000 0.1288670404
H   H79       1.0  0.26770  0.50880  0.70200  1.0000 0.1288670404
H   H80       1.0  0.79800  0.73230  0.00880  1.0000 0.1288670404
H   H81       1.0  0.29800  0.76770  0.99120  1.0000 0.1288670404
H   H82       1.0  0.20200  0.23230  0.49120  1.0000 0.1288670404
H   H83       1.0  0.00880  0.79800  0.73230  1.0000 0.1288670404
H   H84       1.0  0.99120  0.29800  0.76770  1.0000 0.1288670404
H   H85       1.0  0.49120  0.20200  0.23230  1.0000 0.1288670404
H   H86       1.0  0.73230  0.00880  0.79800  1.0000 0.1288670404
H   H87       1.0  0.76770  0.99120  0.29800  1.0000 0.1288670404
H   H88       1.0  0.23230  0.49120  0.20200  1.0000 0.1288670404
H   H89       1.0  0.67350  0.24730  0.41510  1.0000 0.1402632948
H   H90       1.0  0.41510  0.67350  0.24730  1.0000 0.1402632948
H   H91       1.0  0.24730  0.41510  0.67350  1.0000 0.1402632948
H   H92       1.0  0.82650  0.75270  0.91510  1.0000 0.1402632948
H   H93       1.0  0.32650  0.74730  0.08490  1.0000 0.1402632948
H   H94       1.0  0.17350  0.25270  0.58490  1.0000 0.1402632948
H   H95       1.0  0.91510  0.82650  0.75270  1.0000 0.1402632948
H   H96       1.0  0.08490  0.32650  0.74730  1.0000 0.1402632948
H   H97       1.0  0.58490  0.17350  0.25270  1.0000 0.1402632948
H   H98       1.0  0.75270  0.91510  0.82650  1.0000 0.1402632948
H   H99       1.0  0.74730  0.08490  0.32650  1.0000 0.1402632948
H   H100      1.0  0.25270  0.58490  0.17350  1.0000 0.1402632948
H   H101      1.0  0.27380  0.72620  0.22620  1.0000 0.3991013374
H   H102      1.0  0.22620  0.27380  0.72620  1.0000 0.3991013374
H   H103      1.0  0.72620  0.22620  0.27380  1.0000 0.3991013374
H   H104      1.0  0.77380  0.77380  0.77380  1.0000 0.3991013374
H   H105      1.0  0.42820  0.46460  0.33940  1.0000 0.1148209404
H   H106      1.0  0.33940  0.42820  0.46460  1.0000 0.1148209404
H   H107      1.0  0.46460  0.33940  0.42820  1.0000 0.1148209404
H   H108      1.0  0.07180  0.53540  0.83940  1.0000 0.1148209404
H   H109      1.0  0.57180  0.96460  0.16060  1.0000 0.1148209404
H   H110      1.0  0.92820  0.03540  0.66060  1.0000 0.1148209404
H   H111      1.0  0.83940  0.07180  0.53540  1.0000 0.1148209404
H   H112      1.0  0.16060  0.57180  0.96460  1.0000 0.1148209404
H   H113      1.0  0.66060  0.92820  0.03540  1.0000 0.1148209404
H   H114      1.0  0.53540  0.83940  0.07180  1.0000 0.1148209404
H   H115      1.0  0.96460  0.16060  0.57180  1.0000 0.1148209404
H   H116      1.0  0.03540  0.66060  0.92820  1.0000 0.1148209404
H   H117      1.0  0.40280  0.56400  0.32570  1.0000 0.1194614931
H   H118      1.0  0.32570  0.40280  0.56400  1.0000 0.1194614931
H   H119      1.0  0.56400  0.32570  0.40280  1.0000 0.1194614931
H   H120      1.0  0.09720  0.43600  0.82570  1.0000 0.1194614931
H   H121      1.0  0.59720  0.06400  0.17430  1.0000 0.1194614931
H   H122      1.0  0.90280  0.93600  0.67430  1.0000 0.1194614931
H   H123      1.0  0.82570  0.09720  0.43600  1.0000 0.1194614931
H   H124      1.0  0.17430  0.59720  0.06400  1.0000 0.1194614931
H   H125      1.0  0.67430  0.90280  0.93600  1.0000 0.1194614931
H   H126      1.0  0.43600  0.82570  0.09720  1.0000 0.1194614931
H   H127      1.0  0.06400  0.17430  0.59720  1.0000 0.1194614931
H   H128      1.0  0.93600  0.67430  0.90280  1.0000 0.1194614931
H   H129      1.0  0.23440  0.52470  0.34840  1.0000 0.1288670404
H   H130      1.0  0.34840  0.23440  0.52470  1.0000 0.1288670404
H   H131      1.0  0.52470  0.34840  0.23440  1.0000 0.1288670404
H   H132      1.0  0.26560  0.47530  0.84840  1.0000 0.1288670404
H   H133      1.0  0.76560  0.02470  0.15160  1.0000 0.1288670404
H   H134      1.0  0.73440  0.97530  0.65160  1.0000 0.1288670404
H   H135      1.0  0.84840  0.26560  0.47530  1.0000 0.1288670404
H   H136      1.0  0.15160  0.76560  0.02470  1.0000 0.1288670404
H   H137      1.0  0.65160  0.73440  0.97530  1.0000 0.1288670404
H   H138      1.0  0.47530  0.84840  0.26560  1.0000 0.1288670404
H   H139      1.0  0.02470  0.15160  0.76560  1.0000 0.1288670404
H   H140      1.0  0.97530  0.65160  0.73440  1.0000 0.1288670404
H   H141      1.0  0.25840  0.42580  0.35670  1.0000 0.1288670404
H   H142      1.0  0.35670  0.25840  0.42580  1.0000 0.1288670404
H   H143      1.0  0.42580  0.35670  0.25840  1.0000 0.1288670404
H   H144      1.0  0.24160  0.57420  0.85670  1.0000 0.1288670404
H   H145      1.0  0.74160  0.92580  0.14330  1.0000 0.1288670404
H   H146      1.0  0.75840  0.07420  0.64330  1.0000 0.1288670404
H   H147      1.0  0.85670  0.24160  0.57420  1.0000 0.1288670404
H   H148      1.0  0.14330  0.74160  0.92580  1.0000 0.1288670404
H   H149      1.0  0.64330  0.75840  0.07420  1.0000 0.1288670404
H   H150      1.0  0.57420  0.85670  0.24160  1.0000 0.1288670404
H   H151      1.0  0.92580  0.14330  0.74160  1.0000 0.1288670404
H   H152      1.0  0.07420  0.64330  0.75840  1.0000 0.1288670404
H   H153      1.0  0.34480  0.92100  0.54070  1.0000 0.1194614931
H   H154      1.0  0.54070  0.34480  0.92100  1.0000 0.1194614931
H   H155      1.0  0.92100  0.54070  0.34480  1.0000 0.1194614931
H   H156      1.0  0.15520  0.07900  0.04070  1.0000 0.1194614931
H   H157      1.0  0.65520  0.42100  0.95930  1.0000 0.1194614931
H   H158      1.0  0.84480  0.57900  0.45930  1.0000 0.1194614931
H   H159      1.0  0.04070  0.15520  0.07900  1.0000 0.1194614931
H   H160      1.0  0.95930  0.65520  0.42100  1.0000 0.1194614931
H   H161      1.0  0.45930  0.84480  0.57900  1.0000 0.1194614931
H   H162      1.0  0.07900  0.04070  0.15520  1.0000 0.1194614931
H   H163      1.0  0.42100  0.95930  0.65520  1.0000 0.1194614931
H   H164      1.0  0.57900  0.45930  0.84480  1.0000 0.1194614931
H   H165      1.0  0.33250  0.89530  0.44260  1.0000 0.1194614931
H   H166      1.0  0.44260  0.33250  0.89530  1.0000 0.1194614931
H   H167      1.0  0.89530  0.44260  0.33250  1.0000 0.1194614931
H   H168      1.0  0.16750  0.10470  0.94260  1.0000 0.1194614931
H   H169      1.0  0.66750  0.39530  0.05740  1.0000 0.1194614931
H   H170      1.0  0.83250  0.60470  0.55740  1.0000 0.1194614931
H   H171      1.0  0.94260  0.16750  0.10470  1.0000 0.1194614931
H   H172      1.0  0.05740  0.66750  0.39530  1.0000 0.1194614931
H   H173      1.0  0.55740  0.83250  0.60470  1.0000 0.1194614931
H   H174      1.0  0.10470  0.94260  0.16750  1.0000 0.1194614931
H   H175      1.0  0.39530  0.05740  0.66750  1.0000 0.1194614931
H   H176      1.0  0.60470  0.55740  0.83250  1.0000 0.1194614931
H   H177      1.0  0.29800  0.73230  0.49120  1.0000 0.1288670404
H   H178      1.0  0.49120  0.29800  0.73230  1.0000 0.1288670404
H   H179      1.0  0.73230  0.49120  0.29800  1.0000 0.1288670404
H   H180      1.0  0.20200  0.26770  0.99120  1.0000 0.1288670404
H   H181      1.0  0.70200  0.23230  0.00880  1.0000 0.1288670404
H   H182      1.0  0.79800  0.76770  0.50880  1.0000 0.1288670404
H   H183      1.0  0.99120  0.20200  0.26770  1.0000 0.1288670404
H   H184      1.0  0.00880  0.70200  0.23230  1.0000 0.1288670404
H   H185      1.0  0.50880  0.79800  0.76770  1.0000 0.1288670404
H   H186      1.0  0.26770  0.99120  0.20200  1.0000 0.1288670404
H   H187      1.0  0.23230  0.00880  0.70200  1.0000 0.1288670404
H   H188      1.0  0.76770  0.50880  0.79800  1.0000 0.1288670404
H   H189      1.0  0.32650  0.75270  0.58490  1.0000 0.1402632948
H   H190      1.0  0.58490  0.32650  0.75270  1.0000 0.1402632948
H   H191      1.0  0.75270  0.58490  0.32650  1.0000 0.1402632948
H   H192      1.0  0.17350  0.24730  0.08490  1.0000 0.1402632948
H   H193      1.0  0.67350  0.25270  0.91510  1.0000 0.1402632948
H   H194      1.0  0.82650  0.74730  0.41510  1.0000 0.1402632948
H   H195      1.0  0.08490  0.17350  0.24730  1.0000 0.1402632948
H   H196      1.0  0.91510  0.67350  0.25270  1.0000 0.1402632948
H   H197      1.0  0.41510  0.82650  0.74730  1.0000 0.1402632948
H   H198      1.0  0.24730  0.08490  0.17350  1.0000 0.1402632948
H   H199      1.0  0.25270  0.91510  0.67350  1.0000 0.1402632948
H   H200      1.0  0.74730  0.41510  0.82650  1.0000 0.1402632948
C   C1        1.0  0.65480  0.56380  0.65140  1.0000 -0.1315367054
C   C2        1.0  0.65140  0.65480  0.56380  1.0000 -0.1315367054
C   C3        1.0  0.56380  0.65140  0.65480  1.0000 -0.1315367054
C   C4        1.0  0.84520  0.43620  0.15140  1.0000 -0.1315367054
C   C5        1.0  0.34520  0.06380  0.84860  1.0000 -0.1315367054
C   C6        1.0  0.15480  0.93620  0.34860  1.0000 -0.1315367054
C   C7        1.0  0.15140  0.84520  0.43620  1.0000 -0.1315367054
C   C8        1.0  0.84860  0.34520  0.06380  1.0000 -0.1315367054
C   C9        1.0  0.34860  0.15480  0.93620  1.0000 -0.1315367054
C   C10       1.0  0.43620  0.15140  0.84520  1.0000 -0.1315367054
C   C11       1.0  0.06380  0.84860  0.34520  1.0000 -0.1315367054
C   C12       1.0  0.93620  0.34860  0.15480  1.0000 -0.1315367054
C   C13       1.0  0.61160  0.52360  0.65990  1.0000 -0.0910230629
C   C14       1.0  0.65990  0.61160  0.52360  1.0000 -0.0910230629
C   C15       1.0  0.52360  0.65990  0.61160  1.0000 -0.0910230629
C   C16       1.0  0.88840  0.47640  0.15990  1.0000 -0.0910230629
C   C17       1.0  0.38840  0.02360  0.84010  1.0000 -0.0910230629
C   C18       1.0  0.11160  0.97640  0.34010  1.0000 -0.0910230629
C   C19       1.0  0.15990  0.88840  0.47640  1.0000 -0.0910230629
C   C20       1.0  0.84010  0.38840  0.02360  1.0000 -0.0910230629
C   C21       1.0  0.34010  0.11160  0.97640  1.0000 -0.0910230629
C   C22       1.0  0.47640  0.15990  0.88840  1.0000 -0.0910230629
C   C23       1.0  0.02360  0.84010  0.38840  1.0000 -0.0910230629
C   C24       1.0  0.97640  0.34010  0.11160  1.0000 -0.0910230629
C   C25       1.0  0.62700  0.46400  0.66780  1.0000 -0.0979165365
C   C26       1.0  0.66780  0.62700  0.46400  1.0000 -0.0979165365
C   C27       1.0  0.46400  0.66780  0.62700  1.0000 -0.0979165365
C   C28       1.0  0.87300  0.53600  0.16780  1.0000 -0.0979165365
C   C29       1.0  0.37300  0.96400  0.83220  1.0000 -0.0979165365
C   C30       1.0  0.12700  0.03600  0.33220  1.0000 -0.0979165365
C   C31       1.0  0.16780  0.87300  0.53600  1.0000 -0.0979165365
C   C32       1.0  0.83220  0.37300  0.96400  1.0000 -0.0979165365
C   C33       1.0  0.33220  0.12700  0.03600  1.0000 -0.0979165365
C   C34       1.0  0.53600  0.16780  0.87300  1.0000 -0.0979165365
C   C35       1.0  0.96400  0.83220  0.37300  1.0000 -0.0979165365
C   C36       1.0  0.03600  0.33220  0.12700  1.0000 -0.0979165365
C   C37       1.0  0.68300  0.44640  0.66620  1.0000 -0.0059404679
C   C38       1.0  0.66620  0.68300  0.44640  1.0000 -0.0059404679
C   C39       1.0  0.44640  0.66620  0.68300  1.0000 -0.0059404679
C   C40       1.0  0.81700  0.55360  0.16620  1.0000 -0.0059404679
C   C41       1.0  0.31700  0.94640  0.83380  1.0000 -0.0059404679
C   C42       1.0  0.18300  0.05360  0.33380  1.0000 -0.0059404679
C   C43       1.0  0.16620  0.81700  0.55360  1.0000 -0.0059404679
C   C44       1.0  0.83380  0.31700  0.94640  1.0000 -0.0059404679
C   C45       1.0  0.33380  0.18300  0.05360  1.0000 -0.0059404679
C   C46       1.0  0.55360  0.16620  0.81700  1.0000 -0.0059404679
C   C47       1.0  0.94640  0.83380  0.31700  1.0000 -0.0059404679
C   C48       1.0  0.05360  0.33380  0.18300  1.0000 -0.0059404679
C   C49       1.0  0.72600  0.48730  0.65510  1.0000 -0.0910230629
C   C50       1.0  0.65510  0.72600  0.48730  1.0000 -0.0910230629
C   C51       1.0  0.48730  0.65510  0.72600  1.0000 -0.0910230629
C   C52       1.0  0.77400  0.51270  0.15510  1.0000 -0.0910230629
C   C53       1.0  0.27400  0.98730  0.84490  1.0000 -0.0910230629
C   C54       1.0  0.22600  0.01270  0.34490  1.0000 -0.0910230629
C   C55       1.0  0.15510  0.77400  0.51270  1.0000 -0.0910230629
C   C56       1.0  0.84490  0.27400  0.98730  1.0000 -0.0910230629
C   C57       1.0  0.34490  0.22600  0.01270  1.0000 -0.0910230629
C   C58       1.0  0.51270  0.15510  0.77400  1.0000 -0.0910230629
C   C59       1.0  0.98730  0.84490  0.27400  1.0000 -0.0910230629
C   C60       1.0  0.01270  0.34490  0.22600  1.0000 -0.0910230629
C   C61       1.0  0.71160  0.54620  0.64910  1.0000 -0.0826344583
C   C62       1.0  0.64910  0.71160  0.54620  1.0000 -0.0826344583
C   C63       1.0  0.54620  0.64910  0.71160  1.0000 -0.0826344583
C   C64       1.0  0.78840  0.45380  0.14910  1.0000 -0.0826344583
C   C65       1.0  0.28840  0.04620  0.85090  1.0000 -0.0826344583
C   C66       1.0  0.21160  0.95380  0.35090  1.0000 -0.0826344583
C   C67       1.0  0.14910  0.78840  0.45380  1.0000 -0.0826344583
C   C68       1.0  0.85090  0.28840  0.04620  1.0000 -0.0826344583
C   C69       1.0  0.35090  0.21160  0.95380  1.0000 -0.0826344583
C   C70       1.0  0.45380  0.14910  0.78840  1.0000 -0.0826344583
C   C71       1.0  0.04620  0.85090  0.28840  1.0000 -0.0826344583
C   C72       1.0  0.95380  0.35090  0.21160  1.0000 -0.0826344583
C   C73       1.0  0.69770  0.38280  0.67590  1.0000 0.5584659557
C   C74       1.0  0.67590  0.69770  0.38280  1.0000 0.5584659557
C   C75       1.0  0.38280  0.67590  0.69770  1.0000 0.5584659557
C   C76       1.0  0.80230  0.61720  0.17590  1.0000 0.5584659557
C   C77       1.0  0.30230  0.88280  0.82410  1.0000 0.5584659557
C   C78       1.0  0.19770  0.11720  0.32410  1.0000 0.5584659557
C   C79       1.0  0.17590  0.80230  0.61720  1.0000 0.5584659557
C   C80       1.0  0.82410  0.30230  0.88280  1.0000 0.5584659557
C   C81       1.0  0.32410  0.19770  0.11720  1.0000 0.5584659557
C   C82       1.0  0.61720  0.17590  0.80230  1.0000 0.5584659557
C   C83       1.0  0.88280  0.82410  0.30230  1.0000 0.5584659557
C   C84       1.0  0.11720  0.32410  0.19770  1.0000 0.5584659557
C   C85       1.0  0.66250  0.16210  0.42800  1.0000 -0.1315367054
C   C86       1.0  0.42800  0.66250  0.16210  1.0000 -0.1315367054
C   C87       1.0  0.16210  0.42800  0.66250  1.0000 -0.1315367054
C   C88       1.0  0.83750  0.83790  0.92800  1.0000 -0.1315367054
C   C89       1.0  0.33750  0.66210  0.07200  1.0000 -0.1315367054
C   C90       1.0  0.16250  0.33790  0.57200  1.0000 -0.1315367054
C   C91       1.0  0.92800  0.83750  0.83790  1.0000 -0.1315367054
C   C92       1.0  0.07200  0.33750  0.66210  1.0000 -0.1315367054
C   C93       1.0  0.57200  0.16250  0.33790  1.0000 -0.1315367054
C   C94       1.0  0.83790  0.92800  0.83750  1.0000 -0.1315367054
C   C95       1.0  0.66210  0.07200  0.33750  1.0000 -0.1315367054
C   C96       1.0  0.33790  0.57200  0.16250  1.0000 -0.1315367054
C   C97       1.0  0.66220  0.11840  0.47000  1.0000 -0.0979165365
C   C98       1.0  0.47000  0.66220  0.11840  1.0000 -0.0979165365
C   C99       1.0  0.11840  0.47000  0.66220  1.0000 -0.0979165365
C   C100      1.0  0.83780  0.88160  0.97000  1.0000 -0.0979165365
C   C101      1.0  0.33780  0.61840  0.03000  1.0000 -0.0979165365
C   C102      1.0  0.16220  0.38160  0.53000  1.0000 -0.0979165365
C   C103      1.0  0.97000  0.83780  0.88160  1.0000 -0.0979165365
C   C104      1.0  0.03000  0.33780  0.61840  1.0000 -0.0979165365
C   C105      1.0  0.53000  0.16220  0.38160  1.0000 -0.0979165365
C   C106      1.0  0.88160  0.97000  0.83780  1.0000 -0.0979165365
C   C107      1.0  0.61840  0.03000  0.33780  1.0000 -0.0979165365
C   C108      1.0  0.38160  0.53000  0.16220  1.0000 -0.0979165365
C   C109      1.0  0.67230  0.13340  0.52780  1.0000 -0.0979165365
C   C110      1.0  0.52780  0.67230  0.13340  1.0000 -0.0979165365
C   C111      1.0  0.13340  0.52780  0.67230  1.0000 -0.0979165365
C   C112      1.0  0.82770  0.86660  0.02780  1.0000 -0.0979165365
C   C113      1.0  0.32770  0.63340  0.97220  1.0000 -0.0979165365
C   C114      1.0  0.17230  0.36660  0.47220  1.0000 -0.0979165365
C   C115      1.0  0.02780  0.82770  0.86660  1.0000 -0.0979165365
C   C116      1.0  0.97220  0.32770  0.63340  1.0000 -0.0979165365
C   C117      1.0  0.47220  0.17230  0.36660  1.0000 -0.0979165365
C   C118      1.0  0.86660  0.02780  0.82770  1.0000 -0.0979165365
C   C119      1.0  0.63340  0.97220  0.32770  1.0000 -0.0979165365
C   C120      1.0  0.36660  0.47220  0.17230  1.0000 -0.0979165365
C   C121      1.0  0.68910  0.18810  0.54270  1.0000 -0.0175679212
C   C122      1.0  0.54270  0.68910  0.18810  1.0000 -0.0175679212
C   C123      1.0  0.18810  0.54270  0.68910  1.0000 -0.0175679212
C   C124      1.0  0.81090  0.81190  0.04270  1.0000 -0.0175679212
C   C125      1.0  0.31090  0.68810  0.95730  1.0000 -0.0175679212
C   C126      1.0  0.18910  0.31190  0.45730  1.0000 -0.0175679212
C   C127      1.0  0.04270  0.81090  0.81190  1.0000 -0.0175679212
C   C128      1.0  0.95730  0.31090  0.68810  1.0000 -0.0175679212
C   C129      1.0  0.45730  0.18910  0.31190  1.0000 -0.0175679212
C   C130      1.0  0.81190  0.04270  0.81090  1.0000 -0.0175679212
C   C131      1.0  0.68810  0.95730  0.31090  1.0000 -0.0175679212
C   C132      1.0  0.31190  0.45730  0.18910  1.0000 -0.0175679212
C   C133      1.0  0.69020  0.22910  0.49930  1.0000 -0.0910230629
C   C134      1.0  0.49930  0.69020  0.22910  1.0000 -0.0910230629
C   C135      1.0  0.22910  0.49930  0.69020  1.0000 -0.0910230629
C   C136      1.0  0.80980  0.77090  0.99930  1.0000 -0.0910230629
C   C137      1.0  0.30980  0.72910  0.00070  1.0000 -0.0910230629
C   C138      1.0  0.19020  0.27090  0.50070  1.0000 -0.0910230629
C   C139      1.0  0.99930  0.80980  0.77090  1.0000 -0.0910230629
C   C140      1.0  0.00070  0.30980  0.72910  1.0000 -0.0910230629
C   C141      1.0  0.50070  0.19020  0.27090  1.0000 -0.0910230629
C   C142      1.0  0.77090  0.99930  0.80980  1.0000 -0.0910230629
C   C143      1.0  0.72910  0.00070  0.30980  1.0000 -0.0910230629
C   C144      1.0  0.27090  0.50070  0.19020  1.0000 -0.0910230629
C   C145      1.0  0.67510  0.21700  0.44330  1.0000 -0.0696470241
C   C146      1.0  0.44330  0.67510  0.21700  1.0000 -0.0696470241
C   C147      1.0  0.21700  0.44330  0.67510  1.0000 -0.0696470241
C   C148      1.0  0.82490  0.78300  0.94330  1.0000 -0.0696470241
C   C149      1.0  0.32490  0.71700  0.05670  1.0000 -0.0696470241
C   C150      1.0  0.17510  0.28300  0.55670  1.0000 -0.0696470241
C   C151      1.0  0.94330  0.82490  0.78300  1.0000 -0.0696470241
C   C152      1.0  0.05670  0.32490  0.71700  1.0000 -0.0696470241
C   C153      1.0  0.55670  0.17510  0.28300  1.0000 -0.0696470241
C   C154      1.0  0.78300  0.94330  0.82490  1.0000 -0.0696470241
C   C155      1.0  0.71700  0.05670  0.32490  1.0000 -0.0696470241
C   C156      1.0  0.28300  0.55670  0.17510  1.0000 -0.0696470241
C   C157      1.0  0.70770  0.20390  0.60350  1.0000 0.6032731315
C   C158      1.0  0.60350  0.70770  0.20390  1.0000 0.6032731315
C   C159      1.0  0.20390  0.60350  0.70770  1.0000 0.6032731315
C   C160      1.0  0.79230  0.79610  0.10350  1.0000 0.6032731315
C   C161      1.0  0.29230  0.70390  0.89650  1.0000 0.6032731315
C   C162      1.0  0.20770  0.29610  0.39650  1.0000 0.6032731315
C   C163      1.0  0.10350  0.79230  0.79610  1.0000 0.6032731315
C   C164      1.0  0.89650  0.29230  0.70390  1.0000 0.6032731315
C   C165      1.0  0.39650  0.20770  0.29610  1.0000 0.6032731315
C   C166      1.0  0.79610  0.10350  0.79230  1.0000 0.6032731315
C   C167      1.0  0.70390  0.89650  0.29230  1.0000 0.6032731315
C   C168      1.0  0.29610  0.39650  0.20770  1.0000 0.6032731315
C   C169      1.0  0.34520  0.43620  0.34860  1.0000 -0.1315367054
C   C170      1.0  0.34860  0.34520  0.43620  1.0000 -0.1315367054
C   C171      1.0  0.43620  0.34860  0.34520  1.0000 -0.1315367054
C   C172      1.0  0.15480  0.56380  0.84860  1.0000 -0.1315367054
C   C173      1.0  0.65480  0.93620  0.15140  1.0000 -0.1315367054
C   C174      1.0  0.84520  0.06380  0.65140  1.0000 -0.1315367054
C   C175      1.0  0.84860  0.15480  0.56380  1.0000 -0.1315367054
C   C176      1.0  0.15140  0.65480  0.93620  1.0000 -0.1315367054
C   C177      1.0  0.65140  0.84520  0.06380  1.0000 -0.1315367054
C   C178      1.0  0.56380  0.84860  0.15480  1.0000 -0.1315367054
C   C179      1.0  0.93620  0.15140  0.65480  1.0000 -0.1315367054
C   C180      1.0  0.06380  0.65140  0.84520  1.0000 -0.1315367054
C   C181      1.0  0.38840  0.47640  0.34010  1.0000 -0.0910230629
C   C182      1.0  0.34010  0.38840  0.47640  1.0000 -0.0910230629
C   C183      1.0  0.47640  0.34010  0.38840  1.0000 -0.0910230629
C   C184      1.0  0.11160  0.52360  0.84010  1.0000 -0.0910230629
C   C185      1.0  0.61160  0.97640  0.15990  1.0000 -0.0910230629
C   C186      1.0  0.88840  0.02360  0.65990  1.0000 -0.0910230629
C   C187      1.0  0.84010  0.11160  0.52360  1.0000 -0.0910230629
C   C188      1.0  0.15990  0.61160  0.97640  1.0000 -0.0910230629
C   C189      1.0  0.65990  0.88840  0.02360  1.0000 -0.0910230629
C   C190      1.0  0.52360  0.84010  0.11160  1.0000 -0.0910230629
C   C191      1.0  0.97640  0.15990  0.61160  1.0000 -0.0910230629
C   C192      1.0  0.02360  0.65990  0.88840  1.0000 -0.0910230629
C   C193      1.0  0.37300  0.53600  0.33220  1.0000 -0.0979165365
C   C194      1.0  0.33220  0.37300  0.53600  1.0000 -0.0979165365
C   C195      1.0  0.53600  0.33220  0.37300  1.0000 -0.0979165365
C   C196      1.0  0.12700  0.46400  0.83220  1.0000 -0.0979165365
C   C197      1.0  0.62700  0.03600  0.16780  1.0000 -0.0979165365
C   C198      1.0  0.87300  0.96400  0.66780  1.0000 -0.0979165365
C   C199      1.0  0.83220  0.12700  0.46400  1.0000 -0.0979165365
C   C200      1.0  0.16780  0.62700  0.03600  1.0000 -0.0979165365
C   C201      1.0  0.66780  0.87300  0.96400  1.0000 -0.0979165365
C   C202      1.0  0.46400  0.83220  0.12700  1.0000 -0.0979165365
C   C203      1.0  0.03600  0.16780  0.62700  1.0000 -0.0979165365
C   C204      1.0  0.96400  0.66780  0.87300  1.0000 -0.0979165365
C   C205      1.0  0.31700  0.55360  0.33380  1.0000 -0.0059404679
C   C206      1.0  0.33380  0.31700  0.55360  1.0000 -0.0059404679
C   C207      1.0  0.55360  0.33380  0.31700  1.0000 -0.0059404679
C   C208      1.0  0.18300  0.44640  0.83380  1.0000 -0.0059404679
C   C209      1.0  0.68300  0.05360  0.16620  1.0000 -0.0059404679
C   C210      1.0  0.81700  0.94640  0.66620  1.0000 -0.0059404679
C   C211      1.0  0.83380  0.18300  0.44640  1.0000 -0.0059404679
C   C212      1.0  0.16620  0.68300  0.05360  1.0000 -0.0059404679
C   C213      1.0  0.66620  0.81700  0.94640  1.0000 -0.0059404679
C   C214      1.0  0.44640  0.83380  0.18300  1.0000 -0.0059404679
C   C215      1.0  0.05360  0.16620  0.68300  1.0000 -0.0059404679
C   C216      1.0  0.94640  0.66620  0.81700  1.0000 -0.0059404679
C   C217      1.0  0.27400  0.51270  0.34490  1.0000 -0.0910230629
C   C218      1.0  0.34490  0.27400  0.51270  1.0000 -0.0910230629
C   C219      1.0  0.51270  0.34490  0.27400  1.0000 -0.0910230629
C   C220      1.0  0.22600  0.48730  0.84490  1.0000 -0.0910230629
C   C221      1.0  0.72600  0.01270  0.15510  1.0000 -0.0910230629
C   C222      1.0  0.77400  0.98730  0.65510  1.0000 -0.0910230629
C   C223      1.0  0.84490  0.22600  0.48730  1.0000 -0.0910230629
C   C224      1.0  0.15510  0.72600  0.01270  1.0000 -0.0910230629
C   C225      1.0  0.65510  0.77400  0.98730  1.0000 -0.0910230629
C   C226      1.0  0.48730  0.84490  0.22600  1.0000 -0.0910230629
C   C227      1.0  0.01270  0.15510  0.72600  1.0000 -0.0910230629
C   C228      1.0  0.98730  0.65510  0.77400  1.0000 -0.0910230629
C   C229      1.0  0.28840  0.45380  0.35090  1.0000 -0.0826344583
C   C230      1.0  0.35090  0.28840  0.45380  1.0000 -0.0826344583
C   C231      1.0  0.45380  0.35090  0.28840  1.0000 -0.0826344583
C   C232      1.0  0.21160  0.54620  0.85090  1.0000 -0.0826344583
C   C233      1.0  0.71160  0.95380  0.14910  1.0000 -0.0826344583
C   C234      1.0  0.78840  0.04620  0.64910  1.0000 -0.0826344583
C   C235      1.0  0.85090  0.21160  0.54620  1.0000 -0.0826344583
C   C236      1.0  0.14910  0.71160  0.95380  1.0000 -0.0826344583
C   C237      1.0  0.64910  0.78840  0.04620  1.0000 -0.0826344583
C   C238      1.0  0.54620  0.85090  0.21160  1.0000 -0.0826344583
C   C239      1.0  0.95380  0.14910  0.71160  1.0000 -0.0826344583
C   C240      1.0  0.04620  0.64910  0.78840  1.0000 -0.0826344583
C   C241      1.0  0.30230  0.61720  0.32410  1.0000 0.5584659557
C   C242      1.0  0.32410  0.30230  0.61720  1.0000 0.5584659557
C   C243      1.0  0.61720  0.32410  0.30230  1.0000 0.5584659557
C   C244      1.0  0.19770  0.38280  0.82410  1.0000 0.5584659557
C   C245      1.0  0.69770  0.11720  0.17590  1.0000 0.5584659557
C   C246      1.0  0.80230  0.88280  0.67590  1.0000 0.5584659557
C   C247      1.0  0.82410  0.19770  0.38280  1.0000 0.5584659557
C   C248      1.0  0.17590  0.69770  0.11720  1.0000 0.5584659557
C   C249      1.0  0.67590  0.80230  0.88280  1.0000 0.5584659557
C   C250      1.0  0.38280  0.82410  0.19770  1.0000 0.5584659557
C   C251      1.0  0.11720  0.17590  0.69770  1.0000 0.5584659557
C   C252      1.0  0.88280  0.67590  0.80230  1.0000 0.5584659557
C   C253      1.0  0.33750  0.83790  0.57200  1.0000 -0.1315367054
C   C254      1.0  0.57200  0.33750  0.83790  1.0000 -0.1315367054
C   C255      1.0  0.83790  0.57200  0.33750  1.0000 -0.1315367054
C   C256      1.0  0.16250  0.16210  0.07200  1.0000 -0.1315367054
C   C257      1.0  0.66250  0.33790  0.92800  1.0000 -0.1315367054
C   C258      1.0  0.83750  0.66210  0.42800  1.0000 -0.1315367054
C   C259      1.0  0.07200  0.16250  0.16210  1.0000 -0.1315367054
C   C260      1.0  0.92800  0.66250  0.33790  1.0000 -0.1315367054
C   C261      1.0  0.42800  0.83750  0.66210  1.0000 -0.1315367054
C   C262      1.0  0.16210  0.07200  0.16250  1.0000 -0.1315367054
C   C263      1.0  0.33790  0.92800  0.66250  1.0000 -0.1315367054
C   C264      1.0  0.66210  0.42800  0.83750  1.0000 -0.1315367054
C   C265      1.0  0.33780  0.88160  0.53000  1.0000 -0.0979165365
C   C266      1.0  0.53000  0.33780  0.88160  1.0000 -0.0979165365
C   C267      1.0  0.88160  0.53000  0.33780  1.0000 -0.0979165365
C   C268      1.0  0.16220  0.11840  0.03000  1.0000 -0.0979165365
C   C269      1.0  0.66220  0.38160  0.97000  1.0000 -0.0979165365
C   C270      1.0  0.83780  0.61840  0.47000  1.0000 -0.0979165365
C   C271      1.0  0.03000  0.16220  0.11840  1.0000 -0.0979165365
C   C272      1.0  0.97000  0.66220  0.38160  1.0000 -0.0979165365
C   C273      1.0  0.47000  0.83780  0.61840  1.0000 -0.0979165365
C   C274      1.0  0.11840  0.03000  0.16220  1.0000 -0.0979165365
C   C275      1.0  0.38160  0.97000  0.66220  1.0000 -0.0979165365
C   C276      1.0  0.61840  0.47000  0.83780  1.0000 -0.0979165365
C   C277      1.0  0.32770  0.86660  0.47220  1.0000 -0.0979165365
C   C278      1.0  0.47220  0.32770  0.86660  1.0000 -0.0979165365
C   C279      1.0  0.86660  0.47220  0.32770  1.0000 -0.0979165365
C   C280      1.0  0.17230  0.13340  0.97220  1.0000 -0.0979165365
C   C281      1.0  0.67230  0.36660  0.02780  1.0000 -0.0979165365
C   C282      1.0  0.82770  0.63340  0.52780  1.0000 -0.0979165365
C   C283      1.0  0.97220  0.17230  0.13340  1.0000 -0.0979165365
C   C284      1.0  0.02780  0.67230  0.36660  1.0000 -0.0979165365
C   C285      1.0  0.52780  0.82770  0.63340  1.0000 -0.0979165365
C   C286      1.0  0.13340  0.97220  0.17230  1.0000 -0.0979165365
C   C287      1.0  0.36660  0.02780  0.67230  1.0000 -0.0979165365
C   C288      1.0  0.63340  0.52780  0.82770  1.0000 -0.0979165365
C   C289      1.0  0.31090  0.81190  0.45730  1.0000 -0.0175679212
C   C290      1.0  0.45730  0.31090  0.81190  1.0000 -0.0175679212
C   C291      1.0  0.81190  0.45730  0.31090  1.0000 -0.0175679212
C   C292      1.0  0.18910  0.18810  0.95730  1.0000 -0.0175679212
C   C293      1.0  0.68910  0.31190  0.04270  1.0000 -0.0175679212
C   C294      1.0  0.81090  0.68810  0.54270  1.0000 -0.0175679212
C   C295      1.0  0.95730  0.18910  0.18810  1.0000 -0.0175679212
C   C296      1.0  0.04270  0.68910  0.31190  1.0000 -0.0175679212
C   C297      1.0  0.54270  0.81090  0.68810  1.0000 -0.0175679212
C   C298      1.0  0.18810  0.95730  0.18910  1.0000 -0.0175679212
C   C299      1.0  0.31190  0.04270  0.68910  1.0000 -0.0175679212
C   C300      1.0  0.68810  0.54270  0.81090  1.0000 -0.0175679212
C   C301      1.0  0.30980  0.77090  0.50070  1.0000 -0.0910230629
C   C302      1.0  0.50070  0.30980  0.77090  1.0000 -0.0910230629
C   C303      1.0  0.77090  0.50070  0.30980  1.0000 -0.0910230629
C   C304      1.0  0.19020  0.22910  0.00070  1.0000 -0.0910230629
C   C305      1.0  0.69020  0.27090  0.99930  1.0000 -0.0910230629
C   C306      1.0  0.80980  0.72910  0.49930  1.0000 -0.0910230629
C   C307      1.0  0.00070  0.19020  0.22910  1.0000 -0.0910230629
C   C308      1.0  0.99930  0.69020  0.27090  1.0000 -0.0910230629
C   C309      1.0  0.49930  0.80980  0.72910  1.0000 -0.0910230629
C   C310      1.0  0.22910  0.00070  0.19020  1.0000 -0.0910230629
C   C311      1.0  0.27090  0.99930  0.69020  1.0000 -0.0910230629
C   C312      1.0  0.72910  0.49930  0.80980  1.0000 -0.0910230629
C   C313      1.0  0.32490  0.78300  0.55670  1.0000 -0.0696470241
C   C314      1.0  0.55670  0.32490  0.78300  1.0000 -0.0696470241
C   C315      1.0  0.78300  0.55670  0.32490  1.0000 -0.0696470241
C   C316      1.0  0.17510  0.21700  0.05670  1.0000 -0.0696470241
C   C317      1.0  0.67510  0.28300  0.94330  1.0000 -0.0696470241
C   C318      1.0  0.82490  0.71700  0.44330  1.0000 -0.0696470241
C   C319      1.0  0.05670  0.17510  0.21700  1.0000 -0.0696470241
C   C320      1.0  0.94330  0.67510  0.28300  1.0000 -0.0696470241
C   C321      1.0  0.44330  0.82490  0.71700  1.0000 -0.0696470241
C   C322      1.0  0.21700  0.05670  0.17510  1.0000 -0.0696470241
C   C323      1.0  0.28300  0.94330  0.67510  1.0000 -0.0696470241
C   C324      1.0  0.71700  0.44330  0.82490  1.0000 -0.0696470241
C   C325      1.0  0.29230  0.79610  0.39650  1.0000 0.6032731315
C   C326      1.0  0.39650  0.29230  0.79610  1.0000 0.6032731315
C   C327      1.0  0.79610  0.39650  0.29230  1.0000 0.6032731315
C   C328      1.0  0.20770  0.20390  0.89650  1.0000 0.6032731315
C   C329      1.0  0.70770  0.29610  0.10350  1.0000 0.6032731315
C   C330      1.0  0.79230  0.70390  0.60350  1.0000 0.6032731315
C   C331      1.0  0.89650  0.20770  0.20390  1.0000 0.6032731315
C   C332      1.0  0.10350  0.70770  0.29610  1.0000 0.6032731315
C   C333      1.0  0.60350  0.79230  0.70390  1.0000 0.6032731315
C   C334      1.0  0.20390  0.89650  0.20770  1.0000 0.6032731315
C   C335      1.0  0.29610  0.10350  0.70770  1.0000 0.6032731315
C   C336      1.0  0.70390  0.60350  0.79230  1.0000 0.6032731315
O   O1        1.0  0.67810  0.67810  0.67810  1.0000 -0.6257180888
O   O2        1.0  0.82190  0.32190  0.17810  1.0000 -0.6257180888
O   O3        1.0  0.32190  0.17810  0.82190  1.0000 -0.6257180888
O   O4        1.0  0.17810  0.82190  0.32190  1.0000 -0.6257180888
O   O5        1.0  0.68660  0.18660  0.31340  1.0000 -0.5696465019
O   O6        1.0  0.31340  0.68660  0.18660  1.0000 -0.5696465019
O   O7        1.0  0.18660  0.31340  0.68660  1.0000 -0.5696465019
O   O8        1.0  0.81340  0.81340  0.81340  1.0000 -0.5696465019
O   O9        1.0  0.75190  0.36960  0.67410  1.0000 -0.5413493111
O   O10       1.0  0.67410  0.75190  0.36960  1.0000 -0.5413493111
O   O11       1.0  0.36960  0.67410  0.75190  1.0000 -0.5413493111
O   O12       1.0  0.74810  0.63040  0.17410  1.0000 -0.5413493111
O   O13       1.0  0.24810  0.86960  0.82590  1.0000 -0.5413493111
O   O14       1.0  0.25190  0.13040  0.32590  1.0000 -0.5413493111
O   O15       1.0  0.17410  0.74810  0.63040  1.0000 -0.5413493111
O   O16       1.0  0.82590  0.24810  0.86960  1.0000 -0.5413493111
O   O17       1.0  0.32590  0.25190  0.13040  1.0000 -0.5413493111
O   O18       1.0  0.63040  0.17410  0.74810  1.0000 -0.5413493111
O   O19       1.0  0.86960  0.82590  0.24810  1.0000 -0.5413493111
O   O20       1.0  0.13040  0.32590  0.25190  1.0000 -0.5413493111
O   O21       1.0  0.66020  0.34660  0.67890  1.0000 -0.496900918
O   O22       1.0  0.67890  0.66020  0.34660  1.0000 -0.496900918
O   O23       1.0  0.34660  0.67890  0.66020  1.0000 -0.496900918
O   O24       1.0  0.83980  0.65340  0.17890  1.0000 -0.496900918
O   O25       1.0  0.33980  0.84660  0.82110  1.0000 -0.496900918
O   O26       1.0  0.16020  0.15340  0.32110  1.0000 -0.496900918
O   O27       1.0  0.17890  0.83980  0.65340  1.0000 -0.496900918
O   O28       1.0  0.82110  0.33980  0.84660  1.0000 -0.496900918
O   O29       1.0  0.32110  0.16020  0.15340  1.0000 -0.496900918
O   O30       1.0  0.65340  0.17890  0.83980  1.0000 -0.496900918
O   O31       1.0  0.84660  0.82110  0.33980  1.0000 -0.496900918
O   O32       1.0  0.15340  0.32110  0.16020  1.0000 -0.496900918
O   O33       1.0  0.73440  0.25290  0.60890  1.0000 -0.5475468654
O   O34       1.0  0.60890  0.73440  0.25290  1.0000 -0.5475468654
O   O35       1.0  0.25290  0.60890  0.73440  1.0000 -0.5475468654
O   O36       1.0  0.76560  0.74710  0.10890  1.0000 -0.5475468654
O   O37       1.0  0.26560  0.75290  0.89110  1.0000 -0.5475468654
O   O38       1.0  0.23440  0.24710  0.39110  1.0000 -0.5475468654
O   O39       1.0  0.10890  0.76560  0.74710  1.0000 -0.5475468654
O   O40       1.0  0.89110  0.26560  0.75290  1.0000 -0.5475468654
O   O41       1.0  0.39110  0.23440  0.24710  1.0000 -0.5475468654
O   O42       1.0  0.74710  0.10890  0.76560  1.0000 -0.5475468654
O   O43       1.0  0.75290  0.89110  0.26560  1.0000 -0.5475468654
O   O44       1.0  0.24710  0.39110  0.23440  1.0000 -0.5475468654
O   O45       1.0  0.69790  0.16590  0.64310  1.0000 -0.5413493111
O   O46       1.0  0.64310  0.69790  0.16590  1.0000 -0.5413493111
O   O47       1.0  0.16590  0.64310  0.69790  1.0000 -0.5413493111
O   O48       1.0  0.80210  0.83410  0.14310  1.0000 -0.5413493111
O   O49       1.0  0.30210  0.66590  0.85690  1.0000 -0.5413493111
O   O50       1.0  0.19790  0.33410  0.35690  1.0000 -0.5413493111
O   O51       1.0  0.14310  0.80210  0.83410  1.0000 -0.5413493111
O   O52       1.0  0.85690  0.30210  0.66590  1.0000 -0.5413493111
O   O53       1.0  0.35690  0.19790  0.33410  1.0000 -0.5413493111
O   O54       1.0  0.83410  0.14310  0.80210  1.0000 -0.5413493111
O   O55       1.0  0.66590  0.85690  0.30210  1.0000 -0.5413493111
O   O56       1.0  0.33410  0.35690  0.19790  1.0000 -0.5413493111
O   O57       1.0  0.75140  0.24860  0.74860  1.0000 -0.8717669267
O   O58       1.0  0.74860  0.75140  0.24860  1.0000 -0.8717669267
O   O59       1.0  0.24860  0.74860  0.75140  1.0000 -0.8717669267
O   O60       1.0  0.25140  0.25140  0.25140  1.0000 -0.8717669267
O   O61       1.0  0.32190  0.32190  0.32190  1.0000 -0.6257180888
O   O62       1.0  0.17810  0.67810  0.82190  1.0000 -0.6257180888
O   O63       1.0  0.67810  0.82190  0.17810  1.0000 -0.6257180888
O   O64       1.0  0.82190  0.17810  0.67810  1.0000 -0.6257180888
O   O65       1.0  0.31340  0.81340  0.68660  1.0000 -0.5696465019
O   O66       1.0  0.68660  0.31340  0.81340  1.0000 -0.5696465019
O   O67       1.0  0.81340  0.68660  0.31340  1.0000 -0.5696465019
O   O68       1.0  0.18660  0.18660  0.18660  1.0000 -0.5696465019
O   O69       1.0  0.24810  0.63040  0.32590  1.0000 -0.5413493111
O   O70       1.0  0.32590  0.24810  0.63040  1.0000 -0.5413493111
O   O71       1.0  0.63040  0.32590  0.24810  1.0000 -0.5413493111
O   O72       1.0  0.25190  0.36960  0.82590  1.0000 -0.5413493111
O   O73       1.0  0.75190  0.13040  0.17410  1.0000 -0.5413493111
O   O74       1.0  0.74810  0.86960  0.67410  1.0000 -0.5413493111
O   O75       1.0  0.82590  0.25190  0.36960  1.0000 -0.5413493111
O   O76       1.0  0.17410  0.75190  0.13040  1.0000 -0.5413493111
O   O77       1.0  0.67410  0.74810  0.86960  1.0000 -0.5413493111
O   O78       1.0  0.36960  0.82590  0.25190  1.0000 -0.5413493111
O   O79       1.0  0.13040  0.17410  0.75190  1.0000 -0.5413493111
O   O80       1.0  0.86960  0.67410  0.74810  1.0000 -0.5413493111
O   O81       1.0  0.33980  0.65340  0.32110  1.0000 -0.496900918
O   O82       1.0  0.32110  0.33980  0.65340  1.0000 -0.496900918
O   O83       1.0  0.65340  0.32110  0.33980  1.0000 -0.496900918
O   O84       1.0  0.16020  0.34660  0.82110  1.0000 -0.496900918
O   O85       1.0  0.66020  0.15340  0.17890  1.0000 -0.496900918
O   O86       1.0  0.83980  0.84660  0.67890  1.0000 -0.496900918
O   O87       1.0  0.82110  0.16020  0.34660  1.0000 -0.496900918
O   O88       1.0  0.17890  0.66020  0.15340  1.0000 -0.496900918
O   O89       1.0  0.67890  0.83980  0.84660  1.0000 -0.496900918
O   O90       1.0  0.34660  0.82110  0.16020  1.0000 -0.496900918
O   O91       1.0  0.15340  0.17890  0.66020  1.0000 -0.496900918
O   O92       1.0  0.84660  0.67890  0.83980  1.0000 -0.496900918
O   O93       1.0  0.26560  0.74710  0.39110  1.0000 -0.5475468654
O   O94       1.0  0.39110  0.26560  0.74710  1.0000 -0.5475468654
O   O95       1.0  0.74710  0.39110  0.26560  1.0000 -0.5475468654
O   O96       1.0  0.23440  0.25290  0.89110  1.0000 -0.5475468654
O   O97       1.0  0.73440  0.24710  0.10890  1.0000 -0.5475468654
O   O98       1.0  0.76560  0.75290  0.60890  1.0000 -0.5475468654
O   O99       1.0  0.89110  0.23440  0.25290  1.0000 -0.5475468654
O   O100      1.0  0.10890  0.73440  0.24710  1.0000 -0.5475468654
O   O101      1.0  0.60890  0.76560  0.75290  1.0000 -0.5475468654
O   O102      1.0  0.25290  0.89110  0.23440  1.0000 -0.5475468654
O   O103      1.0  0.24710  0.10890  0.73440  1.0000 -0.5475468654
O   O104      1.0  0.75290  0.60890  0.76560  1.0000 -0.5475468654
O   O105      1.0  0.30210  0.83410  0.35690  1.0000 -0.5413493111
O   O106      1.0  0.35690  0.30210  0.83410  1.0000 -0.5413493111
O   O107      1.0  0.83410  0.35690  0.30210  1.0000 -0.5413493111
O   O108      1.0  0.19790  0.16590  0.85690  1.0000 -0.5413493111
O   O109      1.0  0.69790  0.33410  0.14310  1.0000 -0.5413493111
O   O110      1.0  0.80210  0.66590  0.64310  1.0000 -0.5413493111
O   O111      1.0  0.85690  0.19790  0.16590  1.0000 -0.5413493111
O   O112      1.0  0.14310  0.69790  0.33410  1.0000 -0.5413493111
O   O113      1.0  0.64310  0.80210  0.66590  1.0000 -0.5413493111
O   O114      1.0  0.16590  0.85690  0.19790  1.0000 -0.5413493111
O   O115      1.0  0.33410  0.14310  0.69790  1.0000 -0.5413493111
O   O116      1.0  0.66590  0.64310  0.80210  1.0000 -0.5413493111
O   O117      1.0  0.24860  0.75140  0.25140  1.0000 -0.8717669267
O   O118      1.0  0.25140  0.24860  0.75140  1.0000 -0.8717669267
O   O119      1.0  0.75140  0.25140  0.24860  1.0000 -0.8717669267
O   O120      1.0  0.74860  0.74860  0.74860  1.0000 -0.8717669267
