# DDEC6 charges by PACMAN v1.1 (https://github.com/mtap-research/PACMAN-charge/)
data_2008[Cd][tfz]3[ASR]2
_chemical_formula_sum              "Cd3 H28 C30 N2 O12"
_cell_length_a       8.9436
_cell_length_b       9.4538
_cell_length_c       19.005
_cell_angle_alpha    95.166
_cell_angle_beta     93.05
_cell_angle_gamma    117.534

_symmetry_space_group_name_H-M    "P 1"
_symmetry_Int_Tables_number       1

loop_
  _symmetry_equiv_pos_as_xyz
  'x, y, z'

loop_
  _atom_site_type_symbol
  _atom_site_label
  _atom_site_symmetry_multiplicity
  _atom_site_fract_x
  _atom_site_fract_y
  _atom_site_fract_z
  _atom_site_occupancy
  _atom_site_charge
Cd  Cd1       1.0  0.01638  0.10181  0.17922  1.0000 0.8890442039
Cd  Cd2       1.0  0.98362  0.89819  0.82078  1.0000 0.8890442039
Cd  Cd3       1.0  0.00000  0.00000  0.00000  1.0000 1.0442656661
H   H1        1.0  0.21300  0.80940  0.03780  1.0000 0.1099678735
H   H2        1.0  0.78700  0.19060  0.96220  1.0000 0.1099678735
H   H3        1.0  0.03870  0.56830  0.08120  1.0000 0.1045056698
H   H4        1.0  0.96130  0.43170  0.91880  1.0000 0.1045056698
H   H5        1.0  0.16910  0.61480  0.14870  1.0000 0.1045056698
H   H6        1.0  0.83090  0.38520  0.85130  1.0000 0.1045056698
H   H7        1.0  0.23580  0.54960  0.00770  1.0000 0.1045056698
H   H8        1.0  0.76420  0.45040  0.99230  1.0000 0.1045056698
H   H9        1.0  0.45430  0.62230  0.13500  1.0000 0.1099678735
H   H10       1.0  0.54570  0.37770  0.86500  1.0000 0.1099678735
H   H11       1.0  0.49680  0.58040  0.05940  1.0000 0.1099678735
H   H12       1.0  0.50320  0.41960  0.94060  1.0000 0.1099678735
H   H13       1.0  0.50900  0.81550  0.02340  1.0000 0.1099678735
H   H14       1.0  0.49100  0.18450  0.97660  1.0000 0.1099678735
H   H15       1.0  0.44210  0.89060  0.16300  1.0000 0.1099678735
H   H16       1.0  0.55790  0.10940  0.83700  1.0000 0.1045056698
H   H17       1.0  0.47090  0.99920  0.10220  1.0000 0.1099678735
H   H18       1.0  0.52910  0.00080  0.89780  1.0000 0.1099678735
H   H19       1.0  0.20240  0.42230  0.27850  1.0000 0.1227767403
H   H20       1.0  0.79760  0.57770  0.72150  1.0000 0.1227767403
H   H21       1.0  0.37010  0.54900  0.38240  1.0000 0.1301288689
H   H22       1.0  0.62990  0.45100  0.61760  1.0000 0.1301288689
H   H23       1.0  0.49390  0.35720  0.51260  1.0000 0.1099678735
H   H24       1.0  0.50610  0.64280  0.48740  1.0000 0.1099678735
H   H25       1.0  0.33510  0.12950  0.42210  1.0000 0.1301288689
H   H26       1.0  0.66490  0.87050  0.57790  1.0000 0.1301288689
H   H27       1.0  0.16990  0.01410  0.31750  1.0000 0.1227767403
H   H28       1.0  0.83010  0.98590  0.68250  1.0000 0.1227767403
C   C1        1.0  0.15400  0.88580  0.13240  1.0000 0.5908929492
C   C2        1.0  0.84600  0.11420  0.86760  1.0000 0.5908929492
C   C3        1.0  0.23220  0.80080  0.08810  1.0000 -0.1093043787
C   C4        1.0  0.76780  0.19920  0.91190  1.0000 -0.1093043787
C   C5        1.0  0.15840  0.62360  0.09840  1.0000 -0.2008860921
C   C6        1.0  0.84160  0.37640  0.90160  1.0000 -0.2008860921
C   C7        1.0  0.24950  0.54210  0.05850  1.0000 -0.1093043787
C   C8        1.0  0.75050  0.45790  0.94150  1.0000 -0.1093043787
C   C9        1.0  0.43920  0.63090  0.08490  1.0000 -0.2008860921
C   C10       1.0  0.56080  0.36910  0.91510  1.0000 -0.2008860921
C   C11       1.0  0.51840  0.80770  0.07440  1.0000 -0.0969774043
C   C12       1.0  0.48160  0.19230  0.92560  1.0000 -0.0969774043
C   C13       1.0  0.42400  0.88870  0.11210  1.0000 -0.2008860921
C   C14       1.0  0.57600  0.11130  0.88790  1.0000 -0.2008860921
C   C15       1.0  0.17480  0.36570  0.06880  1.0000 0.6049590493
C   C16       1.0  0.82520  0.63430  0.93120  1.0000 0.6049590493
C   C17       1.0  0.70240  0.90150  0.10390  1.0000 0.5908929492
C   C18       1.0  0.29760  0.09850  0.89610  1.0000 0.5908929492
C   C19       1.0  0.23020  0.36230  0.30780  1.0000 0.0646988834
C   C20       1.0  0.76980  0.63770  0.69220  1.0000 0.0655516247
C   C21       1.0  0.32860  0.43870  0.37070  1.0000 -0.1946571683
C   C22       1.0  0.67140  0.56130  0.62930  1.0000 -0.1946571683
C   C23       1.0  0.36620  0.35240  0.41680  1.0000 0.1373157735
C   C24       1.0  0.63380  0.64760  0.58320  1.0000 0.1373157735
C   C25       1.0  0.46970  0.42390  0.48630  1.0000 -0.146583355
C   C26       1.0  0.53030  0.57610  0.51370  1.0000 -0.146583355
C   C27       1.0  0.30810  0.19190  0.39410  1.0000 -0.2008860921
C   C28       1.0  0.69190  0.80810  0.60590  1.0000 -0.2008860921
C   C29       1.0  0.21100  0.12390  0.33050  1.0000 0.0843694145
C   C30       1.0  0.78900  0.87610  0.66950  1.0000 0.0853590007
N   N1        1.0  0.17180  0.20490  0.28620  1.0000 -0.2430886542
N   N2        1.0  0.82820  0.79510  0.71380  1.0000 -0.2430886542
O   O1        1.0  0.13830  0.99760  0.10409  1.0000 -0.5967928981
O   O2        1.0  0.86170  0.00240  0.89591  1.0000 -0.5967928981
O   O3        1.0  0.11580  0.85640  0.19210  1.0000 -0.5358323072
O   O4        1.0  0.88420  0.14360  0.80790  1.0000 -0.5358323072
O   O5        1.0  0.75010  0.87710  0.16293  1.0000 -0.5256675099
O   O6        1.0  0.24990  0.12290  0.83707  1.0000 -0.5256675099
O   O7        1.0  0.80210  0.01350  0.07139  1.0000 -0.5859251832
O   O8        1.0  0.19790  0.98650  0.92861  1.0000 -0.5859251832
O   O9        1.0  0.15640  0.33290  0.13065  1.0000 -0.5619609271
O   O10       1.0  0.84360  0.66710  0.86935  1.0000 -0.5619609271
O   O11       1.0  0.13780  0.26740  0.01373  1.0000 -0.5619609271
O   O12       1.0  0.86220  0.73260  0.98627  1.0000 -0.5619609271
