# DDEC6 charges by PACMAN v1.1 (https://github.com/mtap-research/PACMAN-charge/)
data_2008[Ni][nan]3[ASR]5
_chemical_formula_sum              "Ni4 H24 C36 N12 O12"
_cell_length_a       14.0605
_cell_length_b       14.0605
_cell_length_c       7.4933
_cell_angle_alpha    78.6593
_cell_angle_beta     101.341
_cell_angle_gamma    82.2864

_symmetry_space_group_name_H-M    "P 1"
_symmetry_Int_Tables_number       1

loop_
  _symmetry_equiv_pos_as_xyz
  'x, y, z'

loop_
  _atom_site_type_symbol
  _atom_site_label
  _atom_site_symmetry_multiplicity
  _atom_site_fract_x
  _atom_site_fract_y
  _atom_site_fract_z
  _atom_site_occupancy
  _atom_site_charge
Ni  Ni1       1.0  0.58877  0.58877  0.75000  1.0000 0.6979235475
Ni  Ni2       1.0  0.41123  0.41123  0.25000  1.0000 0.6931538647
Ni  Ni3       1.0  0.00000  0.00000  0.50000  1.0000 0.7317112153
Ni  Ni4       1.0  0.00000  0.00000  0.00000  1.0000 0.7317112153
H   H1        1.0  0.36830  0.86470  0.63100  1.0000 0.1377786165
H   H2        1.0  0.86470  0.36830  0.86900  1.0000 0.1377786165
H   H3        1.0  0.63170  0.13530  0.36900  1.0000 0.1377786165
H   H4        1.0  0.13530  0.63170  0.13100  1.0000 0.1377786165
H   H5        1.0  0.22860  0.98060  0.58230  1.0000 0.1043541124
H   H6        1.0  0.98060  0.22860  0.91770  1.0000 0.1043541124
H   H7        1.0  0.77140  0.01940  0.41770  1.0000 0.1043541124
H   H8        1.0  0.01940  0.77140  0.08230  1.0000 0.1043541124
H   H9        1.0  0.19710  0.66050  0.59930  1.0000 0.1377786165
H   H10       1.0  0.66050  0.19710  0.90070  1.0000 0.1377786165
H   H11       1.0  0.80290  0.33950  0.40070  1.0000 0.1377786165
H   H12       1.0  0.33950  0.80290  0.09930  1.0000 0.1377786165
H   H13       1.0  0.06210  0.78290  0.54520  1.0000 0.1071565961
H   H14       1.0  0.78290  0.06210  0.95480  1.0000 0.1071565961
H   H15       1.0  0.93790  0.21710  0.45480  1.0000 0.1071565961
H   H16       1.0  0.21710  0.93790  0.04520  1.0000 0.1071565961
H   H17       1.0  0.61910  0.76310  0.88400  1.0000 0.1339598735
H   H18       1.0  0.76310  0.61910  0.61600  1.0000 0.1339598735
H   H19       1.0  0.38090  0.23690  0.11600  1.0000 0.1339598735
H   H20       1.0  0.23690  0.38090  0.38400  1.0000 0.1339598735
H   H21       1.0  0.72870  0.87710  0.89760  1.0000 0.1377786165
H   H22       1.0  0.87710  0.72870  0.60240  1.0000 0.1377786165
H   H23       1.0  0.27130  0.12290  0.10240  1.0000 0.1377786165
H   H24       1.0  0.12290  0.27130  0.39760  1.0000 0.1377786165
C   C1        1.0  0.30674  0.84602  0.61520  1.0000 -0.1520295879
C   C2        1.0  0.84602  0.30674  0.88480  1.0000 -0.1520295879
C   C3        1.0  0.69326  0.15398  0.38480  1.0000 -0.1520295879
C   C4        1.0  0.15398  0.69326  0.11520  1.0000 -0.1520295879
C   C5        1.0  0.29858  0.74808  0.62180  1.0000 0.0347619084
C   C6        1.0  0.74808  0.29858  0.87820  1.0000 0.0351016102
C   C7        1.0  0.70142  0.25192  0.37820  1.0000 0.0347619084
C   C8        1.0  0.25192  0.70142  0.12180  1.0000 0.0347619084
C   C9        1.0  0.22205  0.91541  0.58470  1.0000 0.0634093871
C   C10       1.0  0.91541  0.22205  0.91530  1.0000 0.0634093871
C   C11       1.0  0.77795  0.08459  0.41530  1.0000 0.0634093871
C   C12       1.0  0.08459  0.77795  0.08470  1.0000 0.0634093871
C   C13       1.0  0.38818  0.66892  0.65870  1.0000 0.5531611507
C   C14       1.0  0.66892  0.38818  0.84130  1.0000 0.5531611507
C   C15       1.0  0.61182  0.33108  0.34130  1.0000 0.5531611507
C   C16       1.0  0.33108  0.61182  0.15870  1.0000 0.5531611507
C   C17       1.0  0.20562  0.72532  0.59570  1.0000 -0.1520295879
C   C18       1.0  0.72532  0.20562  0.90430  1.0000 -0.1520295879
C   C19       1.0  0.79438  0.27468  0.40430  1.0000 -0.1520295879
C   C20       1.0  0.27468  0.79438  0.09570  1.0000 -0.1520295879
C   C21       1.0  0.12447  0.79961  0.56380  1.0000 0.078081692
C   C22       1.0  0.79961  0.12447  0.93620  1.0000 0.078081692
C   C23       1.0  0.87553  0.20039  0.43620  1.0000 0.078081692
C   C24       1.0  0.20039  0.87553  0.06380  1.0000 0.078081692
C   C25       1.0  0.88686  0.88686  0.75000  1.0000 0.5601948564
C   C26       1.0  0.11314  0.11314  0.25000  1.0000 0.5601948564
C   C27       1.0  0.81574  0.81574  0.75000  1.0000 0.0205720001
C   C28       1.0  0.18426  0.18426  0.25000  1.0000 0.0205720001
C   C29       1.0  0.67398  0.75998  0.83210  1.0000 0.078081692
C   C30       1.0  0.75998  0.67398  0.66790  1.0000 0.078081692
C   C31       1.0  0.32602  0.24002  0.16790  1.0000 0.0747131472
C   C32       1.0  0.24002  0.32602  0.33210  1.0000 0.078081692
C   C33       1.0  0.73786  0.82606  0.83680  1.0000 -0.1435275274
C   C34       1.0  0.82606  0.73786  0.66320  1.0000 -0.1435275274
C   C35       1.0  0.26214  0.17394  0.16320  1.0000 -0.1435275274
C   C36       1.0  0.17394  0.26214  0.33680  1.0000 -0.1435275274
N   N1        1.0  0.13145  0.89383  0.55870  1.0000 -0.2109000283
N   N2        1.0  0.89383  0.13145  0.94130  1.0000 -0.2109000283
N   N3        1.0  0.86855  0.10617  0.44130  1.0000 -0.2109000283
N   N4        1.0  0.10617  0.86855  0.05870  1.0000 -0.2109000283
N   N5        1.0  0.95355  0.95355  0.25000  1.0000 -0.5124712224
N   N6        1.0  0.04645  0.04645  0.75000  1.0000 -0.5124712224
N   N7        1.0  0.89766  0.89766  0.25000  1.0000 0.4185705548
N   N8        1.0  0.10234  0.10234  0.75000  1.0000 0.4185705548
N   N9        1.0  0.84370  0.84370  0.25000  1.0000 -0.3319368894
N   N10       1.0  0.15630  0.15630  0.75000  1.0000 -0.3319368894
N   N11       1.0  0.68418  0.68418  0.75000  1.0000 -0.1905128295
N   N12       1.0  0.31582  0.31582  0.25000  1.0000 -0.1905128295
O   O1        1.0  0.93573  0.89057  0.62640  1.0000 -0.5374994362
O   O2        1.0  0.89057  0.93573  0.87360  1.0000 -0.5374994362
O   O3        1.0  0.06427  0.10943  0.37360  1.0000 -0.5374994362
O   O4        1.0  0.10943  0.06427  0.12640  1.0000 -0.5374994362
O   O5        1.0  0.37653  0.58121  0.67070  1.0000 -0.5278926427
O   O6        1.0  0.58121  0.37653  0.82930  1.0000 -0.5278926427
O   O7        1.0  0.62347  0.41879  0.32930  1.0000 -0.5278926427
O   O8        1.0  0.41879  0.62347  0.17070  1.0000 -0.5278926427
O   O9        1.0  0.47075  0.69687  0.67610  1.0000 -0.5374994362
O   O10       1.0  0.69687  0.47075  0.82390  1.0000 -0.5374994362
O   O11       1.0  0.52925  0.30313  0.32390  1.0000 -0.5374994362
O   O12       1.0  0.30313  0.52925  0.17610  1.0000 -0.5374994362
