# DDEC6 charges by PACMAN v1.1 (https://github.com/mtap-research/PACMAN-charge/)
data_2008[In][med]3[ASR]1
_chemical_formula_sum              "In40 H80 C400 N160 O320"
_cell_length_a       33.2638
_cell_length_b       33.2638
_cell_length_c       33.2638
_cell_angle_alpha    127.216
_cell_angle_beta     127.216
_cell_angle_gamma    77.8979

_symmetry_space_group_name_H-M    "P 1"
_symmetry_Int_Tables_number       1

loop_
  _symmetry_equiv_pos_as_xyz
  'x, y, z'

loop_
  _atom_site_type_symbol
  _atom_site_label
  _atom_site_symmetry_multiplicity
  _atom_site_fract_x
  _atom_site_fract_y
  _atom_site_fract_z
  _atom_site_occupancy
  _atom_site_charge
In  In1       1.0  0.81924  0.53737  0.50271  1.0000 1.1535497656
In  In2       1.0  0.28737  0.28466  0.21813  1.0000 1.1535497656
In  In3       1.0  0.06653  0.06924  0.78187  1.0000 1.1535497656
In  In4       1.0  0.68347  0.96534  0.50271  1.0000 1.1535497656
In  In5       1.0  0.03466  0.31653  0.49729  1.0000 1.1535497656
In  In6       1.0  0.71534  0.71263  0.78187  1.0000 1.1535497656
In  In7       1.0  0.93076  0.93347  0.21813  1.0000 1.1535497656
In  In8       1.0  0.46263  0.18076  0.49729  1.0000 1.1535497656
In  In9       1.0  0.93076  0.71263  0.99729  1.0000 1.1535497656
In  In10      1.0  0.46263  0.96534  0.28187  1.0000 1.1535497656
In  In11      1.0  0.68347  0.18076  0.71813  1.0000 1.1535497656
In  In12      1.0  0.06653  0.28466  0.99729  1.0000 1.1535497656
In  In13      1.0  0.71534  0.93347  0.00271  1.0000 1.1535497656
In  In14      1.0  0.03466  0.53737  0.71813  1.0000 1.1535497656
In  In15      1.0  0.81924  0.31653  0.28187  1.0000 1.1535497656
In  In16      1.0  0.28737  0.06924  0.00271  1.0000 1.1535497656
In  In17      1.0  0.38485  0.52245  0.35642  1.0000 1.1603917864
In  In18      1.0  0.27245  0.41603  0.63760  1.0000 1.1603917864
In  In19      1.0  0.77843  0.63485  0.36240  1.0000 1.1603917864
In  In20      1.0  0.97157  0.83397  0.35642  1.0000 1.1603917864
In  In21      1.0  0.16603  0.02843  0.64358  1.0000 1.1603917864
In  In22      1.0  0.58397  0.72755  0.36240  1.0000 1.1603917864
In  In23      1.0  0.36515  0.22157  0.63760  1.0000 1.1603917864
In  In24      1.0  0.47755  0.61515  0.64358  1.0000 1.1603917864
In  In25      1.0  0.36515  0.72755  0.14358  1.0000 1.1603917864
In  In26      1.0  0.47755  0.83397  0.86240  1.0000 1.1603917864
In  In27      1.0  0.97157  0.61515  0.13760  1.0000 1.1603917864
In  In28      1.0  0.77843  0.41603  0.14358  1.0000 1.1603917864
In  In29      1.0  0.58397  0.22157  0.85642  1.0000 1.1603917864
In  In30      1.0  0.16603  0.52245  0.13760  1.0000 1.1603917864
In  In31      1.0  0.38485  0.02843  0.86240  1.0000 1.1603917864
In  In32      1.0  0.27245  0.63485  0.85642  1.0000 1.1603917864
In  In33      1.0  0.62024  0.62500  0.49524  1.0000 1.1535497656
In  In34      1.0  0.37500  0.37976  0.50476  1.0000 1.1535497656
In  In35      1.0  0.87500  0.87024  0.49524  1.0000 1.1535497656
In  In36      1.0  0.12976  0.12500  0.50476  1.0000 1.1535497656
In  In37      1.0  0.12976  0.62500  0.00476  1.0000 1.1603917864
In  In38      1.0  0.37500  0.87024  0.99524  1.0000 1.1535497656
In  In39      1.0  0.87500  0.37976  0.00476  1.0000 1.1603917864
In  In40      1.0  0.62024  0.12500  0.99524  1.0000 1.1535497656
H   H1        1.0  0.84450  0.61450  0.47600  1.0000 0.1392106605
H   H2        1.0  0.36450  0.38850  0.27000  1.0000 0.1392106605
H   H3        1.0  0.11850  0.09450  0.73000  1.0000 0.1392106605
H   H4        1.0  0.63150  0.86150  0.47600  1.0000 0.1392106605
H   H5        1.0  0.13850  0.36850  0.52400  1.0000 0.1392106605
H   H6        1.0  0.61150  0.63550  0.73000  1.0000 0.1392106605
H   H7        1.0  0.90550  0.88150  0.27000  1.0000 0.1392106605
H   H8        1.0  0.38550  0.15550  0.52400  1.0000 0.1392106605
H   H9        1.0  0.90550  0.63550  0.02400  1.0000 0.1392106605
H   H10       1.0  0.38550  0.86150  0.23000  1.0000 0.1392106605
H   H11       1.0  0.63150  0.15550  0.77000  1.0000 0.1392106605
H   H12       1.0  0.11850  0.38850  0.02400  1.0000 0.1392106605
H   H13       1.0  0.61150  0.88150  0.97600  1.0000 0.1392106605
H   H14       1.0  0.13850  0.61450  0.77000  1.0000 0.1392106605
H   H15       1.0  0.84450  0.36850  0.23000  1.0000 0.1392106605
H   H16       1.0  0.36450  0.09450  0.97600  1.0000 0.1392106605
H   H17       1.0  0.50680  0.52800  0.38720  1.0000 0.1392106605
H   H18       1.0  0.27800  0.39080  0.52120  1.0000 0.1392106605
H   H19       1.0  0.86960  0.75680  0.47880  1.0000 0.1392106605
H   H20       1.0  0.88040  0.85920  0.38720  1.0000 0.1392106605
H   H21       1.0  0.14080  0.11960  0.61280  1.0000 0.1392106605
H   H22       1.0  0.60920  0.72200  0.47880  1.0000 0.1392106605
H   H23       1.0  0.24320  0.13040  0.52120  1.0000 0.1392106605
H   H24       1.0  0.47200  0.49320  0.61280  1.0000 0.1392106605
H   H25       1.0  0.24320  0.72200  0.11280  1.0000 0.1392106605
H   H26       1.0  0.47200  0.85920  0.97880  1.0000 0.1392106605
H   H27       1.0  0.88040  0.49320  0.02120  1.0000 0.1392106605
H   H28       1.0  0.86960  0.39080  0.11280  1.0000 0.1392106605
H   H29       1.0  0.60920  0.13040  0.88720  1.0000 0.1392106605
H   H30       1.0  0.14080  0.52800  0.02120  1.0000 0.1392106605
H   H31       1.0  0.50680  0.11960  0.97880  1.0000 0.1392106605
H   H32       1.0  0.27800  0.75680  0.88720  1.0000 0.1392106605
H   H33       1.0  0.94740  0.59030  0.64290  1.0000 0.1392106605
H   H34       1.0  0.34030  0.19740  0.14290  1.0000 0.1392106605
H   H35       1.0  0.05450  0.19740  0.85710  1.0000 0.1392106605
H   H36       1.0  0.69550  0.05260  0.64290  1.0000 0.1392106605
H   H37       1.0  0.94740  0.30450  0.35710  1.0000 0.1392106605
H   H38       1.0  0.80260  0.65970  0.85710  1.0000 0.1392106605
H   H39       1.0  0.80260  0.94550  0.14290  1.0000 0.1392106605
H   H40       1.0  0.40970  0.05260  0.35710  1.0000 0.1392106605
H   H41       1.0  0.78790  0.40210  0.38580  1.0000 0.1392106605
H   H42       1.0  0.15210  0.26630  0.11420  1.0000 0.1392106605
H   H43       1.0  0.15210  0.03790  0.88580  1.0000 0.1392106605
H   H44       1.0  0.59790  0.98370  0.38580  1.0000 0.1392106605
H   H45       1.0  0.01630  0.40210  0.61420  1.0000 0.1392106605
H   H46       1.0  0.73370  0.84790  0.88580  1.0000 0.1392106605
H   H47       1.0  0.96210  0.84790  0.11420  1.0000 0.1392106605
H   H48       1.0  0.59790  0.21210  0.61420  1.0000 0.1392106605
H   H49       1.0  0.40130  0.59870  0.50000  1.0000 0.1392106605
H   H50       1.0  0.34870  0.34870  0.69740  1.0000 0.1392106605
H   H51       1.0  0.65130  0.65130  0.30260  1.0000 0.1392106605
H   H52       1.0  0.09870  0.90130  0.50000  1.0000 0.1392106605
H   H53       1.0  0.34870  0.65130  0.00000  1.0000 0.1392106605
H   H54       1.0  0.40130  0.90130  0.80260  1.0000 0.1392106605
H   H55       1.0  0.09870  0.59870  0.19740  1.0000 0.1392106605
H   H56       1.0  0.65130  0.34870  0.00000  1.0000 0.1392106605
H   H57       1.0  0.27530  0.56940  0.29410  1.0000 0.1392106605
H   H58       1.0  0.31940  0.52530  0.79410  1.0000 0.1392106605
H   H59       1.0  0.73120  0.52530  0.20590  1.0000 0.1392106605
H   H60       1.0  0.01880  0.72470  0.29410  1.0000 0.1392106605
H   H61       1.0  0.27530  0.98120  0.70590  1.0000 0.1392106605
H   H62       1.0  0.47470  0.68060  0.20590  1.0000 0.1392106605
H   H63       1.0  0.47470  0.26880  0.79410  1.0000 0.1392106605
H   H64       1.0  0.43060  0.72470  0.70590  1.0000 0.1392106605
H   H65       1.0  0.69380  0.53270  0.46390  1.0000 0.1392106605
H   H66       1.0  0.28270  0.31880  0.33890  1.0000 0.1392106605
H   H67       1.0  0.97990  0.94380  0.66110  1.0000 0.1392106605
H   H68       1.0  0.77010  0.93120  0.46390  1.0000 0.1392106605
H   H69       1.0  0.06880  0.22990  0.53610  1.0000 0.1392106605
H   H70       1.0  0.68120  0.71730  0.66110  1.0000 0.1392106605
H   H71       1.0  0.05620  0.02010  0.33890  1.0000 0.1392106605
H   H72       1.0  0.46730  0.30620  0.53610  1.0000 0.1392106605
H   H73       1.0  0.05620  0.71730  0.03610  1.0000 0.1392106605
H   H74       1.0  0.46730  0.93120  0.16110  1.0000 0.1392106605
H   H75       1.0  0.77010  0.30620  0.83890  1.0000 0.1392106605
H   H76       1.0  0.97990  0.31880  0.03610  1.0000 0.1392106605
H   H77       1.0  0.68120  0.02010  0.96390  1.0000 0.1392106605
H   H78       1.0  0.06880  0.53270  0.83890  1.0000 0.1392106605
H   H79       1.0  0.69380  0.22990  0.16110  1.0000 0.1392106605
H   H80       1.0  0.28270  0.94380  0.96390  1.0000 0.1392106605
C   C1        1.0  0.71100  0.48910  0.35950  1.0000 0.5397681567
C   C2        1.0  0.23910  0.37960  0.27810  1.0000 0.5397681567
C   C3        1.0  0.10150  0.96100  0.72190  1.0000 0.5397681567
C   C4        1.0  0.64850  0.87040  0.35950  1.0000 0.5397681567
C   C5        1.0  0.12960  0.35150  0.64050  1.0000 0.5397681567
C   C6        1.0  0.62040  0.76090  0.72190  1.0000 0.5397681567
C   C7        1.0  0.03900  0.89850  0.27810  1.0000 0.5397681567
C   C8        1.0  0.51090  0.28900  0.64050  1.0000 0.5397681567
C   C9        1.0  0.03900  0.76090  0.14050  1.0000 0.5397681567
C   C10       1.0  0.51090  0.87040  0.22190  1.0000 0.5397681567
C   C11       1.0  0.64850  0.28900  0.77810  1.0000 0.5397681567
C   C12       1.0  0.10150  0.37960  0.14050  1.0000 0.5397681567
C   C13       1.0  0.62040  0.89850  0.85950  1.0000 0.5397681567
C   C14       1.0  0.12960  0.48910  0.77810  1.0000 0.5397681567
C   C15       1.0  0.71100  0.35150  0.22190  1.0000 0.5397681567
C   C16       1.0  0.23910  0.96100  0.85950  1.0000 0.5397681567
C   C17       1.0  0.74270  0.53050  0.37860  1.0000 0.0497314001
C   C18       1.0  0.28050  0.40190  0.28780  1.0000 0.0497314001
C   C19       1.0  0.11410  0.99270  0.71220  1.0000 0.0497314001
C   C20       1.0  0.63590  0.84810  0.37860  1.0000 0.0497314001
C   C21       1.0  0.15190  0.36410  0.62140  1.0000 0.0497314001
C   C22       1.0  0.59810  0.71950  0.71220  1.0000 0.0497314001
C   C23       1.0  0.00730  0.88590  0.28780  1.0000 0.0497314001
C   C24       1.0  0.46950  0.25730  0.62140  1.0000 0.0497314001
C   C25       1.0  0.00730  0.71950  0.12140  1.0000 0.0497314001
C   C26       1.0  0.46950  0.84810  0.21220  1.0000 0.0497314001
C   C27       1.0  0.63590  0.25730  0.78780  1.0000 0.0497314001
C   C28       1.0  0.11410  0.40190  0.12140  1.0000 0.0497314001
C   C29       1.0  0.59810  0.88590  0.87860  1.0000 0.0497314001
C   C30       1.0  0.15190  0.53050  0.78780  1.0000 0.0497314001
C   C31       1.0  0.74270  0.36410  0.21220  1.0000 0.0497314001
C   C32       1.0  0.28050  0.99270  0.87860  1.0000 0.0497314001
C   C33       1.0  0.81130  0.59070  0.44060  1.0000 0.237891994
C   C34       1.0  0.34070  0.40010  0.27940  1.0000 0.237891994
C   C35       1.0  0.12070  0.06130  0.72060  1.0000 0.237891994
C   C36       1.0  0.62930  0.84990  0.44060  1.0000 0.237891994
C   C37       1.0  0.15010  0.37070  0.55940  1.0000 0.237891994
C   C38       1.0  0.59990  0.65930  0.72060  1.0000 0.237891994
C   C39       1.0  0.93870  0.87930  0.27940  1.0000 0.237891994
C   C40       1.0  0.40930  0.18870  0.55940  1.0000 0.237891994
C   C41       1.0  0.93870  0.65930  0.05940  1.0000 0.237891994
C   C42       1.0  0.40930  0.84990  0.22060  1.0000 0.237891994
C   C43       1.0  0.62930  0.18870  0.77940  1.0000 0.237891994
C   C44       1.0  0.12070  0.40010  0.05940  1.0000 0.237891994
C   C45       1.0  0.59990  0.87930  0.94060  1.0000 0.237891994
C   C46       1.0  0.15010  0.59070  0.77940  1.0000 0.237891994
C   C47       1.0  0.81130  0.37070  0.22060  1.0000 0.237891994
C   C48       1.0  0.34070  0.06130  0.94060  1.0000 0.237891994
C   C49       1.0  0.73540  0.54990  0.34910  1.0000 0.0497314001
C   C50       1.0  0.29990  0.45080  0.31450  1.0000 0.0497314001
C   C51       1.0  0.13630  0.98540  0.68550  1.0000 0.0497314001
C   C52       1.0  0.61370  0.79920  0.34910  1.0000 0.0497314001
C   C53       1.0  0.20080  0.38630  0.65090  1.0000 0.0497314001
C   C54       1.0  0.54920  0.70010  0.68550  1.0000 0.0497314001
C   C55       1.0  0.01460  0.86370  0.31450  1.0000 0.0497314001
C   C56       1.0  0.45010  0.26460  0.65090  1.0000 0.0497314001
C   C57       1.0  0.01460  0.70010  0.15090  1.0000 0.0497314001
C   C58       1.0  0.45010  0.79920  0.18550  1.0000 0.0497314001
C   C59       1.0  0.61370  0.26460  0.81450  1.0000 0.0497314001
C   C60       1.0  0.13630  0.45080  0.15090  1.0000 0.0497314001
C   C61       1.0  0.54920  0.86370  0.84910  1.0000 0.0497314001
C   C62       1.0  0.20080  0.54990  0.81450  1.0000 0.0497314001
C   C63       1.0  0.73540  0.38630  0.18550  1.0000 0.0497314001
C   C64       1.0  0.29990  0.98540  0.84910  1.0000 0.0497314001
C   C65       1.0  0.68970  0.53910  0.28920  1.0000 0.5397681567
C   C66       1.0  0.28910  0.49990  0.34940  1.0000 0.5397681567
C   C67       1.0  0.15050  0.93970  0.65060  1.0000 0.5397681567
C   C68       1.0  0.59950  0.75010  0.28920  1.0000 0.5397681567
C   C69       1.0  0.24990  0.40050  0.71080  1.0000 0.5397681567
C   C70       1.0  0.50010  0.71090  0.65060  1.0000 0.5397681567
C   C71       1.0  0.06030  0.84950  0.34940  1.0000 0.5397681567
C   C72       1.0  0.46090  0.31030  0.71080  1.0000 0.5397681567
C   C73       1.0  0.06030  0.71090  0.21080  1.0000 0.5397681567
C   C74       1.0  0.46090  0.75010  0.15060  1.0000 0.5397681567
C   C75       1.0  0.59950  0.31030  0.84940  1.0000 0.5397681567
C   C76       1.0  0.15050  0.49990  0.21080  1.0000 0.5397681567
C   C77       1.0  0.50010  0.84950  0.78920  1.0000 0.5397681567
C   C78       1.0  0.24990  0.53910  0.84940  1.0000 0.5397681567
C   C79       1.0  0.68970  0.40050  0.15060  1.0000 0.5397681567
C   C80       1.0  0.28910  0.93970  0.78920  1.0000 0.5397681567
C   C81       1.0  0.42530  0.64432  0.44762  1.0000 0.5397681567
C   C82       1.0  0.39432  0.44670  0.71902  1.0000 0.5397681567
C   C83       1.0  0.72768  0.67530  0.28098  1.0000 0.5397681567
C   C84       1.0  0.02232  0.80330  0.44762  1.0000 0.5397681567
C   C85       1.0  0.19670  0.97768  0.55238  1.0000 0.5397681567
C   C86       1.0  0.55330  0.60568  0.28098  1.0000 0.5397681567
C   C87       1.0  0.32470  0.27232  0.71902  1.0000 0.5397681567
C   C88       1.0  0.35568  0.57470  0.55238  1.0000 0.5397681567
C   C89       1.0  0.32470  0.60568  0.05238  1.0000 0.5397681567
C   C90       1.0  0.35568  0.80330  0.78098  1.0000 0.5397681567
C   C91       1.0  0.02232  0.57470  0.21902  1.0000 0.5397681567
C   C92       1.0  0.72768  0.44670  0.05238  1.0000 0.5397681567
C   C93       1.0  0.55330  0.27232  0.94762  1.0000 0.5397681567
C   C94       1.0  0.19670  0.64432  0.21902  1.0000 0.5397681567
C   C95       1.0  0.42530  0.97768  0.78098  1.0000 0.5397681567
C   C96       1.0  0.39432  0.67530  0.94762  1.0000 0.5397681567
C   C97       1.0  0.46640  0.62270  0.44370  1.0000 0.021421967
C   C98       1.0  0.37270  0.42900  0.65630  1.0000 0.021421967
C   C99       1.0  0.77270  0.71640  0.34370  1.0000 0.021421967
C   C100      1.0  0.97730  0.82100  0.44370  1.0000 0.021421967
C   C101      1.0  0.17900  0.02270  0.55630  1.0000 0.021421967
C   C102      1.0  0.57100  0.62730  0.34370  1.0000 0.021421967
C   C103      1.0  0.28360  0.22730  0.65630  1.0000 0.021421967
C   C104      1.0  0.37730  0.53360  0.55630  1.0000 0.021421967
C   C105      1.0  0.28360  0.62730  0.05630  1.0000 0.021421967
C   C106      1.0  0.37730  0.82100  0.84370  1.0000 0.021421967
C   C107      1.0  0.97730  0.53360  0.15630  1.0000 0.021421967
C   C108      1.0  0.77270  0.42900  0.05630  1.0000 0.021421967
C   C109      1.0  0.57100  0.22730  0.94370  1.0000 0.021421967
C   C110      1.0  0.17900  0.62270  0.15630  1.0000 0.021421967
C   C111      1.0  0.46640  0.02270  0.84370  1.0000 0.021421967
C   C112      1.0  0.37270  0.71640  0.94370  1.0000 0.021421967
C   C113      1.0  0.50180  0.56170  0.40950  1.0000 0.2470546998
C   C114      1.0  0.31170  0.40220  0.55990  1.0000 0.2470546998
C   C115      1.0  0.84230  0.75180  0.44010  1.0000 0.2470546998
C   C116      1.0  0.90770  0.84780  0.40950  1.0000 0.2470546998
C   C117      1.0  0.15220  0.09230  0.59050  1.0000 0.2470546998
C   C118      1.0  0.59780  0.68830  0.44010  1.0000 0.2470546998
C   C119      1.0  0.24820  0.15770  0.55990  1.0000 0.2470546998
C   C120      1.0  0.43830  0.49820  0.59050  1.0000 0.2470546998
C   C121      1.0  0.24820  0.68830  0.09050  1.0000 0.2470546998
C   C122      1.0  0.43830  0.84780  0.94010  1.0000 0.2470546998
C   C123      1.0  0.90770  0.49820  0.05990  1.0000 0.2470546998
C   C124      1.0  0.84230  0.40220  0.09050  1.0000 0.2470546998
C   C125      1.0  0.59780  0.15770  0.90950  1.0000 0.2470546998
C   C126      1.0  0.15220  0.56170  0.05990  1.0000 0.2470546998
C   C127      1.0  0.50180  0.09230  0.94010  1.0000 0.2470546998
C   C128      1.0  0.31170  0.75180  0.90950  1.0000 0.2470546998
C   C129      1.0  0.51480  0.64400  0.47420  1.0000 0.0694798347
C   C130      1.0  0.39400  0.41980  0.62920  1.0000 0.0694798347
C   C131      1.0  0.79060  0.76480  0.37080  1.0000 0.0694798347
C   C132      1.0  0.95940  0.83020  0.47420  1.0000 0.0694798347
C   C133      1.0  0.16980  0.04060  0.52580  1.0000 0.0694798347
C   C134      1.0  0.58020  0.60600  0.37080  1.0000 0.0694798347
C   C135      1.0  0.23520  0.20940  0.62920  1.0000 0.0694798347
C   C136      1.0  0.35600  0.48520  0.52580  1.0000 0.0694798347
C   C137      1.0  0.23520  0.60600  0.02580  1.0000 0.0694798347
C   C138      1.0  0.35600  0.83020  0.87080  1.0000 0.0694798347
C   C139      1.0  0.95940  0.48520  0.12920  1.0000 0.0694798347
C   C140      1.0  0.79060  0.41980  0.02580  1.0000 0.0694798347
C   C141      1.0  0.58020  0.20940  0.97420  1.0000 0.0694798347
C   C142      1.0  0.16980  0.64400  0.12920  1.0000 0.0694798347
C   C143      1.0  0.51480  0.04060  0.87080  1.0000 0.0694798347
C   C144      1.0  0.39400  0.76480  0.97420  1.0000 0.0694798347
C   C145      1.0  0.54630  0.69900  0.52350  1.0000 0.5490456316
C   C146      1.0  0.44900  0.42550  0.65270  1.0000 0.5490456316
C   C147      1.0  0.77280  0.79630  0.34730  1.0000 0.5490456316
C   C148      1.0  0.97720  0.82450  0.52350  1.0000 0.5490456316
C   C149      1.0  0.17550  0.02280  0.47650  1.0000 0.5490456316
C   C150      1.0  0.57450  0.55100  0.34730  1.0000 0.5490456316
C   C151      1.0  0.20370  0.22720  0.65270  1.0000 0.5490456316
C   C152      1.0  0.30100  0.45370  0.47650  1.0000 0.5490456316
C   C153      1.0  0.20370  0.55100  0.97650  1.0000 0.5490456316
C   C154      1.0  0.30100  0.82450  0.84730  1.0000 0.5490456316
C   C155      1.0  0.97720  0.45370  0.15270  1.0000 0.5490456316
C   C156      1.0  0.77280  0.42550  0.97650  1.0000 0.5490456316
C   C157      1.0  0.57450  0.22720  0.02350  1.0000 0.5490456316
C   C158      1.0  0.17550  0.69900  0.15270  1.0000 0.5490456316
C   C159      1.0  0.54630  0.02280  0.84730  1.0000 0.5490456316
C   C160      1.0  0.44900  0.79630  0.02350  1.0000 0.5490456316
C   C161      1.0  0.81690  0.46870  0.53660  1.0000 0.5312101133
C   C162      1.0  0.21870  0.18210  0.15180  1.0000 0.5312101133
C   C163      1.0  0.03030  0.06690  0.84820  1.0000 0.5312101133
C   C164      1.0  0.71970  0.06790  0.53660  1.0000 0.5312101133
C   C165      1.0  0.93210  0.28030  0.46340  1.0000 0.5312101133
C   C166      1.0  0.81790  0.78130  0.84820  1.0000 0.5312101133
C   C167      1.0  0.93310  0.96970  0.15180  1.0000 0.5312101133
C   C168      1.0  0.53130  0.18310  0.46340  1.0000 0.5312101133
C   C169      1.0  0.93310  0.78130  0.96340  1.0000 0.5312101133
C   C170      1.0  0.53130  0.06790  0.34820  1.0000 0.5312101133
C   C171      1.0  0.71970  0.18310  0.65180  1.0000 0.5312101133
C   C172      1.0  0.03030  0.18210  0.96340  1.0000 0.5312101133
C   C173      1.0  0.81790  0.96970  0.03660  1.0000 0.5312101133
C   C174      1.0  0.93210  0.46870  0.65180  1.0000 0.5312101133
C   C175      1.0  0.81690  0.28030  0.34820  1.0000 0.5312101133
C   C176      1.0  0.21870  0.06690  0.03660  1.0000 0.5312101133
C   C177      1.0  0.86970  0.50170  0.58620  1.0000 0.0365879461
C   C178      1.0  0.25170  0.16550  0.13200  1.0000 0.0365879461
C   C179      1.0  0.03350  0.11970  0.86800  1.0000 0.0365879461
C   C180      1.0  0.71650  0.08450  0.58620  1.0000 0.0365879461
C   C181      1.0  0.91550  0.28350  0.41380  1.0000 0.0365879461
C   C182      1.0  0.83450  0.74830  0.86800  1.0000 0.0365879461
C   C183      1.0  0.88030  0.96650  0.13200  1.0000 0.0365879461
C   C184      1.0  0.49830  0.13030  0.41380  1.0000 0.0365879461
C   C185      1.0  0.88030  0.74830  0.91380  1.0000 0.0365879461
C   C186      1.0  0.49830  0.08450  0.36800  1.0000 0.0365879461
C   C187      1.0  0.71650  0.13030  0.63200  1.0000 0.0365879461
C   C188      1.0  0.03350  0.16550  0.91380  1.0000 0.0365879461
C   C189      1.0  0.83450  0.96650  0.08620  1.0000 0.0365879461
C   C190      1.0  0.91550  0.50170  0.63200  1.0000 0.0365879461
C   C191      1.0  0.86970  0.28350  0.36800  1.0000 0.0365879461
C   C192      1.0  0.25170  0.11970  0.08620  1.0000 0.0365879461
C   C193      1.0  0.92990  0.56310  0.63320  1.0000 0.2287778984
C   C194      1.0  0.31310  0.17990  0.13320  1.0000 0.2287778984
C   C195      1.0  0.04670  0.17990  0.86680  1.0000 0.2287778984
C   C196      1.0  0.70330  0.07010  0.63320  1.0000 0.2287778984
C   C197      1.0  0.92990  0.29670  0.36680  1.0000 0.2287778984
C   C198      1.0  0.82010  0.68690  0.86680  1.0000 0.2287778984
C   C199      1.0  0.82010  0.95330  0.13320  1.0000 0.2287778984
C   C200      1.0  0.43690  0.07010  0.36680  1.0000 0.2287778984
C   C201      1.0  0.91020  0.53190  0.49170  1.0000 0.5397681567
C   C202      1.0  0.28190  0.29020  0.12170  1.0000 0.5397681567
C   C203      1.0  0.16850  0.16020  0.87830  1.0000 0.5397681567
C   C204      1.0  0.58150  0.95980  0.49170  1.0000 0.5397681567
C   C205      1.0  0.04020  0.41850  0.50830  1.0000 0.5397681567
C   C206      1.0  0.70980  0.71810  0.87830  1.0000 0.5397681567
C   C207      1.0  0.83980  0.83150  0.12170  1.0000 0.5397681567
C   C208      1.0  0.46810  0.08980  0.50830  1.0000 0.5397681567
C   C209      1.0  0.83980  0.71810  0.00830  1.0000 0.5397681567
C   C210      1.0  0.46810  0.95980  0.37830  1.0000 0.5397681567
C   C211      1.0  0.58150  0.08980  0.62170  1.0000 0.5397681567
C   C212      1.0  0.16850  0.29020  0.00830  1.0000 0.5397681567
C   C213      1.0  0.70980  0.83150  0.99170  1.0000 0.5397681567
C   C214      1.0  0.04020  0.53190  0.62170  1.0000 0.5397681567
C   C215      1.0  0.91020  0.41850  0.37830  1.0000 0.5397681567
C   C216      1.0  0.28190  0.16020  0.99170  1.0000 0.5397681567
C   C217      1.0  0.87970  0.47840  0.44770  1.0000 0.0497314001
C   C218      1.0  0.22840  0.28070  0.09870  1.0000 0.0497314001
C   C219      1.0  0.18200  0.12970  0.90130  1.0000 0.0497314001
C   C220      1.0  0.56800  0.96930  0.44770  1.0000 0.0497314001
C   C221      1.0  0.03070  0.43200  0.55230  1.0000 0.0497314001
C   C222      1.0  0.71930  0.77160  0.90130  1.0000 0.0497314001
C   C223      1.0  0.87030  0.81800  0.09870  1.0000 0.0497314001
C   C224      1.0  0.52160  0.12030  0.55230  1.0000 0.0497314001
C   C225      1.0  0.87030  0.77160  0.05230  1.0000 0.0497314001
C   C226      1.0  0.52160  0.96930  0.40130  1.0000 0.0497314001
C   C227      1.0  0.56800  0.12030  0.59870  1.0000 0.0497314001
C   C228      1.0  0.18200  0.28070  0.05230  1.0000 0.0497314001
C   C229      1.0  0.71930  0.81800  0.94770  1.0000 0.0497314001
C   C230      1.0  0.03070  0.47840  0.59870  1.0000 0.0497314001
C   C231      1.0  0.87970  0.43200  0.40130  1.0000 0.0497314001
C   C232      1.0  0.22840  0.12970  0.94770  1.0000 0.0497314001
C   C233      1.0  0.81810  0.41870  0.39940  1.0000 0.2287778984
C   C234      1.0  0.16870  0.26930  0.10060  1.0000 0.2287778984
C   C235      1.0  0.16870  0.06810  0.89940  1.0000 0.2287778984
C   C236      1.0  0.58130  0.98070  0.39940  1.0000 0.2287778984
C   C237      1.0  0.01930  0.41870  0.60060  1.0000 0.2287778984
C   C238      1.0  0.73070  0.83130  0.89940  1.0000 0.2287778984
C   C239      1.0  0.93190  0.83130  0.10060  1.0000 0.2287778984
C   C240      1.0  0.58130  0.18190  0.60060  1.0000 0.2287778984
C   C241      1.0  0.47470  0.47660  0.42570  1.0000 0.5490456316
C   C242      1.0  0.22660  0.30090  0.50190  1.0000 0.5490456316
C   C243      1.0  0.79900  0.72470  0.49810  1.0000 0.5490456316
C   C244      1.0  0.95100  0.94910  0.42570  1.0000 0.5490456316
C   C245      1.0  0.05090  0.04900  0.57430  1.0000 0.5490456316
C   C246      1.0  0.69910  0.77340  0.49810  1.0000 0.5490456316
C   C247      1.0  0.27530  0.20100  0.50190  1.0000 0.5490456316
C   C248      1.0  0.52340  0.52530  0.57430  1.0000 0.5490456316
C   C249      1.0  0.27530  0.77340  0.07430  1.0000 0.5490456316
C   C250      1.0  0.52340  0.94910  0.99810  1.0000 0.5490456316
C   C251      1.0  0.95100  0.52530  0.00190  1.0000 0.5490456316
C   C252      1.0  0.79900  0.30090  0.07430  1.0000 0.5490456316
C   C253      1.0  0.69910  0.20100  0.92570  1.0000 0.5490456316
C   C254      1.0  0.05090  0.47660  0.00190  1.0000 0.5490456316
C   C255      1.0  0.47470  0.04900  0.99810  1.0000 0.5490456316
C   C256      1.0  0.22660  0.72470  0.92570  1.0000 0.5490456316
C   C257      1.0  0.46360  0.51760  0.47000  1.0000 0.0559853911
C   C258      1.0  0.26760  0.29760  0.55400  1.0000 0.0559853911
C   C259      1.0  0.74360  0.71360  0.44600  1.0000 0.0559853911
C   C260      1.0  0.00640  0.95240  0.47000  1.0000 0.0559853911
C   C261      1.0  0.04760  0.99360  0.53000  1.0000 0.0559853911
C   C262      1.0  0.70240  0.73240  0.44600  1.0000 0.0559853911
C   C263      1.0  0.28640  0.25640  0.55400  1.0000 0.0559853911
C   C264      1.0  0.48240  0.53640  0.53000  1.0000 0.0559853911
C   C265      1.0  0.28640  0.73240  0.03000  1.0000 0.0559853911
C   C266      1.0  0.48240  0.95240  0.94600  1.0000 0.0559853911
C   C267      1.0  0.00640  0.53640  0.05400  1.0000 0.0559853911
C   C268      1.0  0.74360  0.29760  0.03000  1.0000 0.0559853911
C   C269      1.0  0.70240  0.25640  0.97000  1.0000 0.0559853911
C   C270      1.0  0.04760  0.51760  0.05400  1.0000 0.0559853911
C   C271      1.0  0.46360  0.99360  0.94600  1.0000 0.0559853911
C   C272      1.0  0.26760  0.71360  0.97000  1.0000 0.0559853911
C   C273      1.0  0.42410  0.57590  0.50000  1.0000 0.237891994
C   C274      1.0  0.32590  0.32590  0.65180  1.0000 0.237891994
C   C275      1.0  0.67410  0.67410  0.34820  1.0000 0.237891994
C   C276      1.0  0.07590  0.92410  0.50000  1.0000 0.237891994
C   C277      1.0  0.32590  0.67410  0.00000  1.0000 0.237891994
C   C278      1.0  0.42410  0.92410  0.84820  1.0000 0.237891994
C   C279      1.0  0.07590  0.57590  0.15180  1.0000 0.237891994
C   C280      1.0  0.67410  0.32590  0.00000  1.0000 0.237891994
C   C281      1.0  0.35510  0.45880  0.21990  1.0000 0.5397681567
C   C282      1.0  0.20880  0.48890  0.60370  1.0000 0.5397681567
C   C283      1.0  0.88520  0.60510  0.39630  1.0000 0.5397681567
C   C284      1.0  0.86480  0.76110  0.21990  1.0000 0.5397681567
C   C285      1.0  0.23890  0.13520  0.78010  1.0000 0.5397681567
C   C286      1.0  0.51110  0.79120  0.39630  1.0000 0.5397681567
C   C287      1.0  0.39490  0.11480  0.60370  1.0000 0.5397681567
C   C288      1.0  0.54120  0.64490  0.78010  1.0000 0.5397681567
C   C289      1.0  0.39490  0.79120  0.28010  1.0000 0.5397681567
C   C290      1.0  0.54120  0.76110  0.89630  1.0000 0.5397681567
C   C291      1.0  0.86480  0.64490  0.10370  1.0000 0.5397681567
C   C292      1.0  0.88520  0.48890  0.28010  1.0000 0.5397681567
C   C293      1.0  0.51110  0.11480  0.71990  1.0000 0.5397681567
C   C294      1.0  0.23890  0.45880  0.10370  1.0000 0.5397681567
C   C295      1.0  0.35510  0.13520  0.89630  1.0000 0.5397681567
C   C296      1.0  0.20880  0.60510  0.71990  1.0000 0.5397681567
C   C297      1.0  0.31580  0.48910  0.21990  1.0000 0.0497314001
C   C298      1.0  0.23910  0.51920  0.67330  1.0000 0.0497314001
C   C299      1.0  0.84590  0.56580  0.32670  1.0000 0.0497314001
C   C300      1.0  0.90410  0.73080  0.21990  1.0000 0.0497314001
C   C301      1.0  0.26920  0.09590  0.78010  1.0000 0.0497314001
C   C302      1.0  0.48080  0.76090  0.32670  1.0000 0.0497314001
C   C303      1.0  0.43420  0.15410  0.67330  1.0000 0.0497314001
C   C304      1.0  0.51090  0.68420  0.78010  1.0000 0.0497314001
C   C305      1.0  0.43420  0.76090  0.28010  1.0000 0.0497314001
C   C306      1.0  0.51090  0.73080  0.82670  1.0000 0.0497314001
C   C307      1.0  0.90410  0.68420  0.17330  1.0000 0.0497314001
C   C308      1.0  0.84590  0.51920  0.28010  1.0000 0.0497314001
C   C309      1.0  0.48080  0.15410  0.71990  1.0000 0.0497314001
C   C310      1.0  0.26920  0.48910  0.17330  1.0000 0.0497314001
C   C311      1.0  0.31580  0.09590  0.82670  1.0000 0.0497314001
C   C312      1.0  0.23910  0.56580  0.71990  1.0000 0.0497314001
C   C313      1.0  0.28090  0.54440  0.26350  1.0000 0.2470546998
C   C314      1.0  0.29440  0.53090  0.76350  1.0000 0.2470546998
C   C315      1.0  0.76740  0.53090  0.23650  1.0000 0.2470546998
C   C316      1.0  0.98260  0.71910  0.26350  1.0000 0.2470546998
C   C317      1.0  0.28090  0.01740  0.73650  1.0000 0.2470546998
C   C318      1.0  0.46910  0.70560  0.23650  1.0000 0.2470546998
C   C319      1.0  0.46910  0.23260  0.76350  1.0000 0.2470546998
C   C320      1.0  0.45560  0.71910  0.73650  1.0000 0.2470546998
C   C321      1.0  0.72800  0.70360  0.58660  1.0000 0.5397681567
C   C322      1.0  0.45360  0.36700  0.47560  1.0000 0.5397681567
C   C323      1.0  0.89140  0.97800  0.52440  1.0000 0.5397681567
C   C324      1.0  0.85860  0.88300  0.58660  1.0000 0.5397681567
C   C325      1.0  0.11700  0.14140  0.41340  1.0000 0.5397681567
C   C326      1.0  0.63300  0.54640  0.52440  1.0000 0.5397681567
C   C327      1.0  0.02200  0.10860  0.47560  1.0000 0.5397681567
C   C328      1.0  0.29640  0.27200  0.41340  1.0000 0.5397681567
C   C329      1.0  0.02200  0.54640  0.91340  1.0000 0.5397681567
C   C330      1.0  0.29640  0.88300  0.02440  1.0000 0.5397681567
C   C331      1.0  0.85860  0.27200  0.97560  1.0000 0.5397681567
C   C332      1.0  0.89140  0.36700  0.91340  1.0000 0.5397681567
C   C333      1.0  0.63300  0.10860  0.08660  1.0000 0.5397681567
C   C334      1.0  0.11700  0.70360  0.97560  1.0000 0.5397681567
C   C335      1.0  0.72800  0.14140  0.02440  1.0000 0.5397681567
C   C336      1.0  0.45360  0.97800  0.08660  1.0000 0.5397681567
C   C337      1.0  0.73560  0.65020  0.55320  1.0000 0.0694798347
C   C338      1.0  0.40020  0.34700  0.41460  1.0000 0.0694798347
C   C339      1.0  0.93240  0.98560  0.58540  1.0000 0.0694798347
C   C340      1.0  0.81760  0.90300  0.55320  1.0000 0.0694798347
C   C341      1.0  0.09700  0.18240  0.44680  1.0000 0.0694798347
C   C342      1.0  0.65300  0.59980  0.58540  1.0000 0.0694798347
C   C343      1.0  0.01440  0.06760  0.41460  1.0000 0.0694798347
C   C344      1.0  0.34980  0.26440  0.44680  1.0000 0.0694798347
C   C345      1.0  0.01440  0.59980  0.94680  1.0000 0.0694798347
C   C346      1.0  0.34980  0.90300  0.08540  1.0000 0.0694798347
C   C347      1.0  0.81760  0.26440  0.91460  1.0000 0.0694798347
C   C348      1.0  0.93240  0.34700  0.94680  1.0000 0.0694798347
C   C349      1.0  0.65300  0.06760  0.05320  1.0000 0.0694798347
C   C350      1.0  0.09700  0.65020  0.91460  1.0000 0.0694798347
C   C351      1.0  0.73560  0.18240  0.08540  1.0000 0.0694798347
C   C352      1.0  0.40020  0.98560  0.05320  1.0000 0.0694798347
C   C353      1.0  0.71370  0.56730  0.49300  1.0000 0.237891994
C   C354      1.0  0.31730  0.32430  0.35360  1.0000 0.237891994
C   C355      1.0  0.97070  0.96370  0.64640  1.0000 0.237891994
C   C356      1.0  0.77930  0.92570  0.49300  1.0000 0.237891994
C   C357      1.0  0.07430  0.22070  0.50700  1.0000 0.237891994
C   C358      1.0  0.67570  0.68270  0.64640  1.0000 0.237891994
C   C359      1.0  0.03630  0.02930  0.35360  1.0000 0.237891994
C   C360      1.0  0.43270  0.28630  0.50700  1.0000 0.237891994
C   C361      1.0  0.03630  0.68270  0.00700  1.0000 0.237891994
C   C362      1.0  0.43270  0.92570  0.14640  1.0000 0.237891994
C   C363      1.0  0.77930  0.28630  0.85360  1.0000 0.237891994
C   C364      1.0  0.97070  0.32430  0.00700  1.0000 0.237891994
C   C365      1.0  0.67570  0.02930  0.99300  1.0000 0.237891994
C   C366      1.0  0.07430  0.56730  0.85360  1.0000 0.237891994
C   C367      1.0  0.71370  0.22070  0.14640  1.0000 0.237891994
C   C368      1.0  0.31730  0.96370  0.99300  1.0000 0.237891994
C   C369      1.0  0.77770  0.63200  0.55810  1.0000 0.0287246201
C   C370      1.0  0.38200  0.32390  0.35430  1.0000 0.0287246201
C   C371      1.0  0.96960  0.02770  0.64570  1.0000 0.0287246201
C   C372      1.0  0.78040  0.92610  0.55810  1.0000 0.0287246201
C   C373      1.0  0.07390  0.21960  0.44190  1.0000 0.0287246201
C   C374      1.0  0.67610  0.61800  0.64570  1.0000 0.0287246201
C   C375      1.0  0.97230  0.03040  0.35430  1.0000 0.0287246201
C   C376      1.0  0.36800  0.22230  0.44190  1.0000 0.0287246201
C   C377      1.0  0.97230  0.61800  0.94190  1.0000 0.0287246201
C   C378      1.0  0.36800  0.92610  0.14570  1.0000 0.0287246201
C   C379      1.0  0.78040  0.22230  0.85430  1.0000 0.0287246201
C   C380      1.0  0.96960  0.32390  0.94190  1.0000 0.0287246201
C   C381      1.0  0.67610  0.03040  0.05810  1.0000 0.0287246201
C   C382      1.0  0.07390  0.63200  0.85430  1.0000 0.0287246201
C   C383      1.0  0.77770  0.21960  0.14570  1.0000 0.0287246201
C   C384      1.0  0.38200  0.02770  0.05810  1.0000 0.0287246201
C   C385      1.0  0.83020  0.65880  0.59480  1.0000 0.5397681567
C   C386      1.0  0.40880  0.31400  0.32860  1.0000 0.5397681567
C   C387      1.0  0.98540  0.08020  0.67140  1.0000 0.5397681567
C   C388      1.0  0.76460  0.93600  0.59480  1.0000 0.5397681567
C   C389      1.0  0.06400  0.23540  0.40520  1.0000 0.5397681567
C   C390      1.0  0.68600  0.59120  0.67140  1.0000 0.5397681567
C   C391      1.0  0.91980  0.01460  0.32860  1.0000 0.5397681567
C   C392      1.0  0.34120  0.16980  0.40520  1.0000 0.5397681567
C   C393      1.0  0.91980  0.59120  0.90520  1.0000 0.5397681567
C   C394      1.0  0.34120  0.93600  0.17140  1.0000 0.5397681567
C   C395      1.0  0.76460  0.16980  0.82860  1.0000 0.5397681567
C   C396      1.0  0.98540  0.31400  0.90520  1.0000 0.5397681567
C   C397      1.0  0.68600  0.01460  0.09480  1.0000 0.5397681567
C   C398      1.0  0.06400  0.65880  0.82860  1.0000 0.5397681567
C   C399      1.0  0.83020  0.23540  0.17140  1.0000 0.5397681567
C   C400      1.0  0.40880  0.08020  0.09480  1.0000 0.5397681567
N   N1        1.0  0.79320  0.55640  0.43800  1.0000 -0.3110137698
N   N2        1.0  0.30640  0.36840  0.26320  1.0000 -0.3110137698
N   N3        1.0  0.10520  0.04320  0.73680  1.0000 -0.3110137698
N   N4        1.0  0.64480  0.88160  0.43800  1.0000 -0.3110137698
N   N5        1.0  0.11840  0.35520  0.56200  1.0000 -0.3110137698
N   N6        1.0  0.63160  0.69360  0.73680  1.0000 -0.3110137698
N   N7        1.0  0.95680  0.89480  0.26320  1.0000 -0.3110137698
N   N8        1.0  0.44360  0.20680  0.56200  1.0000 -0.3110137698
N   N9        1.0  0.95680  0.69360  0.06200  1.0000 -0.3110137698
N   N10       1.0  0.44360  0.88160  0.23680  1.0000 -0.3110137698
N   N11       1.0  0.64480  0.20680  0.76320  1.0000 -0.3110137698
N   N12       1.0  0.10520  0.36840  0.06200  1.0000 -0.3110137698
N   N13       1.0  0.63160  0.89480  0.93800  1.0000 -0.3110137698
N   N14       1.0  0.11840  0.55640  0.76320  1.0000 -0.3110137698
N   N15       1.0  0.79320  0.35520  0.23680  1.0000 -0.3110137698
N   N16       1.0  0.30640  0.04320  0.93800  1.0000 -0.3110137698
N   N17       1.0  0.77881  0.58851  0.38950  1.0000 -0.2911183668
N   N18       1.0  0.33851  0.44901  0.30970  1.0000 -0.2911183668
N   N19       1.0  0.13931  0.02881  0.69030  1.0000 -0.2911183668
N   N20       1.0  0.61069  0.80099  0.38950  1.0000 -0.2911183668
N   N21       1.0  0.19901  0.38931  0.61050  1.0000 -0.2911183668
N   N22       1.0  0.55099  0.66149  0.69030  1.0000 -0.2911183668
N   N23       1.0  0.97119  0.86069  0.30970  1.0000 -0.2911183668
N   N24       1.0  0.41149  0.22119  0.61050  1.0000 -0.2911183668
N   N25       1.0  0.97119  0.66149  0.11050  1.0000 -0.2911183668
N   N26       1.0  0.41149  0.80099  0.19030  1.0000 -0.2911183668
N   N27       1.0  0.61069  0.22119  0.80970  1.0000 -0.2911183668
N   N28       1.0  0.13931  0.44901  0.11050  1.0000 -0.2911183668
N   N29       1.0  0.55099  0.86069  0.88950  1.0000 -0.2911183668
N   N30       1.0  0.19901  0.58851  0.80970  1.0000 -0.2911183668
N   N31       1.0  0.77881  0.38931  0.19030  1.0000 -0.2911183668
N   N32       1.0  0.33851  0.02881  0.88950  1.0000 -0.2911183668
N   N33       1.0  0.45660  0.56970  0.40030  1.0000 -0.2911183668
N   N34       1.0  0.31970  0.41940  0.61310  1.0000 -0.2911183668
N   N35       1.0  0.80630  0.70660  0.38690  1.0000 -0.2911183668
N   N36       1.0  0.94370  0.83060  0.40030  1.0000 -0.2911183668
N   N37       1.0  0.16940  0.05630  0.59970  1.0000 -0.2911183668
N   N38       1.0  0.58060  0.68030  0.38690  1.0000 -0.2911183668
N   N39       1.0  0.29340  0.19370  0.61310  1.0000 -0.2911183668
N   N40       1.0  0.43030  0.54340  0.59970  1.0000 -0.2911183668
N   N41       1.0  0.29340  0.68030  0.09970  1.0000 -0.2911183668
N   N42       1.0  0.43030  0.83060  0.88690  1.0000 -0.2998697242
N   N43       1.0  0.94370  0.54340  0.11310  1.0000 -0.2911183668
N   N44       1.0  0.80630  0.41940  0.09970  1.0000 -0.2911183668
N   N45       1.0  0.58060  0.19370  0.90030  1.0000 -0.2911183668
N   N46       1.0  0.16940  0.56970  0.11310  1.0000 -0.2911183668
N   N47       1.0  0.45660  0.05630  0.88690  1.0000 -0.2911183668
N   N48       1.0  0.31970  0.70660  0.90030  1.0000 -0.2998697242
N   N49       1.0  0.53867  0.60507  0.45260  1.0000 -0.3110137698
N   N50       1.0  0.35507  0.40247  0.56640  1.0000 -0.3110137698
N   N51       1.0  0.83607  0.78867  0.43360  1.0000 -0.3110137698
N   N52       1.0  0.91393  0.84753  0.45260  1.0000 -0.3110137698
N   N53       1.0  0.15247  0.08607  0.54740  1.0000 -0.3110137698
N   N54       1.0  0.59753  0.64493  0.43360  1.0000 -0.3110137698
N   N55       1.0  0.21133  0.16393  0.56640  1.0000 -0.3110137698
N   N56       1.0  0.39493  0.46133  0.54740  1.0000 -0.3110137698
N   N57       1.0  0.21133  0.64493  0.04740  1.0000 -0.3110137698
N   N58       1.0  0.39493  0.84753  0.93360  1.0000 -0.3110137698
N   N59       1.0  0.91393  0.46133  0.06640  1.0000 -0.3110137698
N   N60       1.0  0.83607  0.40247  0.04740  1.0000 -0.3110137698
N   N61       1.0  0.59753  0.16393  0.95260  1.0000 -0.3110137698
N   N62       1.0  0.15247  0.60507  0.06640  1.0000 -0.3110137698
N   N63       1.0  0.53867  0.08607  0.93360  1.0000 -0.3110137698
N   N64       1.0  0.35507  0.78867  0.95260  1.0000 -0.3110137698
N   N65       1.0  0.87797  0.54117  0.58760  1.0000 -0.3110137698
N   N66       1.0  0.29117  0.20357  0.16320  1.0000 -0.3110137698
N   N67       1.0  0.04037  0.12797  0.83680  1.0000 -0.3110137698
N   N68       1.0  0.70963  0.04643  0.58760  1.0000 -0.3110137698
N   N69       1.0  0.95357  0.29037  0.41240  1.0000 -0.3110137698
N   N70       1.0  0.79643  0.70883  0.83680  1.0000 -0.3110137698
N   N71       1.0  0.87203  0.95963  0.16320  1.0000 -0.3110137698
N   N72       1.0  0.45883  0.12203  0.41240  1.0000 -0.3110137698
N   N73       1.0  0.87203  0.70883  0.91240  1.0000 -0.3110137698
N   N74       1.0  0.45883  0.04643  0.33680  1.0000 -0.3110137698
N   N75       1.0  0.70963  0.12203  0.66320  1.0000 -0.3110137698
N   N76       1.0  0.04037  0.20357  0.91240  1.0000 -0.3110137698
N   N77       1.0  0.79643  0.95963  0.08760  1.0000 -0.3110137698
N   N78       1.0  0.95357  0.54117  0.66320  1.0000 -0.3110137698
N   N79       1.0  0.87797  0.29037  0.33680  1.0000 -0.3110137698
N   N80       1.0  0.29117  0.12797  0.08760  1.0000 -0.3110137698
N   N81       1.0  0.84134  0.46944  0.44770  1.0000 -0.2998697242
N   N82       1.0  0.21944  0.27174  0.12810  1.0000 -0.2998697242
N   N83       1.0  0.14364  0.09134  0.87190  1.0000 -0.2998697242
N   N84       1.0  0.60636  0.97826  0.44770  1.0000 -0.2998697242
N   N85       1.0  0.02174  0.39364  0.55230  1.0000 -0.2998697242
N   N86       1.0  0.72826  0.78056  0.87190  1.0000 -0.2998697242
N   N87       1.0  0.90866  0.85636  0.12810  1.0000 -0.2998697242
N   N88       1.0  0.53056  0.15866  0.55230  1.0000 -0.2998697242
N   N89       1.0  0.90866  0.78056  0.05230  1.0000 -0.2998697242
N   N90       1.0  0.53056  0.97826  0.37190  1.0000 -0.2998697242
N   N91       1.0  0.60636  0.15866  0.62810  1.0000 -0.2998697242
N   N92       1.0  0.14364  0.27174  0.05230  1.0000 -0.2998697242
N   N93       1.0  0.72826  0.85636  0.94770  1.0000 -0.2998697242
N   N94       1.0  0.02174  0.46944  0.62810  1.0000 -0.2998697242
N   N95       1.0  0.84134  0.39364  0.37190  1.0000 -0.2998697242
N   N96       1.0  0.21944  0.09134  0.94770  1.0000 -0.2998697242
N   N97       1.0  0.42491  0.54251  0.45040  1.0000 -0.3196192899
N   N98       1.0  0.29251  0.34211  0.61760  1.0000 -0.3196192899
N   N99       1.0  0.72451  0.67491  0.38240  1.0000 -0.3196192899
N   N100      1.0  0.02549  0.90789  0.45040  1.0000 -0.3196192899
N   N101      1.0  0.09211  0.97451  0.54960  1.0000 -0.3196192899
N   N102      1.0  0.65789  0.70749  0.38240  1.0000 -0.3196192899
N   N103      1.0  0.32509  0.27549  0.61760  1.0000 -0.3196192899
N   N104      1.0  0.45749  0.57509  0.54960  1.0000 -0.3196192899
N   N105      1.0  0.32509  0.70749  0.04960  1.0000 -0.3196192899
N   N106      1.0  0.45749  0.90789  0.88240  1.0000 -0.3196192899
N   N107      1.0  0.02549  0.57509  0.11760  1.0000 -0.3196192899
N   N108      1.0  0.72451  0.34211  0.04960  1.0000 -0.3196192899
N   N109      1.0  0.65789  0.27549  0.95040  1.0000 -0.3196192899
N   N110      1.0  0.09211  0.54251  0.11760  1.0000 -0.3196192899
N   N111      1.0  0.42491  0.97451  0.88240  1.0000 -0.3196192899
N   N112      1.0  0.29251  0.67491  0.95040  1.0000 -0.3196192899
N   N113      1.0  0.32334  0.52494  0.27780  1.0000 -0.3278232698
N   N114      1.0  0.27494  0.49714  0.70160  1.0000 -0.3278232698
N   N115      1.0  0.79554  0.57334  0.29840  1.0000 -0.3278232698
N   N116      1.0  0.95446  0.75286  0.27780  1.0000 -0.3278232698
N   N117      1.0  0.24714  0.04554  0.72220  1.0000 -0.3278232698
N   N118      1.0  0.50286  0.72506  0.29840  1.0000 -0.3278232698
N   N119      1.0  0.42666  0.20446  0.70160  1.0000 -0.3278232698
N   N120      1.0  0.47506  0.67666  0.72220  1.0000 -0.3278232698
N   N121      1.0  0.42666  0.72506  0.22220  1.0000 -0.3278232698
N   N122      1.0  0.47506  0.75286  0.79840  1.0000 -0.3278232698
N   N123      1.0  0.95446  0.67666  0.20160  1.0000 -0.3278232698
N   N124      1.0  0.79554  0.49714  0.22220  1.0000 -0.3278232698
N   N125      1.0  0.50286  0.20446  0.77780  1.0000 -0.3278232698
N   N126      1.0  0.24714  0.52494  0.20160  1.0000 -0.3278232698
N   N127      1.0  0.32334  0.04554  0.79840  1.0000 -0.3278232698
N   N128      1.0  0.27494  0.57334  0.77780  1.0000 -0.3278232698
N   N129      1.0  0.69491  0.60891  0.51160  1.0000 -0.2998697242
N   N130      1.0  0.35891  0.34731  0.41400  1.0000 -0.2998697242
N   N131      1.0  0.93331  0.94491  0.58600  1.0000 -0.2998697242
N   N132      1.0  0.81669  0.90269  0.51160  1.0000 -0.2998697242
N   N133      1.0  0.09731  0.18331  0.48840  1.0000 -0.2998697242
N   N134      1.0  0.65269  0.64109  0.58600  1.0000 -0.2998697242
N   N135      1.0  0.05509  0.06669  0.41400  1.0000 -0.2998697242
N   N136      1.0  0.39109  0.30509  0.48840  1.0000 -0.2998697242
N   N137      1.0  0.05509  0.64109  0.98840  1.0000 -0.2998697242
N   N138      1.0  0.39109  0.90269  0.08600  1.0000 -0.2998697242
N   N139      1.0  0.81669  0.30509  0.91400  1.0000 -0.2998697242
N   N140      1.0  0.93331  0.34731  0.98840  1.0000 -0.2998697242
N   N141      1.0  0.65269  0.06669  0.01160  1.0000 -0.2998697242
N   N142      1.0  0.09731  0.60891  0.91400  1.0000 -0.2998697242
N   N143      1.0  0.69491  0.18331  0.08600  1.0000 -0.2998697242
N   N144      1.0  0.35891  0.94491  0.01160  1.0000 -0.2998697242
N   N145      1.0  0.76350  0.57950  0.51940  1.0000 -0.2792930156
N   N146      1.0  0.32950  0.31010  0.31600  1.0000 -0.2792930156
N   N147      1.0  0.99410  0.01350  0.68400  1.0000 -0.2792930156
N   N148      1.0  0.75590  0.93990  0.51940  1.0000 -0.2792930156
N   N149      1.0  0.06010  0.24410  0.48060  1.0000 -0.2792930156
N   N150      1.0  0.68990  0.67050  0.68400  1.0000 -0.2792930156
N   N151      1.0  0.98650  0.00590  0.31600  1.0000 -0.2792930156
N   N152      1.0  0.42050  0.23650  0.48060  1.0000 -0.2792930156
N   N153      1.0  0.98650  0.67050  0.98060  1.0000 -0.2792930156
N   N154      1.0  0.42050  0.93990  0.18400  1.0000 -0.2792930156
N   N155      1.0  0.75590  0.23650  0.81600  1.0000 -0.2792930156
N   N156      1.0  0.99410  0.31010  0.98060  1.0000 -0.2792930156
N   N157      1.0  0.68990  0.00590  0.01940  1.0000 -0.2792930156
N   N158      1.0  0.06010  0.57950  0.81600  1.0000 -0.2792930156
N   N159      1.0  0.76350  0.24410  0.18400  1.0000 -0.2792930156
N   N160      1.0  0.32950  0.01350  0.01940  1.0000 -0.2792930156
O   O1        1.0  0.73012  0.47662  0.39630  1.0000 -0.456095133
O   O2        1.0  0.22662  0.33032  0.24650  1.0000 -0.456095133
O   O3        1.0  0.08382  0.98012  0.75350  1.0000 -0.456095133
O   O4        1.0  0.66618  0.91968  0.39630  1.0000 -0.456095133
O   O5        1.0  0.08032  0.33382  0.60370  1.0000 -0.456095133
O   O6        1.0  0.66968  0.77338  0.75350  1.0000 -0.456095133
O   O7        1.0  0.01988  0.91618  0.24650  1.0000 -0.456095133
O   O8        1.0  0.52338  0.26988  0.60370  1.0000 -0.456095133
O   O9        1.0  0.01988  0.77338  0.10370  1.0000 -0.456095133
O   O10       1.0  0.52338  0.91968  0.25350  1.0000 -0.456095133
O   O11       1.0  0.66618  0.26988  0.74650  1.0000 -0.456095133
O   O12       1.0  0.08382  0.33032  0.10370  1.0000 -0.456095133
O   O13       1.0  0.66968  0.91618  0.89630  1.0000 -0.456095133
O   O14       1.0  0.08032  0.47662  0.74650  1.0000 -0.456095133
O   O15       1.0  0.73012  0.33382  0.25350  1.0000 -0.456095133
O   O16       1.0  0.22662  0.98012  0.89630  1.0000 -0.456095133
O   O17       1.0  0.66470  0.46570  0.30520  1.0000 -0.3278232698
O   O18       1.0  0.21570  0.41050  0.30100  1.0000 -0.3278232698
O   O19       1.0  0.10950  0.91470  0.69900  1.0000 -0.3196192899
O   O20       1.0  0.64050  0.83950  0.30520  1.0000 -0.3196192899
O   O21       1.0  0.16050  0.35950  0.69480  1.0000 -0.3196192899
O   O22       1.0  0.58950  0.78430  0.69900  1.0000 -0.3196192899
O   O23       1.0  0.08530  0.89050  0.30100  1.0000 -0.3196192899
O   O24       1.0  0.53430  0.33530  0.69480  1.0000 -0.3278232698
O   O25       1.0  0.08530  0.78430  0.19480  1.0000 -0.3196192899
O   O26       1.0  0.53430  0.83950  0.19900  1.0000 -0.3196192899
O   O27       1.0  0.64050  0.33530  0.80100  1.0000 -0.3278232698
O   O28       1.0  0.10950  0.41050  0.19480  1.0000 -0.3278232698
O   O29       1.0  0.58950  0.89050  0.80520  1.0000 -0.3196192899
O   O30       1.0  0.16050  0.46570  0.80100  1.0000 -0.3196192899
O   O31       1.0  0.66470  0.35950  0.19900  1.0000 -0.3278232698
O   O32       1.0  0.21570  0.91470  0.80520  1.0000 -0.3196192899
O   O33       1.0  0.69383  0.56393  0.27390  1.0000 -0.4503471113
O   O34       1.0  0.31393  0.54003  0.37010  1.0000 -0.4503471113
O   O35       1.0  0.16993  0.94383  0.62990  1.0000 -0.4503471113
O   O36       1.0  0.58007  0.70997  0.27390  1.0000 -0.4503471113
O   O37       1.0  0.29003  0.41993  0.72610  1.0000 -0.4503471113
O   O38       1.0  0.45997  0.68607  0.62990  1.0000 -0.4503471113
O   O39       1.0  0.05617  0.83007  0.37010  1.0000 -0.4503471113
O   O40       1.0  0.43607  0.30617  0.72610  1.0000 -0.4503471113
O   O41       1.0  0.05617  0.68607  0.22610  1.0000 -0.4503471113
O   O42       1.0  0.43607  0.70997  0.12990  1.0000 -0.4503471113
O   O43       1.0  0.58007  0.30617  0.87010  1.0000 -0.4503471113
O   O44       1.0  0.16993  0.54003  0.22610  1.0000 -0.4503471113
O   O45       1.0  0.45997  0.83007  0.77390  1.0000 -0.4503471113
O   O46       1.0  0.29003  0.56393  0.87010  1.0000 -0.4503471113
O   O47       1.0  0.69383  0.41993  0.12990  1.0000 -0.4503471113
O   O48       1.0  0.31393  0.94383  0.77390  1.0000 -0.4503471113
O   O49       1.0  0.64953  0.50363  0.25390  1.0000 -0.3196192899
O   O50       1.0  0.25363  0.49973  0.35410  1.0000 -0.3196192899
O   O51       1.0  0.14563  0.89953  0.64590  1.0000 -0.3196192899
O   O52       1.0  0.60437  0.75027  0.25390  1.0000 -0.3196192899
O   O53       1.0  0.24973  0.39563  0.74610  1.0000 -0.3196192899
O   O54       1.0  0.50027  0.74637  0.64590  1.0000 -0.3196192899
O   O55       1.0  0.10047  0.85437  0.35410  1.0000 -0.3196192899
O   O56       1.0  0.49637  0.35047  0.74610  1.0000 -0.3196192899
O   O57       1.0  0.10047  0.74637  0.24610  1.0000 -0.3196192899
O   O58       1.0  0.49637  0.75027  0.14590  1.0000 -0.3196192899
O   O59       1.0  0.60437  0.35047  0.85410  1.0000 -0.3196192899
O   O60       1.0  0.14563  0.49973  0.24610  1.0000 -0.3196192899
O   O61       1.0  0.50027  0.85437  0.75390  1.0000 -0.3196192899
O   O62       1.0  0.24973  0.50363  0.85410  1.0000 -0.3196192899
O   O63       1.0  0.64953  0.39563  0.14590  1.0000 -0.3196192899
O   O64       1.0  0.25363  0.89953  0.75390  1.0000 -0.3196192899
O   O65       1.0  0.38340  0.61420  0.41480  1.0000 -0.4503471113
O   O66       1.0  0.36420  0.44940  0.73080  1.0000 -0.4503471113
O   O67       1.0  0.71860  0.63340  0.26920  1.0000 -0.4503471113
O   O68       1.0  0.03140  0.80060  0.41480  1.0000 -0.4503471113
O   O69       1.0  0.19940  0.96860  0.58520  1.0000 -0.4503471113
O   O70       1.0  0.55060  0.63580  0.26920  1.0000 -0.4503471113
O   O71       1.0  0.36660  0.28140  0.73080  1.0000 -0.4503471113
O   O72       1.0  0.38580  0.61660  0.58520  1.0000 -0.4503471113
O   O73       1.0  0.36660  0.63580  0.08520  1.0000 -0.4503471113
O   O74       1.0  0.38580  0.80060  0.76920  1.0000 -0.4503471113
O   O75       1.0  0.03140  0.61660  0.23080  1.0000 -0.4503471113
O   O76       1.0  0.71860  0.44940  0.08520  1.0000 -0.4503471113
O   O77       1.0  0.55060  0.28140  0.91480  1.0000 -0.4503471113
O   O78       1.0  0.19940  0.61420  0.23080  1.0000 -0.4503471113
O   O79       1.0  0.38340  0.96860  0.76920  1.0000 -0.4503471113
O   O80       1.0  0.36420  0.63340  0.91480  1.0000 -0.4503471113
O   O81       1.0  0.43480  0.69400  0.48720  1.0000 -0.2998697242
O   O82       1.0  0.44400  0.45680  0.75920  1.0000 -0.2998697242
O   O83       1.0  0.69760  0.68480  0.24080  1.0000 -0.2998697242
O   O84       1.0  0.05240  0.79320  0.48720  1.0000 -0.2998697242
O   O85       1.0  0.20680  0.94760  0.51280  1.0000 -0.2998697242
O   O86       1.0  0.54320  0.55600  0.24080  1.0000 -0.2998697242
O   O87       1.0  0.31520  0.30240  0.75920  1.0000 -0.2998697242
O   O88       1.0  0.30600  0.56520  0.51280  1.0000 -0.2998697242
O   O89       1.0  0.31520  0.55600  0.01280  1.0000 -0.2998697242
O   O90       1.0  0.30600  0.79320  0.74080  1.0000 -0.2998697242
O   O91       1.0  0.05240  0.56520  0.25920  1.0000 -0.2998697242
O   O92       1.0  0.69760  0.45680  0.01280  1.0000 -0.2998697242
O   O93       1.0  0.54320  0.30240  0.98720  1.0000 -0.2998697242
O   O94       1.0  0.20680  0.69400  0.25920  1.0000 -0.2998697242
O   O95       1.0  0.43480  0.94760  0.74080  1.0000 -0.2998697242
O   O96       1.0  0.44400  0.68480  0.98720  1.0000 -0.2998697242
O   O97       1.0  0.59204  0.70604  0.54340  1.0000 -0.4427562568
O   O98       1.0  0.45604  0.41264  0.61400  1.0000 -0.4427562568
O   O99       1.0  0.79864  0.84204  0.38600  1.0000 -0.4427562568
O   O100      1.0  0.95136  0.83736  0.54340  1.0000 -0.4427562568
O   O101      1.0  0.16264  0.04864  0.45660  1.0000 -0.4427562568
O   O102      1.0  0.58736  0.54396  0.38600  1.0000 -0.4427562568
O   O103      1.0  0.15796  0.20136  0.61400  1.0000 -0.4427562568
O   O104      1.0  0.29396  0.40796  0.45660  1.0000 -0.4427562568
O   O105      1.0  0.15796  0.54396  0.95660  1.0000 -0.4427562568
O   O106      1.0  0.29396  0.83736  0.88600  1.0000 -0.4427562568
O   O107      1.0  0.95136  0.40796  0.11400  1.0000 -0.4427562568
O   O108      1.0  0.79864  0.41264  0.95660  1.0000 -0.4427562568
O   O109      1.0  0.58736  0.20136  0.04340  1.0000 -0.4427562568
O   O110      1.0  0.16264  0.70604  0.11400  1.0000 -0.4427562568
O   O111      1.0  0.59204  0.04864  0.88600  1.0000 -0.4427562568
O   O112      1.0  0.45604  0.84204  0.04340  1.0000 -0.4427562568
O   O113      1.0  0.52380  0.73460  0.54240  1.0000 -0.3196192899
O   O114      1.0  0.48460  0.44220  0.71080  1.0000 -0.3196192899
O   O115      1.0  0.73140  0.77380  0.28920  1.0000 -0.3196192899
O   O116      1.0  0.01860  0.80780  0.54240  1.0000 -0.3196192899
O   O117      1.0  0.19220  0.98140  0.45760  1.0000 -0.3196192899
O   O118      1.0  0.55780  0.51540  0.28920  1.0000 -0.3196192899
O   O119      1.0  0.22620  0.26860  0.71080  1.0000 -0.3196192899
O   O120      1.0  0.26540  0.47620  0.45760  1.0000 -0.3196192899
O   O121      1.0  0.22620  0.51540  0.95760  1.0000 -0.3196192899
O   O122      1.0  0.26540  0.80780  0.78920  1.0000 -0.3196192899
O   O123      1.0  0.01860  0.47620  0.21080  1.0000 -0.3196192899
O   O124      1.0  0.73140  0.44220  0.95760  1.0000 -0.3196192899
O   O125      1.0  0.55780  0.26860  0.04240  1.0000 -0.3196192899
O   O126      1.0  0.19220  0.73460  0.21080  1.0000 -0.3196192899
O   O127      1.0  0.52380  0.98140  0.78920  1.0000 -0.3196192899
O   O128      1.0  0.48460  0.77380  0.04240  1.0000 -0.3196192899
O   O129      1.0  0.78355  0.47455  0.49520  1.0000 -0.4503471113
O   O130      1.0  0.22455  0.22935  0.19100  1.0000 -0.4427562568
O   O131      1.0  0.03835  0.03355  0.80900  1.0000 -0.4427562568
O   O132      1.0  0.71165  0.02065  0.49520  1.0000 -0.4427562568
O   O133      1.0  0.97935  0.28835  0.50480  1.0000 -0.4503471113
O   O134      1.0  0.77065  0.77545  0.80900  1.0000 -0.4427562568
O   O135      1.0  0.96645  0.96165  0.19100  1.0000 -0.4503471113
O   O136      1.0  0.52545  0.21645  0.50480  1.0000 -0.4427562568
O   O137      1.0  0.96645  0.77545  0.00480  1.0000 -0.4427562568
O   O138      1.0  0.52545  0.02065  0.30900  1.0000 -0.4427562568
O   O139      1.0  0.71165  0.21645  0.69100  1.0000 -0.4427562568
O   O140      1.0  0.03835  0.22935  0.00480  1.0000 -0.4427562568
O   O141      1.0  0.77065  0.96165  0.99520  1.0000 -0.4503471113
O   O142      1.0  0.97935  0.47455  0.69100  1.0000 -0.4503471113
O   O143      1.0  0.78355  0.28835  0.30900  1.0000 -0.4503471113
O   O144      1.0  0.22455  0.03355  0.99520  1.0000 -0.4427562568
O   O145      1.0  0.80800  0.43220  0.53620  1.0000 -0.3395542103
O   O146      1.0  0.18220  0.14600  0.12420  1.0000 -0.3395542103
O   O147      1.0  0.02180  0.05800  0.87580  1.0000 -0.3395542103
O   O148      1.0  0.72820  0.10400  0.53620  1.0000 -0.3395542103
O   O149      1.0  0.89600  0.27180  0.46380  1.0000 -0.3395542103
O   O150      1.0  0.85400  0.81780  0.87580  1.0000 -0.3278232698
O   O151      1.0  0.94200  0.97820  0.12420  1.0000 -0.3278232698
O   O152      1.0  0.56780  0.19200  0.46380  1.0000 -0.3395542103
O   O153      1.0  0.94200  0.81780  0.96380  1.0000 -0.3278232698
O   O154      1.0  0.56780  0.10400  0.37580  1.0000 -0.3395542103
O   O155      1.0  0.72820  0.19200  0.62420  1.0000 -0.3395542103
O   O156      1.0  0.02180  0.14600  0.96380  1.0000 -0.3395542103
O   O157      1.0  0.85400  0.97820  0.03620  1.0000 -0.3278232698
O   O158      1.0  0.89600  0.43220  0.62420  1.0000 -0.3395542103
O   O159      1.0  0.80800  0.27180  0.37580  1.0000 -0.3395542103
O   O160      1.0  0.18220  0.05800  0.03620  1.0000 -0.3395542103
O   O161      1.0  0.90271  0.56681  0.52930  1.0000 -0.4109451175
O   O162      1.0  0.31681  0.28751  0.16410  1.0000 -0.4109451175
O   O163      1.0  0.12341  0.15271  0.83590  1.0000 -0.4109451175
O   O164      1.0  0.62659  0.96249  0.52930  1.0000 -0.4109451175
O   O165      1.0  0.03751  0.37341  0.47070  1.0000 -0.4109451175
O   O166      1.0  0.71249  0.68319  0.83590  1.0000 -0.4109451175
O   O167      1.0  0.84729  0.87659  0.16410  1.0000 -0.4109451175
O   O168      1.0  0.43319  0.09729  0.47070  1.0000 -0.4109451175
O   O169      1.0  0.84729  0.68319  0.97070  1.0000 -0.4109451175
O   O170      1.0  0.43319  0.96249  0.33590  1.0000 -0.4109451175
O   O171      1.0  0.62659  0.09729  0.66410  1.0000 -0.4109451175
O   O172      1.0  0.12341  0.28751  0.97070  1.0000 -0.4109451175
O   O173      1.0  0.71249  0.87659  0.02930  1.0000 -0.4109451175
O   O174      1.0  0.03751  0.56681  0.66410  1.0000 -0.4109451175
O   O175      1.0  0.90271  0.37341  0.33590  1.0000 -0.4109451175
O   O176      1.0  0.31681  0.15271  0.02930  1.0000 -0.4109451175
O   O177      1.0  0.94483  0.53893  0.48890  1.0000 -0.3278232698
O   O178      1.0  0.28893  0.30003  0.09410  1.0000 -0.3278232698
O   O179      1.0  0.20593  0.19483  0.90590  1.0000 -0.3278232698
O   O180      1.0  0.54407  0.94997  0.48890  1.0000 -0.3278232698
O   O181      1.0  0.05003  0.45593  0.51110  1.0000 -0.3278232698
O   O182      1.0  0.69997  0.71107  0.90590  1.0000 -0.3278232698
O   O183      1.0  0.80517  0.79407  0.09410  1.0000 -0.3278232698
O   O184      1.0  0.46107  0.05517  0.51110  1.0000 -0.3278232698
O   O185      1.0  0.80517  0.71107  0.01110  1.0000 -0.3278232698
O   O186      1.0  0.46107  0.94997  0.40590  1.0000 -0.3278232698
O   O187      1.0  0.54407  0.05517  0.59410  1.0000 -0.3278232698
O   O188      1.0  0.20593  0.30003  0.01110  1.0000 -0.3278232698
O   O189      1.0  0.69997  0.79407  0.98890  1.0000 -0.3278232698
O   O190      1.0  0.05003  0.53893  0.59410  1.0000 -0.3278232698
O   O191      1.0  0.94483  0.45593  0.40590  1.0000 -0.3278232698
O   O192      1.0  0.28893  0.19483  0.98890  1.0000 -0.3278232698
O   O193      1.0  0.44947  0.46757  0.37290  1.0000 -0.4503471113
O   O194      1.0  0.21757  0.34467  0.51810  1.0000 -0.4503471113
O   O195      1.0  0.82657  0.69947  0.48190  1.0000 -0.4503471113
O   O196      1.0  0.92343  0.90533  0.37290  1.0000 -0.4503471113
O   O197      1.0  0.09467  0.07657  0.62710  1.0000 -0.4503471113
O   O198      1.0  0.65533  0.78243  0.48190  1.0000 -0.4503471113
O   O199      1.0  0.30053  0.17343  0.51810  1.0000 -0.4503471113
O   O200      1.0  0.53243  0.55053  0.62710  1.0000 -0.4503471113
O   O201      1.0  0.30053  0.78243  0.12710  1.0000 -0.4503471113
O   O202      1.0  0.53243  0.90533  0.98190  1.0000 -0.4503471113
O   O203      1.0  0.92343  0.55053  0.01810  1.0000 -0.4503471113
O   O204      1.0  0.82657  0.34467  0.12710  1.0000 -0.4503471113
O   O205      1.0  0.65533  0.17343  0.87290  1.0000 -0.4503471113
O   O206      1.0  0.09467  0.46757  0.01810  1.0000 -0.4503471113
O   O207      1.0  0.44947  0.07657  0.98190  1.0000 -0.4503471113
O   O208      1.0  0.21757  0.69947  0.87290  1.0000 -0.4503471113
O   O209      1.0  0.50930  0.45470  0.44620  1.0000 -0.3395542103
O   O210      1.0  0.20470  0.25850  0.44540  1.0000 -0.3395542103
O   O211      1.0  0.81310  0.75930  0.55460  1.0000 -0.3395542103
O   O212      1.0  0.93690  0.99150  0.44620  1.0000 -0.3395542103
O   O213      1.0  0.00850  0.06310  0.55380  1.0000 -0.3395542103
O   O214      1.0  0.74150  0.79530  0.55460  1.0000 -0.3395542103
O   O215      1.0  0.24070  0.18690  0.44540  1.0000 -0.3395542103
O   O216      1.0  0.54530  0.49070  0.55380  1.0000 -0.3395542103
O   O217      1.0  0.24070  0.79530  0.05380  1.0000 -0.3395542103
O   O218      1.0  0.54530  0.99150  0.05460  1.0000 -0.3395542103
O   O219      1.0  0.93690  0.49070  0.94540  1.0000 -0.3395542103
O   O220      1.0  0.81310  0.25850  0.05380  1.0000 -0.3395542103
O   O221      1.0  0.74150  0.18690  0.94620  1.0000 -0.3395542103
O   O222      1.0  0.00850  0.45470  0.94540  1.0000 -0.3395542103
O   O223      1.0  0.50930  0.06310  0.05460  1.0000 -0.3395542103
O   O224      1.0  0.20470  0.75930  0.94620  1.0000 -0.3395542103
O   O225      1.0  0.39214  0.46554  0.26940  1.0000 -0.4427562568
O   O226      1.0  0.21554  0.44614  0.57340  1.0000 -0.4427562568
O   O227      1.0  0.87274  0.64214  0.42660  1.0000 -0.4427562568
O   O228      1.0  0.87726  0.80386  0.26940  1.0000 -0.4427562568
O   O229      1.0  0.19614  0.12274  0.73060  1.0000 -0.4427562568
O   O230      1.0  0.55386  0.78446  0.42660  1.0000 -0.4427562568
O   O231      1.0  0.35786  0.12726  0.57340  1.0000 -0.4427562568
O   O232      1.0  0.53446  0.60786  0.73060  1.0000 -0.4427562568
O   O233      1.0  0.35786  0.78446  0.23060  1.0000 -0.4427562568
O   O234      1.0  0.53446  0.80386  0.92660  1.0000 -0.4427562568
O   O235      1.0  0.87726  0.60786  0.07340  1.0000 -0.4427562568
O   O236      1.0  0.87274  0.44614  0.23060  1.0000 -0.4427562568
O   O237      1.0  0.55386  0.12726  0.76940  1.0000 -0.4427562568
O   O238      1.0  0.19614  0.46554  0.07340  1.0000 -0.4427562568
O   O239      1.0  0.39214  0.12274  0.92660  1.0000 -0.4427562568
O   O240      1.0  0.21554  0.64214  0.76940  1.0000 -0.4427562568
O   O241      1.0  0.34702  0.42822  0.16580  1.0000 -0.3110137698
O   O242      1.0  0.17822  0.51242  0.58120  1.0000 -0.3110137698
O   O243      1.0  0.93122  0.59702  0.41880  1.0000 -0.3110137698
O   O244      1.0  0.81878  0.73758  0.16580  1.0000 -0.3110137698
O   O245      1.0  0.26242  0.18122  0.83420  1.0000 -0.3110137698
O   O246      1.0  0.48758  0.82178  0.41880  1.0000 -0.3110137698
O   O247      1.0  0.40298  0.06878  0.58120  1.0000 -0.3110137698
O   O248      1.0  0.57178  0.65298  0.83420  1.0000 -0.3110137698
O   O249      1.0  0.40298  0.82178  0.33420  1.0000 -0.3110137698
O   O250      1.0  0.57178  0.73758  0.91880  1.0000 -0.3110137698
O   O251      1.0  0.81878  0.65298  0.08120  1.0000 -0.3110137698
O   O252      1.0  0.93122  0.51242  0.33420  1.0000 -0.3110137698
O   O253      1.0  0.48758  0.06878  0.66580  1.0000 -0.3110137698
O   O254      1.0  0.26242  0.42822  0.08120  1.0000 -0.3110137698
O   O255      1.0  0.34702  0.18122  0.91880  1.0000 -0.3110137698
O   O256      1.0  0.17822  0.59702  0.66580  1.0000 -0.3110137698
O   O257      1.0  0.68505  0.70825  0.57320  1.0000 -0.4255537205
O   O258      1.0  0.45825  0.38505  0.52320  1.0000 -0.4255537205
O   O259      1.0  0.86185  0.93505  0.47680  1.0000 -0.4255537205
O   O260      1.0  0.88815  0.86495  0.57320  1.0000 -0.4255537205
O   O261      1.0  0.13505  0.11185  0.42680  1.0000 -0.4255537205
O   O262      1.0  0.61495  0.54175  0.47680  1.0000 -0.4255537205
O   O263      1.0  0.06495  0.13815  0.52320  1.0000 -0.4255537205
O   O264      1.0  0.29175  0.31495  0.42680  1.0000 -0.4255537205
O   O265      1.0  0.06495  0.54175  0.92680  1.0000 -0.4255537205
O   O266      1.0  0.29175  0.86495  0.97680  1.0000 -0.4255537205
O   O267      1.0  0.88815  0.31495  0.02320  1.0000 -0.4255537205
O   O268      1.0  0.86185  0.38505  0.92680  1.0000 -0.4255537205
O   O269      1.0  0.61495  0.13815  0.07320  1.0000 -0.4255537205
O   O270      1.0  0.13505  0.70825  0.02320  1.0000 -0.4255537205
O   O271      1.0  0.68505  0.11185  0.97680  1.0000 -0.4255537205
O   O272      1.0  0.45825  0.93505  0.07320  1.0000 -0.4255537205
O   O273      1.0  0.76870  0.74210  0.62720  1.0000 -0.3196192899
O   O274      1.0  0.49210  0.36490  0.47340  1.0000 -0.3196192899
O   O275      1.0  0.89150  0.01870  0.52660  1.0000 -0.3196192899
O   O276      1.0  0.85850  0.88510  0.62720  1.0000 -0.3196192899
O   O277      1.0  0.11490  0.14150  0.37280  1.0000 -0.3196192899
O   O278      1.0  0.63510  0.50790  0.52660  1.0000 -0.3196192899
O   O279      1.0  0.98130  0.10850  0.47340  1.0000 -0.3196192899
O   O280      1.0  0.25790  0.23130  0.37280  1.0000 -0.3196192899
O   O281      1.0  0.98130  0.50790  0.87280  1.0000 -0.3196192899
O   O282      1.0  0.25790  0.88510  0.02660  1.0000 -0.3196192899
O   O283      1.0  0.85850  0.23130  0.97340  1.0000 -0.3196192899
O   O284      1.0  0.89150  0.36490  0.87280  1.0000 -0.3196192899
O   O285      1.0  0.63510  0.10850  0.12720  1.0000 -0.3196192899
O   O286      1.0  0.11490  0.74210  0.97340  1.0000 -0.3196192899
O   O287      1.0  0.76870  0.14150  0.02660  1.0000 -0.3196192899
O   O288      1.0  0.49210  0.01870  0.12720  1.0000 -0.3196192899
O   O289      1.0  0.86052  0.63182  0.58570  1.0000 -0.456095133
O   O290      1.0  0.38182  0.29612  0.27130  1.0000 -0.456095133
O   O291      1.0  0.02482  0.11052  0.72870  1.0000 -0.456095133
O   O292      1.0  0.72518  0.95388  0.58570  1.0000 -0.456095133
O   O293      1.0  0.04612  0.27482  0.41430  1.0000 -0.456095133
O   O294      1.0  0.70388  0.61818  0.72870  1.0000 -0.456095133
O   O295      1.0  0.88948  0.97518  0.27130  1.0000 -0.456095133
O   O296      1.0  0.36818  0.13948  0.41430  1.0000 -0.456095133
O   O297      1.0  0.88948  0.61818  0.91430  1.0000 -0.456095133
O   O298      1.0  0.36818  0.95388  0.22870  1.0000 -0.456095133
O   O299      1.0  0.72518  0.13948  0.77130  1.0000 -0.456095133
O   O300      1.0  0.02482  0.29612  0.91430  1.0000 -0.456095133
O   O301      1.0  0.70388  0.97518  0.08570  1.0000 -0.456095133
O   O302      1.0  0.04612  0.63182  0.77130  1.0000 -0.456095133
O   O303      1.0  0.86052  0.27482  0.22870  1.0000 -0.456095133
O   O304      1.0  0.38182  0.11052  0.08570  1.0000 -0.456095133
O   O305      1.0  0.84400  0.70830  0.63210  1.0000 -0.2998697242
O   O306      1.0  0.45830  0.32620  0.36430  1.0000 -0.2998697242
O   O307      1.0  0.96190  0.09400  0.63570  1.0000 -0.2998697242
O   O308      1.0  0.78810  0.92380  0.63210  1.0000 -0.2998697242
O   O309      1.0  0.07620  0.21190  0.36790  1.0000 -0.2998697242
O   O310      1.0  0.67380  0.54170  0.63570  1.0000 -0.2998697242
O   O311      1.0  0.90600  0.03810  0.36430  1.0000 -0.2998697242
O   O312      1.0  0.29170  0.15600  0.36790  1.0000 -0.2998697242
O   O313      1.0  0.90600  0.54170  0.86790  1.0000 -0.2998697242
O   O314      1.0  0.29170  0.92380  0.13570  1.0000 -0.2998697242
O   O315      1.0  0.78810  0.15600  0.86430  1.0000 -0.2998697242
O   O316      1.0  0.96190  0.32620  0.86790  1.0000 -0.2998697242
O   O317      1.0  0.67380  0.03810  0.13210  1.0000 -0.2998697242
O   O318      1.0  0.07620  0.70830  0.86430  1.0000 -0.2998697242
O   O319      1.0  0.84400  0.21190  0.13570  1.0000 -0.2998697242
O   O320      1.0  0.45830  0.09400  0.13210  1.0000 -0.2998697242
