# DDEC6 charges by PACMAN v1.1 (https://github.com/mtap-research/PACMAN-charge/)
data_2008[Zn][srs]3[ASR]11
_chemical_formula_sum              "Zn24 H192 C288 I48 N96"
_cell_length_a       13.8164
_cell_length_b       27.9987
_cell_length_c       44.1589
_cell_angle_alpha    90
_cell_angle_beta     90
_cell_angle_gamma    90

_symmetry_space_group_name_H-M    "P 1"
_symmetry_Int_Tables_number       1

loop_
  _symmetry_equiv_pos_as_xyz
  'x, y, z'

loop_
  _atom_site_type_symbol
  _atom_site_label
  _atom_site_symmetry_multiplicity
  _atom_site_fract_x
  _atom_site_fract_y
  _atom_site_fract_z
  _atom_site_occupancy
  _atom_site_charge
Zn  Zn1       1.0  0.86112  0.45206  0.91065  1.0000 0.4520349916
Zn  Zn2       1.0  0.13888  0.04794  0.41065  1.0000 0.4520349916
Zn  Zn3       1.0  0.36112  0.54794  0.58935  1.0000 0.4520349916
Zn  Zn4       1.0  0.63888  0.95206  0.08935  1.0000 0.46140461
Zn  Zn5       1.0  0.81127  0.26149  0.17895  1.0000 0.4664564513
Zn  Zn6       1.0  0.18873  0.23851  0.67895  1.0000 0.4664564513
Zn  Zn7       1.0  0.31127  0.73851  0.32105  1.0000 0.4664564513
Zn  Zn8       1.0  0.68873  0.76149  0.82105  1.0000 0.4664564513
Zn  Zn9       1.0  0.61851  0.47549  0.08659  1.0000 0.4664564513
Zn  Zn10      1.0  0.38149  0.02451  0.58659  1.0000 0.46140461
Zn  Zn11      1.0  0.11851  0.52451  0.41341  1.0000 0.46140461
Zn  Zn12      1.0  0.88149  0.97549  0.91341  1.0000 0.46140461
Zn  Zn13      1.0  0.13888  0.54794  0.08935  1.0000 0.4520349916
Zn  Zn14      1.0  0.86112  0.95206  0.58935  1.0000 0.4520349916
Zn  Zn15      1.0  0.63888  0.45206  0.41065  1.0000 0.46140461
Zn  Zn16      1.0  0.36112  0.04794  0.91065  1.0000 0.4520349916
Zn  Zn17      1.0  0.18873  0.73851  0.82105  1.0000 0.46140461
Zn  Zn18      1.0  0.81127  0.76149  0.32105  1.0000 0.4664564513
Zn  Zn19      1.0  0.68873  0.26149  0.67895  1.0000 0.4664564513
Zn  Zn20      1.0  0.31127  0.23851  0.17895  1.0000 0.4664564513
Zn  Zn21      1.0  0.38149  0.52451  0.91341  1.0000 0.46140461
Zn  Zn22      1.0  0.61851  0.97549  0.41341  1.0000 0.4664564513
Zn  Zn23      1.0  0.88149  0.47549  0.58659  1.0000 0.46140461
Zn  Zn24      1.0  0.11851  0.02451  0.08659  1.0000 0.46140461
H   H1        1.0  0.78080  0.31350  0.12180  1.0000 0.1090698999
H   H2        1.0  0.21920  0.18650  0.62180  1.0000 0.1090698999
H   H3        1.0  0.28080  0.68650  0.37820  1.0000 0.1090698999
H   H4        1.0  0.71920  0.81350  0.87820  1.0000 0.1090698999
H   H5        1.0  0.86590  0.35250  0.08390  1.0000 0.1316752723
H   H6        1.0  0.13410  0.14750  0.58390  1.0000 0.1316752723
H   H7        1.0  0.36590  0.64750  0.41610  1.0000 0.1316752723
H   H8        1.0  0.63410  0.85250  0.91610  1.0000 0.1316752723
H   H9        1.0  0.01930  0.29010  0.16770  1.0000 0.1090698999
H   H10       1.0  0.98070  0.20990  0.66770  1.0000 0.1090698999
H   H11       1.0  0.51930  0.70990  0.33230  1.0000 0.1090698999
H   H12       1.0  0.48070  0.79010  0.83230  1.0000 0.1090698999
H   H13       1.0  0.11200  0.33060  0.13150  1.0000 0.1316752723
H   H14       1.0  0.88800  0.16940  0.63150  1.0000 0.1316752723
H   H15       1.0  0.61200  0.66940  0.36850  1.0000 0.1316752723
H   H16       1.0  0.38800  0.83060  0.86850  1.0000 0.1316752723
H   H17       1.0  0.46000  0.42460  0.12000  1.0000 0.1090698999
H   H18       1.0  0.54000  0.07540  0.62000  1.0000 0.1090698999
H   H19       1.0  0.96000  0.57540  0.38000  1.0000 0.1090698999
H   H20       1.0  0.04000  0.92460  0.88000  1.0000 0.1090698999
H   H21       1.0  0.30060  0.40020  0.11340  1.0000 0.1316752723
H   H22       1.0  0.69940  0.09980  0.61340  1.0000 0.1316752723
H   H23       1.0  0.80060  0.59980  0.38660  1.0000 0.1316752723
H   H24       1.0  0.19940  0.90020  0.88660  1.0000 0.1316752723
H   H25       1.0  0.48030  0.46370  0.03450  1.0000 0.1090698999
H   H26       1.0  0.51970  0.03630  0.53450  1.0000 0.1090698999
H   H27       1.0  0.98030  0.53630  0.46550  1.0000 0.1090698999
H   H28       1.0  0.01970  0.96370  0.96550  1.0000 0.1090698999
H   H29       1.0  0.32320  0.43690  0.02510  1.0000 0.1316752723
H   H30       1.0  0.67680  0.06310  0.52510  1.0000 0.1316752723
H   H31       1.0  0.82320  0.56310  0.47490  1.0000 0.1316752723
H   H32       1.0  0.17680  0.93690  0.97490  1.0000 0.1316752723
H   H33       1.0  0.04790  0.47240  0.94190  1.0000 0.1090698999
H   H34       1.0  0.95210  0.02760  0.44190  1.0000 0.1090698999
H   H35       1.0  0.54790  0.52760  0.55810  1.0000 0.1090698999
H   H36       1.0  0.45210  0.97240  0.05810  1.0000 0.1090698999
H   H37       1.0  0.12680  0.45170  0.98660  1.0000 0.1316752723
H   H38       1.0  0.87320  0.04830  0.48660  1.0000 0.1316752723
H   H39       1.0  0.62680  0.54830  0.51340  1.0000 0.1316752723
H   H40       1.0  0.37320  0.95170  0.01340  1.0000 0.1316752723
H   H41       1.0  0.79850  0.42680  0.97460  1.0000 0.1090698999
H   H42       1.0  0.20150  0.07320  0.47460  1.0000 0.1090698999
H   H43       1.0  0.29850  0.57320  0.52540  1.0000 0.1090698999
H   H44       1.0  0.70150  0.92680  0.02540  1.0000 0.1090698999
H   H45       1.0  0.87080  0.40580  0.02000  1.0000 0.1381334511
H   H46       1.0  0.12920  0.09420  0.52000  1.0000 0.1381334511
H   H47       1.0  0.37080  0.59420  0.48000  1.0000 0.1381334511
H   H48       1.0  0.62920  0.90580  0.98000  1.0000 0.1381334511
H   H49       1.0  0.87950  0.34680  0.93000  1.0000 0.1090698999
H   H50       1.0  0.12050  0.15320  0.43000  1.0000 0.1090698999
H   H51       1.0  0.37950  0.65320  0.57000  1.0000 0.1090698999
H   H52       1.0  0.62050  0.84680  0.07000  1.0000 0.1090698999
H   H53       1.0  0.91110  0.27310  0.90850  1.0000 0.1381334511
H   H54       1.0  0.08890  0.22690  0.40850  1.0000 0.1381334511
H   H55       1.0  0.41110  0.72690  0.59150  1.0000 0.1381334511
H   H56       1.0  0.58890  0.77310  0.09150  1.0000 0.1381334511
H   H57       1.0  0.94250  0.41360  0.85390  1.0000 0.1013517628
H   H58       1.0  0.05750  0.08640  0.35390  1.0000 0.1013517628
H   H59       1.0  0.44250  0.58640  0.64610  1.0000 0.1013517628
H   H60       1.0  0.55750  0.91360  0.14610  1.0000 0.1013517628
H   H61       1.0  0.97050  0.34210  0.82950  1.0000 0.1316752723
H   H62       1.0  0.02950  0.15790  0.32950  1.0000 0.1316752723
H   H63       1.0  0.47050  0.65790  0.67050  1.0000 0.1316752723
H   H64       1.0  0.52950  0.84210  0.17050  1.0000 0.1316752723
H   H65       1.0  0.06730  0.29570  0.72170  1.0000 0.1013517628
H   H66       1.0  0.93270  0.20430  0.22170  1.0000 0.1013517628
H   H67       1.0  0.56730  0.70430  0.77830  1.0000 0.1013517628
H   H68       1.0  0.43270  0.79570  0.27830  1.0000 0.1013517628
H   H69       1.0  0.00230  0.28960  0.77050  1.0000 0.1316752723
H   H70       1.0  0.99770  0.21040  0.27050  1.0000 0.1316752723
H   H71       1.0  0.50230  0.71040  0.72950  1.0000 0.1316752723
H   H72       1.0  0.49770  0.78960  0.22950  1.0000 0.1316752723
H   H73       1.0  0.14190  0.16020  0.72210  1.0000 0.1090698999
H   H74       1.0  0.85810  0.33980  0.22210  1.0000 0.1090698999
H   H75       1.0  0.64190  0.83980  0.77790  1.0000 0.1090698999
H   H76       1.0  0.35810  0.66020  0.27790  1.0000 0.1090698999
H   H77       1.0  0.07350  0.14840  0.77010  1.0000 0.1381334511
H   H78       1.0  0.92650  0.35160  0.27010  1.0000 0.1381334511
H   H79       1.0  0.57350  0.85160  0.72990  1.0000 0.1381334511
H   H80       1.0  0.42650  0.64840  0.22990  1.0000 0.1381334511
H   H81       1.0  0.94600  0.01260  0.85350  1.0000 0.1013517628
H   H82       1.0  0.05400  0.48740  0.35350  1.0000 0.1013517628
H   H83       1.0  0.44600  0.98740  0.64650  1.0000 0.1013517628
H   H84       1.0  0.55400  0.51260  0.14650  1.0000 0.1013517628
H   H85       1.0  0.97600  0.08380  0.82840  1.0000 0.1316752723
H   H86       1.0  0.02400  0.41620  0.32840  1.0000 0.1316752723
H   H87       1.0  0.47600  0.91620  0.67160  1.0000 0.1316752723
H   H88       1.0  0.52400  0.58380  0.17160  1.0000 0.1316752723
H   H89       1.0  0.89020  0.08070  0.92930  1.0000 0.1090698999
H   H90       1.0  0.10980  0.41930  0.42930  1.0000 0.1090698999
H   H91       1.0  0.39020  0.91930  0.57070  1.0000 0.1090698999
H   H92       1.0  0.60980  0.58070  0.07070  1.0000 0.1090698999
H   H93       1.0  0.91380  0.15380  0.90620  1.0000 0.1316752723
H   H94       1.0  0.08620  0.34620  0.40620  1.0000 0.1316752723
H   H95       1.0  0.41380  0.84620  0.59380  1.0000 0.1316752723
H   H96       1.0  0.58620  0.65380  0.09380  1.0000 0.1316752723
H   H97       1.0  0.21920  0.68650  0.87820  1.0000 0.1090698999
H   H98       1.0  0.78080  0.81350  0.37820  1.0000 0.1090698999
H   H99       1.0  0.71920  0.31350  0.62180  1.0000 0.1090698999
H   H100      1.0  0.28080  0.18650  0.12180  1.0000 0.1090698999
H   H101      1.0  0.13410  0.64750  0.91610  1.0000 0.1316752723
H   H102      1.0  0.86590  0.85250  0.41610  1.0000 0.1316752723
H   H103      1.0  0.63410  0.35250  0.58390  1.0000 0.1316752723
H   H104      1.0  0.36590  0.14750  0.08390  1.0000 0.1316752723
H   H105      1.0  0.98070  0.70990  0.83230  1.0000 0.1090698999
H   H106      1.0  0.01930  0.79010  0.33230  1.0000 0.1090698999
H   H107      1.0  0.48070  0.29010  0.66770  1.0000 0.1090698999
H   H108      1.0  0.51930  0.20990  0.16770  1.0000 0.1090698999
H   H109      1.0  0.88800  0.66940  0.86850  1.0000 0.1316752723
H   H110      1.0  0.11200  0.83060  0.36850  1.0000 0.1316752723
H   H111      1.0  0.38800  0.33060  0.63150  1.0000 0.1316752723
H   H112      1.0  0.61200  0.16940  0.13150  1.0000 0.1316752723
H   H113      1.0  0.54000  0.57540  0.88000  1.0000 0.1090698999
H   H114      1.0  0.46000  0.92460  0.38000  1.0000 0.1090698999
H   H115      1.0  0.04000  0.42460  0.62000  1.0000 0.1090698999
H   H116      1.0  0.96000  0.07540  0.12000  1.0000 0.1090698999
H   H117      1.0  0.69940  0.59980  0.88660  1.0000 0.1316752723
H   H118      1.0  0.30060  0.90020  0.38660  1.0000 0.1316752723
H   H119      1.0  0.19940  0.40020  0.61340  1.0000 0.1316752723
H   H120      1.0  0.80060  0.09980  0.11340  1.0000 0.1316752723
H   H121      1.0  0.51970  0.53630  0.96550  1.0000 0.1090698999
H   H122      1.0  0.48030  0.96370  0.46550  1.0000 0.1090698999
H   H123      1.0  0.01970  0.46370  0.53450  1.0000 0.1090698999
H   H124      1.0  0.98030  0.03630  0.03450  1.0000 0.1090698999
H   H125      1.0  0.67680  0.56310  0.97490  1.0000 0.1316752723
H   H126      1.0  0.32320  0.93690  0.47490  1.0000 0.1316752723
H   H127      1.0  0.17680  0.43690  0.52510  1.0000 0.1316752723
H   H128      1.0  0.82320  0.06310  0.02510  1.0000 0.1316752723
H   H129      1.0  0.95210  0.52760  0.05810  1.0000 0.1090698999
H   H130      1.0  0.04790  0.97240  0.55810  1.0000 0.1090698999
H   H131      1.0  0.45210  0.47240  0.44190  1.0000 0.1090698999
H   H132      1.0  0.54790  0.02760  0.94190  1.0000 0.1090698999
H   H133      1.0  0.87320  0.54830  0.01340  1.0000 0.1316752723
H   H134      1.0  0.12680  0.95170  0.51340  1.0000 0.1316752723
H   H135      1.0  0.37320  0.45170  0.48660  1.0000 0.1316752723
H   H136      1.0  0.62680  0.04830  0.98660  1.0000 0.1316752723
H   H137      1.0  0.20150  0.57320  0.02540  1.0000 0.1090698999
H   H138      1.0  0.79850  0.92680  0.52540  1.0000 0.1090698999
H   H139      1.0  0.70150  0.42680  0.47460  1.0000 0.1090698999
H   H140      1.0  0.29850  0.07320  0.97460  1.0000 0.1090698999
H   H141      1.0  0.12920  0.59420  0.98000  1.0000 0.1381334511
H   H142      1.0  0.87080  0.90580  0.48000  1.0000 0.1381334511
H   H143      1.0  0.62920  0.40580  0.52000  1.0000 0.1381334511
H   H144      1.0  0.37080  0.09420  0.02000  1.0000 0.1381334511
H   H145      1.0  0.12050  0.65320  0.07000  1.0000 0.1090698999
H   H146      1.0  0.87950  0.84680  0.57000  1.0000 0.1090698999
H   H147      1.0  0.62050  0.34680  0.43000  1.0000 0.1090698999
H   H148      1.0  0.37950  0.15320  0.93000  1.0000 0.1090698999
H   H149      1.0  0.08890  0.72690  0.09150  1.0000 0.1381334511
H   H150      1.0  0.91110  0.77310  0.59150  1.0000 0.1381334511
H   H151      1.0  0.58890  0.27310  0.40850  1.0000 0.1381334511
H   H152      1.0  0.41110  0.22690  0.90850  1.0000 0.1381334511
H   H153      1.0  0.05750  0.58640  0.14610  1.0000 0.1013517628
H   H154      1.0  0.94250  0.91360  0.64610  1.0000 0.1013517628
H   H155      1.0  0.55750  0.41360  0.35390  1.0000 0.1013517628
H   H156      1.0  0.44250  0.08640  0.85390  1.0000 0.1013517628
H   H157      1.0  0.02950  0.65790  0.17050  1.0000 0.1316752723
H   H158      1.0  0.97050  0.84210  0.67050  1.0000 0.1316752723
H   H159      1.0  0.52950  0.34210  0.32950  1.0000 0.1316752723
H   H160      1.0  0.47050  0.15790  0.82950  1.0000 0.1316752723
H   H161      1.0  0.93270  0.70430  0.27830  1.0000 0.1013517628
H   H162      1.0  0.06730  0.79570  0.77830  1.0000 0.1013517628
H   H163      1.0  0.43270  0.29570  0.22170  1.0000 0.1013517628
H   H164      1.0  0.56730  0.20430  0.72170  1.0000 0.1013517628
H   H165      1.0  0.99770  0.71040  0.22950  1.0000 0.1316752723
H   H166      1.0  0.00230  0.78960  0.72950  1.0000 0.1316752723
H   H167      1.0  0.49770  0.28960  0.27050  1.0000 0.1316752723
H   H168      1.0  0.50230  0.21040  0.77050  1.0000 0.1316752723
H   H169      1.0  0.85810  0.83980  0.27790  1.0000 0.1090698999
H   H170      1.0  0.14190  0.66020  0.77790  1.0000 0.1090698999
H   H171      1.0  0.35810  0.16020  0.22210  1.0000 0.1090698999
H   H172      1.0  0.64190  0.33980  0.72210  1.0000 0.1090698999
H   H173      1.0  0.92650  0.85160  0.22990  1.0000 0.1381334511
H   H174      1.0  0.07350  0.64840  0.72990  1.0000 0.1381334511
H   H175      1.0  0.42650  0.14840  0.27010  1.0000 0.1381334511
H   H176      1.0  0.57350  0.35160  0.77010  1.0000 0.1381334511
H   H177      1.0  0.05400  0.98740  0.14650  1.0000 0.1013517628
H   H178      1.0  0.94600  0.51260  0.64650  1.0000 0.1013517628
H   H179      1.0  0.55400  0.01260  0.35350  1.0000 0.1013517628
H   H180      1.0  0.44600  0.48740  0.85350  1.0000 0.1013517628
H   H181      1.0  0.02400  0.91620  0.17160  1.0000 0.1316752723
H   H182      1.0  0.97600  0.58380  0.67160  1.0000 0.1316752723
H   H183      1.0  0.52400  0.08380  0.32840  1.0000 0.1316752723
H   H184      1.0  0.47600  0.41620  0.82840  1.0000 0.1316752723
H   H185      1.0  0.10980  0.91930  0.07070  1.0000 0.1090698999
H   H186      1.0  0.89020  0.58070  0.57070  1.0000 0.1090698999
H   H187      1.0  0.60980  0.08070  0.42930  1.0000 0.1090698999
H   H188      1.0  0.39020  0.41930  0.92930  1.0000 0.1090698999
H   H189      1.0  0.08620  0.84620  0.09380  1.0000 0.1316752723
H   H190      1.0  0.91380  0.65380  0.59380  1.0000 0.1316752723
H   H191      1.0  0.58620  0.15380  0.40620  1.0000 0.1316752723
H   H192      1.0  0.41380  0.34620  0.90620  1.0000 0.1316752723
C   C1        1.0  0.84900  0.31650  0.12367  1.0000 0.1013517628
C   C2        1.0  0.15100  0.18350  0.62367  1.0000 0.0918278216
C   C3        1.0  0.34900  0.68350  0.37633  1.0000 0.0918278216
C   C4        1.0  0.65100  0.81650  0.87633  1.0000 0.1013517628
C   C5        1.0  0.89930  0.34010  0.10101  1.0000 -0.1212389974
C   C6        1.0  0.10070  0.15990  0.60101  1.0000 -0.1212389974
C   C7        1.0  0.39930  0.65990  0.39899  1.0000 -0.1212389974
C   C8        1.0  0.60070  0.84010  0.89899  1.0000 -0.1212389974
C   C9        1.0  0.98800  0.30320  0.15045  1.0000 0.0918278216
C   C10       1.0  0.01200  0.19680  0.65045  1.0000 0.0918278216
C   C11       1.0  0.48800  0.69680  0.34955  1.0000 0.0918278216
C   C12       1.0  0.51200  0.80320  0.84955  1.0000 0.0918278216
C   C13       1.0  0.04420  0.32710  0.12886  1.0000 -0.1212389974
C   C14       1.0  0.95580  0.17290  0.62886  1.0000 -0.1212389974
C   C15       1.0  0.54420  0.67290  0.37114  1.0000 -0.1212389974
C   C16       1.0  0.45580  0.82710  0.87114  1.0000 -0.1212389974
C   C17       1.0  0.99870  0.34540  0.10356  1.0000 0.0516114108
C   C18       1.0  0.00130  0.15460  0.60356  1.0000 0.0516114108
C   C19       1.0  0.49870  0.65460  0.39644  1.0000 0.0516114108
C   C20       1.0  0.50130  0.84540  0.89644  1.0000 0.0516114108
C   C21       1.0  0.05320  0.37090  0.08000  1.0000 0.3672339498
C   C22       1.0  0.94680  0.12910  0.58000  1.0000 0.3672339498
C   C23       1.0  0.55320  0.62910  0.42000  1.0000 0.3672339498
C   C24       1.0  0.44680  0.87090  0.92000  1.0000 0.3672339498
C   C25       1.0  0.43130  0.42760  0.10056  1.0000 0.0918278216
C   C26       1.0  0.56870  0.07240  0.60056  1.0000 0.0918278216
C   C27       1.0  0.93130  0.57240  0.39944  1.0000 0.0918278216
C   C28       1.0  0.06870  0.92760  0.89944  1.0000 0.0918278216
C   C29       1.0  0.33640  0.41280  0.09687  1.0000 -0.1212389974
C   C30       1.0  0.66360  0.08720  0.59687  1.0000 -0.1212389974
C   C31       1.0  0.83640  0.58720  0.40313  1.0000 -0.1212389974
C   C32       1.0  0.16360  0.91280  0.90313  1.0000 -0.1212389974
C   C33       1.0  0.44370  0.45000  0.05052  1.0000 0.079963064
C   C34       1.0  0.55630  0.05000  0.55052  1.0000 0.079963064
C   C35       1.0  0.94370  0.55000  0.44948  1.0000 0.079963064
C   C36       1.0  0.05630  0.95000  0.94948  1.0000 0.079963064
C   C37       1.0  0.34970  0.43490  0.04489  1.0000 -0.1308888966
C   C38       1.0  0.65030  0.06510  0.54489  1.0000 -0.1308888966
C   C39       1.0  0.84970  0.56510  0.45511  1.0000 -0.1308888966
C   C40       1.0  0.15030  0.93490  0.95511  1.0000 -0.1308888966
C   C41       1.0  0.29530  0.41680  0.06857  1.0000 0.0601651318
C   C42       1.0  0.70470  0.08320  0.56857  1.0000 0.0601651318
C   C43       1.0  0.79530  0.58320  0.43143  1.0000 0.0601651318
C   C44       1.0  0.20470  0.91680  0.93143  1.0000 0.0601651318
C   C45       1.0  0.19150  0.40400  0.06351  1.0000 0.3768853661
C   C46       1.0  0.80850  0.09600  0.56351  1.0000 0.3768853661
C   C47       1.0  0.69150  0.59600  0.43649  1.0000 0.3768853661
C   C48       1.0  0.30850  0.90400  0.93649  1.0000 0.3768853661
C   C49       1.0  0.01230  0.45760  0.95768  1.0000 0.0708862623
C   C50       1.0  0.98770  0.04240  0.45768  1.0000 0.0708862623
C   C51       1.0  0.51230  0.54240  0.54232  1.0000 0.0708862623
C   C52       1.0  0.48770  0.95760  0.04232  1.0000 0.0708862623
C   C53       1.0  0.05950  0.44570  0.98434  1.0000 -0.1425025694
C   C54       1.0  0.94050  0.05430  0.48434  1.0000 -0.1425025694
C   C55       1.0  0.55950  0.55430  0.51566  1.0000 -0.1425025694
C   C56       1.0  0.44050  0.94570  0.01566  1.0000 -0.1425025694
C   C57       1.0  0.86640  0.43100  0.97683  1.0000 0.079963064
C   C58       1.0  0.13360  0.06900  0.47683  1.0000 0.079963064
C   C59       1.0  0.36640  0.56900  0.52317  1.0000 0.079963064
C   C60       1.0  0.63360  0.93100  0.02317  1.0000 0.079963064
C   C61       1.0  0.90870  0.41850  0.00401  1.0000 -0.1457613869
C   C62       1.0  0.09130  0.08150  0.50401  1.0000 -0.1457613869
C   C63       1.0  0.40870  0.58150  0.49599  1.0000 -0.1457613869
C   C64       1.0  0.59130  0.91850  0.99599  1.0000 -0.1457613869
C   C65       1.0  0.00760  0.42510  0.00745  1.0000 0.0516114108
C   C66       1.0  0.99240  0.07490  0.50745  1.0000 0.0516114108
C   C67       1.0  0.50760  0.57490  0.49255  1.0000 0.0516114108
C   C68       1.0  0.49240  0.92510  0.99255  1.0000 0.0516114108
C   C69       1.0  0.05760  0.40960  0.03549  1.0000 0.3647609766
C   C70       1.0  0.94240  0.09040  0.53549  1.0000 0.3672339498
C   C71       1.0  0.55760  0.59040  0.46451  1.0000 0.3672339498
C   C72       1.0  0.44240  0.90960  0.96451  1.0000 0.3672339498
C   C73       1.0  0.89810  0.34550  0.90929  1.0000 0.079963064
C   C74       1.0  0.10190  0.15450  0.40929  1.0000 0.0708862623
C   C75       1.0  0.39810  0.65450  0.59071  1.0000 0.0708862623
C   C76       1.0  0.60190  0.84550  0.09071  1.0000 0.0708862623
C   C77       1.0  0.91590  0.30140  0.89669  1.0000 -0.1694396281
C   C78       1.0  0.08410  0.19860  0.39669  1.0000 -0.1694396281
C   C79       1.0  0.41590  0.69860  0.60331  1.0000 -0.1694396281
C   C80       1.0  0.58410  0.80140  0.10331  1.0000 -0.1694396281
C   C81       1.0  0.93410  0.38470  0.86483  1.0000 0.0918278216
C   C82       1.0  0.06590  0.11530  0.36483  1.0000 0.0918278216
C   C83       1.0  0.43410  0.61530  0.63517  1.0000 0.0918278216
C   C84       1.0  0.56590  0.88470  0.13517  1.0000 0.0918278216
C   C85       1.0  0.95160  0.34240  0.85015  1.0000 -0.1627038733
C   C86       1.0  0.04840  0.15760  0.35015  1.0000 -0.1627038733
C   C87       1.0  0.45160  0.65760  0.64985  1.0000 -0.1627038733
C   C88       1.0  0.54840  0.84240  0.14985  1.0000 -0.1627038733
C   C89       1.0  0.94120  0.29950  0.86631  1.0000 0.0708862623
C   C90       1.0  0.05880  0.20050  0.36631  1.0000 0.0708862623
C   C91       1.0  0.44120  0.70050  0.63369  1.0000 0.0708862623
C   C92       1.0  0.55880  0.79950  0.13369  1.0000 0.0708862623
C   C93       1.0  0.95710  0.25340  0.85029  1.0000 0.3672339498
C   C94       1.0  0.04290  0.24660  0.35029  1.0000 0.3672339498
C   C95       1.0  0.45710  0.74660  0.64971  1.0000 0.3672339498
C   C96       1.0  0.54290  0.75340  0.14971  1.0000 0.3672339498
C   C97       1.0  0.06970  0.26590  0.73196  1.0000 0.1013517628
C   C98       1.0  0.93030  0.23410  0.23196  1.0000 0.1013517628
C   C99       1.0  0.56970  0.73410  0.76804  1.0000 0.1013517628
C   C100      1.0  0.43030  0.76590  0.26804  1.0000 0.1013517628
C   C101      1.0  0.03020  0.26250  0.76093  1.0000 -0.1457613869
C   C102      1.0  0.96980  0.23750  0.26093  1.0000 -0.1425025694
C   C103      1.0  0.53020  0.73750  0.73907  1.0000 -0.1425025694
C   C104      1.0  0.46980  0.76250  0.23907  1.0000 -0.1425025694
C   C105      1.0  0.11260  0.18650  0.73208  1.0000 0.0918278216
C   C106      1.0  0.88740  0.31350  0.23208  1.0000 0.0918278216
C   C107      1.0  0.61260  0.81350  0.76792  1.0000 0.0918278216
C   C108      1.0  0.38740  0.68650  0.26792  1.0000 0.0918278216
C   C109      1.0  0.07300  0.17910  0.76091  1.0000 -0.1627038733
C   C110      1.0  0.92700  0.32090  0.26091  1.0000 -0.1627038733
C   C111      1.0  0.57300  0.82090  0.73909  1.0000 -0.1627038733
C   C112      1.0  0.42700  0.67910  0.23909  1.0000 -0.1627038733
C   C113      1.0  0.03260  0.21850  0.77560  1.0000 0.0708862623
C   C114      1.0  0.96740  0.28150  0.27560  1.0000 0.0708862623
C   C115      1.0  0.53260  0.78150  0.72440  1.0000 0.0708862623
C   C116      1.0  0.46740  0.71850  0.22440  1.0000 0.0708862623
C   C117      1.0  0.99740  0.21490  0.80743  1.0000 0.3672339498
C   C118      1.0  0.00260  0.28510  0.30743  1.0000 0.3672339498
C   C119      1.0  0.49740  0.78510  0.69257  1.0000 0.3672339498
C   C120      1.0  0.50260  0.71490  0.19257  1.0000 0.3672339498
C   C121      1.0  0.93980  0.04180  0.86425  1.0000 0.0918278216
C   C122      1.0  0.06020  0.45820  0.36425  1.0000 0.0918278216
C   C123      1.0  0.43980  0.95820  0.63575  1.0000 0.0918278216
C   C124      1.0  0.56020  0.54180  0.13575  1.0000 0.0918278216
C   C125      1.0  0.95690  0.08400  0.84903  1.0000 -0.1457613869
C   C126      1.0  0.04310  0.41600  0.34903  1.0000 -0.1425025694
C   C127      1.0  0.45690  0.91600  0.65097  1.0000 -0.1457613869
C   C128      1.0  0.54310  0.58400  0.15097  1.0000 -0.1457613869
C   C129      1.0  0.90660  0.08150  0.90846  1.0000 0.0918278216
C   C130      1.0  0.09340  0.41850  0.40846  1.0000 0.0918278216
C   C131      1.0  0.40660  0.91850  0.59154  1.0000 0.0918278216
C   C132      1.0  0.59340  0.58150  0.09154  1.0000 0.0918278216
C   C133      1.0  0.92100  0.12520  0.89486  1.0000 -0.1425025694
C   C134      1.0  0.07900  0.37480  0.39486  1.0000 -0.1425025694
C   C135      1.0  0.42100  0.87480  0.60514  1.0000 -0.1425025694
C   C136      1.0  0.57900  0.62520  0.10514  1.0000 -0.1425025694
C   C137      1.0  0.94570  0.12710  0.86474  1.0000 0.0708862623
C   C138      1.0  0.05430  0.37290  0.36474  1.0000 0.0708862623
C   C139      1.0  0.44570  0.87290  0.63526  1.0000 0.0708862623
C   C140      1.0  0.55430  0.62710  0.13526  1.0000 0.0708862623
C   C141      1.0  0.95930  0.17370  0.84918  1.0000 0.3672339498
C   C142      1.0  0.04070  0.32630  0.34918  1.0000 0.3672339498
C   C143      1.0  0.45930  0.82630  0.65082  1.0000 0.3672339498
C   C144      1.0  0.54070  0.67370  0.15082  1.0000 0.3672339498
C   C145      1.0  0.15100  0.68350  0.87633  1.0000 0.0918278216
C   C146      1.0  0.84900  0.81650  0.37633  1.0000 0.1013517628
C   C147      1.0  0.65100  0.31650  0.62367  1.0000 0.1013517628
C   C148      1.0  0.34900  0.18350  0.12367  1.0000 0.0918278216
C   C149      1.0  0.10070  0.65990  0.89899  1.0000 -0.1212389974
C   C150      1.0  0.89930  0.84010  0.39899  1.0000 -0.1212389974
C   C151      1.0  0.60070  0.34010  0.60101  1.0000 -0.1212389974
C   C152      1.0  0.39930  0.15990  0.10101  1.0000 -0.1212389974
C   C153      1.0  0.01200  0.69680  0.84955  1.0000 0.0918278216
C   C154      1.0  0.98800  0.80320  0.34955  1.0000 0.0918278216
C   C155      1.0  0.51200  0.30320  0.65045  1.0000 0.0918278216
C   C156      1.0  0.48800  0.19680  0.15045  1.0000 0.0918278216
C   C157      1.0  0.95580  0.67290  0.87114  1.0000 -0.1212389974
C   C158      1.0  0.04420  0.82710  0.37114  1.0000 -0.1212389974
C   C159      1.0  0.45580  0.32710  0.62886  1.0000 -0.1212389974
C   C160      1.0  0.54420  0.17290  0.12886  1.0000 -0.1212389974
C   C161      1.0  0.00130  0.65460  0.89644  1.0000 0.0516114108
C   C162      1.0  0.99870  0.84540  0.39644  1.0000 0.0516114108
C   C163      1.0  0.50130  0.34540  0.60356  1.0000 0.0516114108
C   C164      1.0  0.49870  0.15460  0.10356  1.0000 0.0516114108
C   C165      1.0  0.94680  0.62910  0.92000  1.0000 0.3672339498
C   C166      1.0  0.05320  0.87090  0.42000  1.0000 0.3672339498
C   C167      1.0  0.44680  0.37090  0.58000  1.0000 0.3672339498
C   C168      1.0  0.55320  0.12910  0.08000  1.0000 0.3672339498
C   C169      1.0  0.56870  0.57240  0.89944  1.0000 0.0918278216
C   C170      1.0  0.43130  0.92760  0.39944  1.0000 0.0918278216
C   C171      1.0  0.06870  0.42760  0.60056  1.0000 0.0918278216
C   C172      1.0  0.93130  0.07240  0.10056  1.0000 0.0918278216
C   C173      1.0  0.66360  0.58720  0.90313  1.0000 -0.1212389974
C   C174      1.0  0.33640  0.91280  0.40313  1.0000 -0.1212389974
C   C175      1.0  0.16360  0.41280  0.59687  1.0000 -0.1212389974
C   C176      1.0  0.83640  0.08720  0.09687  1.0000 -0.1212389974
C   C177      1.0  0.55630  0.55000  0.94948  1.0000 0.079963064
C   C178      1.0  0.44370  0.95000  0.44948  1.0000 0.079963064
C   C179      1.0  0.05630  0.45000  0.55052  1.0000 0.079963064
C   C180      1.0  0.94370  0.05000  0.05052  1.0000 0.079963064
C   C181      1.0  0.65030  0.56510  0.95511  1.0000 -0.1308888966
C   C182      1.0  0.34970  0.93490  0.45511  1.0000 -0.1308888966
C   C183      1.0  0.15030  0.43490  0.54489  1.0000 -0.1308888966
C   C184      1.0  0.84970  0.06510  0.04489  1.0000 -0.1308888966
C   C185      1.0  0.70470  0.58320  0.93143  1.0000 0.0601651318
C   C186      1.0  0.29530  0.91680  0.43143  1.0000 0.0601651318
C   C187      1.0  0.20470  0.41680  0.56857  1.0000 0.0601651318
C   C188      1.0  0.79530  0.08320  0.06857  1.0000 0.0601651318
C   C189      1.0  0.80850  0.59600  0.93649  1.0000 0.3768853661
C   C190      1.0  0.19150  0.90400  0.43649  1.0000 0.3768853661
C   C191      1.0  0.30850  0.40400  0.56351  1.0000 0.3768853661
C   C192      1.0  0.69150  0.09600  0.06351  1.0000 0.3768853661
C   C193      1.0  0.98770  0.54240  0.04232  1.0000 0.0708862623
C   C194      1.0  0.01230  0.95760  0.54232  1.0000 0.0708862623
C   C195      1.0  0.48770  0.45760  0.45768  1.0000 0.0708862623
C   C196      1.0  0.51230  0.04240  0.95768  1.0000 0.0708862623
C   C197      1.0  0.94050  0.55430  0.01566  1.0000 -0.1425025694
C   C198      1.0  0.05950  0.94570  0.51566  1.0000 -0.1425025694
C   C199      1.0  0.44050  0.44570  0.48434  1.0000 -0.1425025694
C   C200      1.0  0.55950  0.05430  0.98434  1.0000 -0.1425025694
C   C201      1.0  0.13360  0.56900  0.02317  1.0000 0.079963064
C   C202      1.0  0.86640  0.93100  0.52317  1.0000 0.079963064
C   C203      1.0  0.63360  0.43100  0.47683  1.0000 0.079963064
C   C204      1.0  0.36640  0.06900  0.97683  1.0000 0.079963064
C   C205      1.0  0.09130  0.58150  0.99599  1.0000 -0.1457613869
C   C206      1.0  0.90870  0.91850  0.49599  1.0000 -0.1457613869
C   C207      1.0  0.59130  0.41850  0.50401  1.0000 -0.1457613869
C   C208      1.0  0.40870  0.08150  0.00401  1.0000 -0.1457613869
C   C209      1.0  0.99240  0.57490  0.99255  1.0000 0.0516114108
C   C210      1.0  0.00760  0.92510  0.49255  1.0000 0.0516114108
C   C211      1.0  0.49240  0.42510  0.50745  1.0000 0.0516114108
C   C212      1.0  0.50760  0.07490  0.00745  1.0000 0.0516114108
C   C213      1.0  0.94240  0.59040  0.96451  1.0000 0.3672339498
C   C214      1.0  0.05760  0.90960  0.46451  1.0000 0.3647609766
C   C215      1.0  0.44240  0.40960  0.53549  1.0000 0.3672339498
C   C216      1.0  0.55760  0.09040  0.03549  1.0000 0.3672339498
C   C217      1.0  0.10190  0.65450  0.09071  1.0000 0.0708862623
C   C218      1.0  0.89810  0.84550  0.59071  1.0000 0.0708862623
C   C219      1.0  0.60190  0.34550  0.40929  1.0000 0.0708862623
C   C220      1.0  0.39810  0.15450  0.90929  1.0000 0.079963064
C   C221      1.0  0.08410  0.69860  0.10331  1.0000 -0.1694396281
C   C222      1.0  0.91590  0.80140  0.60331  1.0000 -0.1694396281
C   C223      1.0  0.58410  0.30140  0.39669  1.0000 -0.1627038733
C   C224      1.0  0.41590  0.19860  0.89669  1.0000 -0.1694396281
C   C225      1.0  0.06590  0.61530  0.13517  1.0000 0.0918278216
C   C226      1.0  0.93410  0.88470  0.63517  1.0000 0.0918278216
C   C227      1.0  0.56590  0.38470  0.36483  1.0000 0.0918278216
C   C228      1.0  0.43410  0.11530  0.86483  1.0000 0.0918278216
C   C229      1.0  0.04840  0.65760  0.14985  1.0000 -0.1627038733
C   C230      1.0  0.95160  0.84240  0.64985  1.0000 -0.1627038733
C   C231      1.0  0.54840  0.34240  0.35015  1.0000 -0.1627038733
C   C232      1.0  0.45160  0.15760  0.85015  1.0000 -0.1627038733
C   C233      1.0  0.05880  0.70050  0.13369  1.0000 0.0708862623
C   C234      1.0  0.94120  0.79950  0.63369  1.0000 0.0708862623
C   C235      1.0  0.55880  0.29950  0.36631  1.0000 0.0708862623
C   C236      1.0  0.44120  0.20050  0.86631  1.0000 0.0708862623
C   C237      1.0  0.04290  0.74660  0.14971  1.0000 0.3672339498
C   C238      1.0  0.95710  0.75340  0.64971  1.0000 0.3672339498
C   C239      1.0  0.54290  0.25340  0.35029  1.0000 0.3672339498
C   C240      1.0  0.45710  0.24660  0.85029  1.0000 0.3672339498
C   C241      1.0  0.93030  0.73410  0.26804  1.0000 0.1013517628
C   C242      1.0  0.06970  0.76590  0.76804  1.0000 0.1013517628
C   C243      1.0  0.43030  0.26590  0.23196  1.0000 0.1013517628
C   C244      1.0  0.56970  0.23410  0.73196  1.0000 0.1013517628
C   C245      1.0  0.96980  0.73750  0.23907  1.0000 -0.1425025694
C   C246      1.0  0.03020  0.76250  0.73907  1.0000 -0.1425025694
C   C247      1.0  0.46980  0.26250  0.26093  1.0000 -0.1425025694
C   C248      1.0  0.53020  0.23750  0.76093  1.0000 -0.1425025694
C   C249      1.0  0.88740  0.81350  0.26792  1.0000 0.0918278216
C   C250      1.0  0.11260  0.68650  0.76792  1.0000 0.0918278216
C   C251      1.0  0.38740  0.18650  0.23208  1.0000 0.0918278216
C   C252      1.0  0.61260  0.31350  0.73208  1.0000 0.0918278216
C   C253      1.0  0.92700  0.82090  0.23909  1.0000 -0.1627038733
C   C254      1.0  0.07300  0.67910  0.73909  1.0000 -0.1627038733
C   C255      1.0  0.42700  0.17910  0.26091  1.0000 -0.1627038733
C   C256      1.0  0.57300  0.32090  0.76091  1.0000 -0.1627038733
C   C257      1.0  0.96740  0.78150  0.22440  1.0000 0.0708862623
C   C258      1.0  0.03260  0.71850  0.72440  1.0000 0.0708862623
C   C259      1.0  0.46740  0.21850  0.27560  1.0000 0.0708862623
C   C260      1.0  0.53260  0.28150  0.77560  1.0000 0.0708862623
C   C261      1.0  0.00260  0.78510  0.19257  1.0000 0.3672339498
C   C262      1.0  0.99740  0.71490  0.69257  1.0000 0.3672339498
C   C263      1.0  0.50260  0.21490  0.30743  1.0000 0.3672339498
C   C264      1.0  0.49740  0.28510  0.80743  1.0000 0.3672339498
C   C265      1.0  0.06020  0.95820  0.13575  1.0000 0.0918278216
C   C266      1.0  0.93980  0.54180  0.63575  1.0000 0.0918278216
C   C267      1.0  0.56020  0.04180  0.36425  1.0000 0.0918278216
C   C268      1.0  0.43980  0.45820  0.86425  1.0000 0.0918278216
C   C269      1.0  0.04310  0.91600  0.15097  1.0000 -0.1425025694
C   C270      1.0  0.95690  0.58400  0.65097  1.0000 -0.1457613869
C   C271      1.0  0.54310  0.08400  0.34903  1.0000 -0.1457613869
C   C272      1.0  0.45690  0.41600  0.84903  1.0000 -0.1457613869
C   C273      1.0  0.09340  0.91850  0.09154  1.0000 0.0918278216
C   C274      1.0  0.90660  0.58150  0.59154  1.0000 0.0918278216
C   C275      1.0  0.59340  0.08150  0.40846  1.0000 0.0918278216
C   C276      1.0  0.40660  0.41850  0.90846  1.0000 0.0918278216
C   C277      1.0  0.07900  0.87480  0.10514  1.0000 -0.1425025694
C   C278      1.0  0.92100  0.62520  0.60514  1.0000 -0.1425025694
C   C279      1.0  0.57900  0.12520  0.39486  1.0000 -0.1425025694
C   C280      1.0  0.42100  0.37480  0.89486  1.0000 -0.1425025694
C   C281      1.0  0.05430  0.87290  0.13526  1.0000 0.0708862623
C   C282      1.0  0.94570  0.62710  0.63526  1.0000 0.0708862623
C   C283      1.0  0.55430  0.12710  0.36474  1.0000 0.0708862623
C   C284      1.0  0.44570  0.37290  0.86474  1.0000 0.0708862623
C   C285      1.0  0.04070  0.82630  0.15082  1.0000 0.3672339498
C   C286      1.0  0.95930  0.67370  0.65082  1.0000 0.3672339498
C   C287      1.0  0.54070  0.17370  0.34918  1.0000 0.3672339498
C   C288      1.0  0.45930  0.32630  0.84918  1.0000 0.3672339498
I   I1        1.0  0.67698  0.44613  0.91426  1.0000 -0.4528188633
I   I2        1.0  0.32302  0.05387  0.41426  1.0000 -0.4528188633
I   I3        1.0  0.17698  0.55387  0.58574  1.0000 -0.4528188633
I   I4        1.0  0.82302  0.94613  0.08574  1.0000 -0.4528188633
I   I5        1.0  0.94550  0.51630  0.88030  1.0000 -0.4378725696
I   I6        1.0  0.05450  0.98370  0.38030  1.0000 -0.4378725696
I   I7        1.0  0.44550  0.48370  0.61970  1.0000 -0.4378725696
I   I8        1.0  0.55450  0.01630  0.11970  1.0000 -0.4378725696
I   I9        1.0  0.81355  0.17264  0.16598  1.0000 -0.4612277273
I   I10       1.0  0.18645  0.32736  0.66598  1.0000 -0.4528188633
I   I11       1.0  0.31355  0.82736  0.33402  1.0000 -0.4528188633
I   I12       1.0  0.68645  0.67264  0.83402  1.0000 -0.4528188633
I   I13       1.0  0.64891  0.30354  0.18473  1.0000 -0.4612277273
I   I14       1.0  0.35109  0.19646  0.68473  1.0000 -0.4612277273
I   I15       1.0  0.14891  0.69646  0.31527  1.0000 -0.4612277273
I   I16       1.0  0.85109  0.80354  0.81527  1.0000 -0.4612277273
I   I17       1.0  0.70143  0.42642  0.12687  1.0000 -0.4378725696
I   I18       1.0  0.29857  0.07358  0.62687  1.0000 -0.4378725696
I   I19       1.0  0.20143  0.57358  0.37313  1.0000 -0.4340760071
I   I20       1.0  0.79857  0.92642  0.87313  1.0000 -0.4340760071
I   I21       1.0  0.69517  0.49178  0.03472  1.0000 -0.4772581901
I   I22       1.0  0.30483  0.00822  0.53472  1.0000 -0.4772581901
I   I23       1.0  0.19517  0.50822  0.46528  1.0000 -0.4772581901
I   I24       1.0  0.80483  0.99178  0.96528  1.0000 -0.4772581901
I   I25       1.0  0.32302  0.55387  0.08574  1.0000 -0.4528188633
I   I26       1.0  0.67698  0.94613  0.58574  1.0000 -0.4528188633
I   I27       1.0  0.82302  0.44613  0.41426  1.0000 -0.4528188633
I   I28       1.0  0.17698  0.05387  0.91426  1.0000 -0.4528188633
I   I29       1.0  0.05450  0.48370  0.11970  1.0000 -0.4378725696
I   I30       1.0  0.94550  0.01630  0.61970  1.0000 -0.4378725696
I   I31       1.0  0.55450  0.51630  0.38030  1.0000 -0.4378725696
I   I32       1.0  0.44550  0.98370  0.88030  1.0000 -0.4378725696
I   I33       1.0  0.18645  0.82736  0.83402  1.0000 -0.4528188633
I   I34       1.0  0.81355  0.67264  0.33402  1.0000 -0.4612277273
I   I35       1.0  0.68645  0.17264  0.66598  1.0000 -0.4528188633
I   I36       1.0  0.31355  0.32736  0.16598  1.0000 -0.4528188633
I   I37       1.0  0.35109  0.69646  0.81527  1.0000 -0.4612277273
I   I38       1.0  0.64891  0.80354  0.31527  1.0000 -0.4612277273
I   I39       1.0  0.85109  0.30354  0.68473  1.0000 -0.4612277273
I   I40       1.0  0.14891  0.19646  0.18473  1.0000 -0.4612277273
I   I41       1.0  0.29857  0.57358  0.87313  1.0000 -0.4378725696
I   I42       1.0  0.70143  0.92642  0.37313  1.0000 -0.4378725696
I   I43       1.0  0.79857  0.42642  0.62687  1.0000 -0.4340760071
I   I44       1.0  0.20143  0.07358  0.12687  1.0000 -0.4340760071
I   I45       1.0  0.30483  0.50822  0.96528  1.0000 -0.4772581901
I   I46       1.0  0.69517  0.99178  0.46528  1.0000 -0.4772581901
I   I47       1.0  0.80483  0.49178  0.53472  1.0000 -0.4772581901
I   I48       1.0  0.19517  0.00822  0.03472  1.0000 -0.4772581901
N   N1        1.0  0.89180  0.29790  0.14786  1.0000 -0.1772604097
N   N2        1.0  0.10820  0.20210  0.64786  1.0000 -0.1772604097
N   N3        1.0  0.39180  0.70210  0.35214  1.0000 -0.1772604097
N   N4        1.0  0.60820  0.79790  0.85214  1.0000 -0.1772604097
N   N5        1.0  0.48430  0.44591  0.07820  1.0000 -0.1694396281
N   N6        1.0  0.51570  0.05409  0.57820  1.0000 -0.1694396281
N   N7        1.0  0.98430  0.55409  0.42180  1.0000 -0.1694396281
N   N8        1.0  0.01570  0.94591  0.92180  1.0000 -0.1694396281
N   N9        1.0  0.91700  0.44865  0.95351  1.0000 -0.1889499497
N   N10       1.0  0.08300  0.05135  0.45351  1.0000 -0.1889499497
N   N11       1.0  0.41700  0.55135  0.54649  1.0000 -0.1889499497
N   N12       1.0  0.58300  0.94865  0.04649  1.0000 -0.1889499497
N   N13       1.0  0.14860  0.37780  0.08493  1.0000 -0.3742093627
N   N14       1.0  0.85140  0.12220  0.58493  1.0000 -0.3791334812
N   N15       1.0  0.64860  0.62220  0.41507  1.0000 -0.3791334812
N   N16       1.0  0.35140  0.87780  0.91507  1.0000 -0.3791334812
N   N17       1.0  0.15100  0.42040  0.03856  1.0000 -0.3791334812
N   N18       1.0  0.84900  0.07960  0.53856  1.0000 -0.3791334812
N   N19       1.0  0.65100  0.57960  0.46144  1.0000 -0.3791334812
N   N20       1.0  0.34900  0.92040  0.96144  1.0000 -0.3791334812
N   N21       1.0  0.00470  0.38542  0.05580  1.0000 -0.393350422
N   N22       1.0  0.99530  0.11458  0.55580  1.0000 -0.393350422
N   N23       1.0  0.50470  0.61458  0.44420  1.0000 -0.393350422
N   N24       1.0  0.49530  0.88542  0.94420  1.0000 -0.393350422
N   N25       1.0  0.90530  0.38717  0.89394  1.0000 -0.1889499497
N   N26       1.0  0.09470  0.11283  0.39394  1.0000 -0.1889499497
N   N27       1.0  0.40530  0.61283  0.60606  1.0000 -0.1889499497
N   N28       1.0  0.59470  0.88717  0.10606  1.0000 -0.1889499497
N   N29       1.0  0.11110  0.22850  0.71808  1.0000 -0.1889499497
N   N30       1.0  0.88890  0.27150  0.21808  1.0000 -0.1889499497
N   N31       1.0  0.61110  0.77150  0.78192  1.0000 -0.1889499497
N   N32       1.0  0.38890  0.72850  0.28192  1.0000 -0.1889499497
N   N33       1.0  0.91480  0.04023  0.89342  1.0000 -0.1772604097
N   N34       1.0  0.08520  0.45977  0.39342  1.0000 -0.1772604097
N   N35       1.0  0.41480  0.95977  0.60658  1.0000 -0.1772604097
N   N36       1.0  0.58520  0.54023  0.10658  1.0000 -0.1772604097
N   N37       1.0  0.98340  0.25680  0.82133  1.0000 -0.4172989412
N   N38       1.0  0.01660  0.24320  0.32133  1.0000 -0.4172989412
N   N39       1.0  0.48340  0.74320  0.67867  1.0000 -0.4172989412
N   N40       1.0  0.51660  0.75680  0.17867  1.0000 -0.4172989412
N   N41       1.0  0.98660  0.17235  0.81990  1.0000 -0.4114277208
N   N42       1.0  0.01340  0.32765  0.31990  1.0000 -0.4172989412
N   N43       1.0  0.48660  0.82765  0.68010  1.0000 -0.4114277208
N   N44       1.0  0.51340  0.67235  0.18010  1.0000 -0.4114277208
N   N45       1.0  0.94370  0.21291  0.86520  1.0000 -0.4114277208
N   N46       1.0  0.05630  0.28709  0.36520  1.0000 -0.4114277208
N   N47       1.0  0.44370  0.78709  0.63480  1.0000 -0.4114277208
N   N48       1.0  0.55630  0.71291  0.13480  1.0000 -0.4114277208
N   N49       1.0  0.10820  0.70210  0.85214  1.0000 -0.1772604097
N   N50       1.0  0.89180  0.79790  0.35214  1.0000 -0.1772604097
N   N51       1.0  0.60820  0.29790  0.64786  1.0000 -0.1772604097
N   N52       1.0  0.39180  0.20210  0.14786  1.0000 -0.1772604097
N   N53       1.0  0.51570  0.55409  0.92180  1.0000 -0.1694396281
N   N54       1.0  0.48430  0.94591  0.42180  1.0000 -0.1694396281
N   N55       1.0  0.01570  0.44591  0.57820  1.0000 -0.1694396281
N   N56       1.0  0.98430  0.05409  0.07820  1.0000 -0.1694396281
N   N57       1.0  0.08300  0.55135  0.04649  1.0000 -0.1889499497
N   N58       1.0  0.91700  0.94865  0.54649  1.0000 -0.1889499497
N   N59       1.0  0.58300  0.44865  0.45351  1.0000 -0.1889499497
N   N60       1.0  0.41700  0.05135  0.95351  1.0000 -0.1889499497
N   N61       1.0  0.85140  0.62220  0.91507  1.0000 -0.3791334812
N   N62       1.0  0.14860  0.87780  0.41507  1.0000 -0.3742093627
N   N63       1.0  0.35140  0.37780  0.58493  1.0000 -0.3791334812
N   N64       1.0  0.64860  0.12220  0.08493  1.0000 -0.3791334812
N   N65       1.0  0.84900  0.57960  0.96144  1.0000 -0.3791334812
N   N66       1.0  0.15100  0.92040  0.46144  1.0000 -0.3791334812
N   N67       1.0  0.34900  0.42040  0.53856  1.0000 -0.3791334812
N   N68       1.0  0.65100  0.07960  0.03856  1.0000 -0.3791334812
N   N69       1.0  0.99530  0.61458  0.94420  1.0000 -0.393350422
N   N70       1.0  0.00470  0.88542  0.44420  1.0000 -0.393350422
N   N71       1.0  0.49530  0.38542  0.55580  1.0000 -0.393350422
N   N72       1.0  0.50470  0.11458  0.05580  1.0000 -0.393350422
N   N73       1.0  0.09470  0.61283  0.10606  1.0000 -0.1889499497
N   N74       1.0  0.90530  0.88717  0.60606  1.0000 -0.1889499497
N   N75       1.0  0.59470  0.38717  0.39394  1.0000 -0.1889499497
N   N76       1.0  0.40530  0.11283  0.89394  1.0000 -0.1889499497
N   N77       1.0  0.88890  0.77150  0.28192  1.0000 -0.1889499497
N   N78       1.0  0.11110  0.72850  0.78192  1.0000 -0.1889499497
N   N79       1.0  0.38890  0.22850  0.21808  1.0000 -0.1889499497
N   N80       1.0  0.61110  0.27150  0.71808  1.0000 -0.1889499497
N   N81       1.0  0.08520  0.95977  0.10658  1.0000 -0.1772604097
N   N82       1.0  0.91480  0.54023  0.60658  1.0000 -0.1772604097
N   N83       1.0  0.58520  0.04023  0.39342  1.0000 -0.1772604097
N   N84       1.0  0.41480  0.45977  0.89342  1.0000 -0.1772604097
N   N85       1.0  0.01660  0.74320  0.17867  1.0000 -0.4172989412
N   N86       1.0  0.98340  0.75680  0.67867  1.0000 -0.4172989412
N   N87       1.0  0.51660  0.25680  0.32133  1.0000 -0.4172989412
N   N88       1.0  0.48340  0.24320  0.82133  1.0000 -0.4172989412
N   N89       1.0  0.01340  0.82765  0.18010  1.0000 -0.4114277208
N   N90       1.0  0.98660  0.67235  0.68010  1.0000 -0.4114277208
N   N91       1.0  0.51340  0.17235  0.31990  1.0000 -0.4114277208
N   N92       1.0  0.48660  0.32765  0.81990  1.0000 -0.4114277208
N   N93       1.0  0.05630  0.78709  0.13480  1.0000 -0.4114277208
N   N94       1.0  0.94370  0.71291  0.63480  1.0000 -0.4114277208
N   N95       1.0  0.55630  0.21291  0.36520  1.0000 -0.4114277208
N   N96       1.0  0.44370  0.28709  0.86520  1.0000 -0.4114277208
