# DDEC6 charges by PACMAN v1.1 (https://github.com/mtap-research/PACMAN-charge/)
data_2008[CoMo][nan]3[ASR]1
_chemical_formula_sum              "Co12 Mo40 P16 H176 C216 N48 O100"
_cell_length_a       18.2174
_cell_length_b       20.2987
_cell_length_c       31.3264
_cell_angle_alpha    90
_cell_angle_beta     116.115
_cell_angle_gamma    90

_symmetry_space_group_name_H-M    "P 1"
_symmetry_Int_Tables_number       1

loop_
  _symmetry_equiv_pos_as_xyz
  'x, y, z'

loop_
  _atom_site_type_symbol
  _atom_site_label
  _atom_site_symmetry_multiplicity
  _atom_site_fract_x
  _atom_site_fract_y
  _atom_site_fract_z
  _atom_site_occupancy
  _atom_site_charge
Co  Co1       1.0  0.54892  0.08408  0.72616  1.0000 0.7443710026
Co  Co2       1.0  0.45108  0.58408  0.77384  1.0000 0.7443710026
Co  Co3       1.0  0.45108  0.91592  0.27384  1.0000 0.7471674141
Co  Co4       1.0  0.54892  0.41592  0.22616  1.0000 0.7471674141
Co  Co5       1.0  0.25570  0.14266  0.50151  1.0000 0.5229907689
Co  Co6       1.0  0.74430  0.64266  0.99849  1.0000 0.5229907689
Co  Co7       1.0  0.74430  0.85734  0.49849  1.0000 0.5229907689
Co  Co8       1.0  0.25570  0.35734  0.00151  1.0000 0.5229907689
Co  Co9       1.0  0.98581  0.12977  0.26990  1.0000 0.563033348
Co  Co10      1.0  0.01419  0.62977  0.23010  1.0000 0.563033348
Co  Co11      1.0  0.01419  0.87023  0.73010  1.0000 0.563033348
Co  Co12      1.0  0.98581  0.37023  0.76990  1.0000 0.563033348
Mo  Mo1       1.0  0.95059  0.37477  0.20200  1.0000 1.2521031953
Mo  Mo2       1.0  0.04941  0.87477  0.29800  1.0000 1.2521031953
Mo  Mo3       1.0  0.04941  0.62523  0.79800  1.0000 1.2521031953
Mo  Mo4       1.0  0.95059  0.12523  0.70200  1.0000 1.255669063
Mo  Mo5       1.0  0.03036  0.44059  0.13269  1.0000 1.0909733233
Mo  Mo6       1.0  0.96964  0.94059  0.36731  1.0000 1.0909733233
Mo  Mo7       1.0  0.96964  0.55941  0.86731  1.0000 1.0909733233
Mo  Mo8       1.0  0.03036  0.05941  0.63269  1.0000 1.0909733233
Mo  Mo9       1.0  0.07021  0.31379  0.07390  1.0000 1.111953145
Mo  Mo10      1.0  0.92979  0.81379  0.42610  1.0000 1.111953145
Mo  Mo11      1.0  0.92979  0.68621  0.92610  1.0000 1.111953145
Mo  Mo12      1.0  0.07021  0.18621  0.57390  1.0000 1.111953145
Mo  Mo13      1.0  0.99497  0.17081  0.09291  1.0000 1.5272593555
Mo  Mo14      1.0  0.00503  0.67081  0.40709  1.0000 1.5225445685
Mo  Mo15      1.0  0.00503  0.82919  0.90709  1.0000 1.5225445685
Mo  Mo16      1.0  0.99497  0.32919  0.59291  1.0000 1.5272593555
Mo  Mo17      1.0  0.88157  0.20817  0.15500  1.0000 2.1511789816
Mo  Mo18      1.0  0.11843  0.70817  0.34500  1.0000 2.1435027775
Mo  Mo19      1.0  0.11843  0.79183  0.84500  1.0000 2.1511789816
Mo  Mo20      1.0  0.88157  0.29183  0.65500  1.0000 2.1511789816
Mo  Mo21      1.0  0.51543  0.95212  0.64575  1.0000 1.7197046933
Mo  Mo22      1.0  0.48457  0.45212  0.85425  1.0000 1.7197046933
Mo  Mo23      1.0  0.48457  0.04788  0.35425  1.0000 1.7197046933
Mo  Mo24      1.0  0.51543  0.54788  0.14575  1.0000 1.7295774874
Mo  Mo25      1.0  0.40489  0.88313  0.69598  1.0000 1.2708176431
Mo  Mo26      1.0  0.59511  0.38313  0.80402  1.0000 1.2708176431
Mo  Mo27      1.0  0.59511  0.11687  0.30402  1.0000 1.2708176431
Mo  Mo28      1.0  0.40489  0.61687  0.19598  1.0000 1.2708176431
Mo  Mo29      1.0  0.58093  0.21648  0.81312  1.0000 2.0837899702
Mo  Mo30      1.0  0.41907  0.71648  0.68688  1.0000 2.0837899702
Mo  Mo31      1.0  0.41907  0.78352  0.18688  1.0000 2.0837899702
Mo  Mo32      1.0  0.58093  0.28352  0.31312  1.0000 2.0931056199
Mo  Mo33      1.0  0.49507  0.18819  0.89765  1.0000 1.4616792557
Mo  Mo34      1.0  0.50493  0.68819  0.60235  1.0000 1.4616792557
Mo  Mo35      1.0  0.50493  0.81181  0.10235  1.0000 1.4616792557
Mo  Mo36      1.0  0.49507  0.31181  0.39765  1.0000 1.4616792557
Mo  Mo37      1.0  0.41828  0.33786  0.90693  1.0000 1.1264184174
Mo  Mo38      1.0  0.58172  0.83786  0.59307  1.0000 1.1264184174
Mo  Mo39      1.0  0.58172  0.66214  0.09307  1.0000 1.123948997
Mo  Mo40      1.0  0.41828  0.16214  0.40693  1.0000 1.123948997
P   P1        1.0  0.88783  0.31924  0.08167  1.0000 1.3195562539
P   P2        1.0  0.11217  0.81924  0.41833  1.0000 1.3131784059
P   P3        1.0  0.11217  0.68076  0.91833  1.0000 1.3131784059
P   P4        1.0  0.88783  0.18076  0.58167  1.0000 1.3131784059
P   P5        1.0  0.08231  0.27560  0.18481  1.0000 1.3457389531
P   P6        1.0  0.91769  0.77560  0.31519  1.0000 1.3457389531
P   P7        1.0  0.91769  0.72440  0.81519  1.0000 1.3457389531
P   P8        1.0  0.08231  0.22440  0.68481  1.0000 1.3457389531
P   P9        1.0  0.41652  0.19916  0.29982  1.0000 1.3385521826
P   P10       1.0  0.58348  0.69916  0.20018  1.0000 1.3385521826
P   P11       1.0  0.58348  0.80084  0.70018  1.0000 1.3385521826
P   P12       1.0  0.41652  0.30084  0.79982  1.0000 1.3385521826
P   P13       1.0  0.61279  0.32155  0.90985  1.0000 1.3195562539
P   P14       1.0  0.38721  0.82155  0.59015  1.0000 1.3195562539
P   P15       1.0  0.38721  0.67845  0.09015  1.0000 1.3195562539
P   P16       1.0  0.61279  0.17845  0.40985  1.0000 1.3195562539
H   H1        1.0  0.48180  0.04730  0.79980  1.0000 0.10909751
H   H2        1.0  0.51820  0.54730  0.70020  1.0000 0.117955182
H   H3        1.0  0.51820  0.95270  0.20020  1.0000 0.10909751
H   H4        1.0  0.48180  0.45270  0.29980  1.0000 0.117955182
H   H5        1.0  0.36110  0.05790  0.80660  1.0000 0.117955182
H   H6        1.0  0.63890  0.55790  0.69340  1.0000 0.117955182
H   H7        1.0  0.63890  0.94210  0.19340  1.0000 0.117955182
H   H8        1.0  0.36110  0.44210  0.30660  1.0000 0.117955182
H   H9        1.0  0.24060  0.08600  0.73890  1.0000 0.117955182
H   H10       1.0  0.75940  0.58600  0.76110  1.0000 0.117955182
H   H11       1.0  0.75940  0.91400  0.26110  1.0000 0.117955182
H   H12       1.0  0.24060  0.41400  0.23890  1.0000 0.117955182
H   H13       1.0  0.24560  0.09920  0.66520  1.0000 0.10909751
H   H14       1.0  0.75440  0.59920  0.83480  1.0000 0.10909751
H   H15       1.0  0.75440  0.90080  0.33480  1.0000 0.10909751
H   H16       1.0  0.24560  0.40080  0.16520  1.0000 0.10909751
H   H17       1.0  0.57210  0.18290  0.58600  1.0000 0.10909751
H   H18       1.0  0.42790  0.68290  0.91400  1.0000 0.10909751
H   H19       1.0  0.42790  0.81710  0.41400  1.0000 0.10909751
H   H20       1.0  0.57210  0.31710  0.08600  1.0000 0.10909751
H   H21       1.0  0.71490  0.19780  0.62230  1.0000 0.117955182
H   H22       1.0  0.28510  0.69780  0.87770  1.0000 0.117955182
H   H23       1.0  0.28510  0.80220  0.37770  1.0000 0.117955182
H   H24       1.0  0.71490  0.30220  0.12230  1.0000 0.117955182
H   H25       1.0  0.78790  0.17960  0.70390  1.0000 0.10909751
H   H26       1.0  0.21210  0.67960  0.79610  1.0000 0.10909751
H   H27       1.0  0.21210  0.82040  0.29610  1.0000 0.10909751
H   H28       1.0  0.78790  0.32040  0.20390  1.0000 0.10909751
H   H29       1.0  0.72090  0.14090  0.74720  1.0000 0.1007561137
H   H30       1.0  0.27910  0.64090  0.75280  1.0000 0.1007561137
H   H31       1.0  0.27910  0.85910  0.25280  1.0000 0.1007561137
H   H32       1.0  0.72090  0.35910  0.24720  1.0000 0.1007561137
H   H33       1.0  0.10160  0.04830  0.47250  1.0000 0.1007561137
H   H34       1.0  0.89840  0.54830  0.02750  1.0000 0.1007561137
H   H35       1.0  0.89840  0.95170  0.52750  1.0000 0.1007561137
H   H36       1.0  0.10160  0.45170  0.97250  1.0000 0.1007561137
H   H37       1.0  0.05770  0.96400  0.50620  1.0000 0.117955182
H   H38       1.0  0.94230  0.46400  0.99380  1.0000 0.117955182
H   H39       1.0  0.94230  0.03600  0.49380  1.0000 0.117955182
H   H40       1.0  0.05770  0.53600  0.00620  1.0000 0.117955182
H   H41       1.0  0.13730  0.93580  0.58560  1.0000 0.10909751
H   H42       1.0  0.86270  0.43580  0.91440  1.0000 0.10909751
H   H43       1.0  0.86270  0.06420  0.41440  1.0000 0.10909751
H   H44       1.0  0.13730  0.56420  0.08560  1.0000 0.10909751
H   H45       1.0  0.25950  0.99460  0.63030  1.0000 0.10909751
H   H46       1.0  0.74050  0.49460  0.86970  1.0000 0.10909751
H   H47       1.0  0.74050  0.00540  0.36970  1.0000 0.10909751
H   H48       1.0  0.25950  0.50540  0.13030  1.0000 0.10909751
H   H49       1.0  0.50230  0.27880  0.59830  1.0000 0.117955182
H   H50       1.0  0.49770  0.77880  0.90170  1.0000 0.117955182
H   H51       1.0  0.49770  0.72120  0.40170  1.0000 0.117955182
H   H52       1.0  0.50230  0.22120  0.09830  1.0000 0.117955182
H   H53       1.0  0.47650  0.36610  0.54430  1.0000 0.117955182
H   H54       1.0  0.52350  0.86610  0.95570  1.0000 0.117955182
H   H55       1.0  0.52350  0.63390  0.45570  1.0000 0.117955182
H   H56       1.0  0.47650  0.13390  0.04430  1.0000 0.117955182
H   H57       1.0  0.37130  0.35690  0.46790  1.0000 0.1301989817
H   H58       1.0  0.62870  0.85690  0.03210  1.0000 0.1301989817
H   H59       1.0  0.62870  0.64310  0.53210  1.0000 0.1301989817
H   H60       1.0  0.37130  0.14310  0.96790  1.0000 0.1301989817
H   H61       1.0  0.28730  0.26360  0.44790  1.0000 0.1007561137
H   H62       1.0  0.71270  0.76360  0.05210  1.0000 0.1007561137
H   H63       1.0  0.71270  0.73640  0.55210  1.0000 0.1007561137
H   H64       1.0  0.28730  0.23640  0.94790  1.0000 0.1007561137
H   H65       1.0  0.23180  0.26910  0.55240  1.0000 0.10909751
H   H66       1.0  0.76820  0.76910  0.94760  1.0000 0.10909751
H   H67       1.0  0.76820  0.73090  0.44760  1.0000 0.10909751
H   H68       1.0  0.23180  0.23090  0.05240  1.0000 0.10909751
H   H69       1.0  0.14990  0.36210  0.53240  1.0000 0.1398678293
H   H70       1.0  0.85010  0.86210  0.96760  1.0000 0.1398678293
H   H71       1.0  0.85010  0.63790  0.46760  1.0000 0.1398678293
H   H72       1.0  0.14990  0.13790  0.03240  1.0000 0.1398678293
H   H73       1.0  0.04380  0.37180  0.45580  1.0000 0.117955182
H   H74       1.0  0.95620  0.87180  0.04420  1.0000 0.117955182
H   H75       1.0  0.95620  0.62820  0.54420  1.0000 0.117955182
H   H76       1.0  0.04380  0.12820  0.95580  1.0000 0.117955182
H   H77       1.0  0.02090  0.28660  0.40100  1.0000 0.117955182
H   H78       1.0  0.97910  0.78660  0.09900  1.0000 0.117955182
H   H79       1.0  0.97910  0.71340  0.59900  1.0000 0.117955182
H   H80       1.0  0.02090  0.21340  0.90100  1.0000 0.117955182
H   H81       1.0  0.22910  0.96690  0.38610  1.0000 0.10909751
H   H82       1.0  0.77090  0.46690  0.11390  1.0000 0.10909751
H   H83       1.0  0.77090  0.03310  0.61390  1.0000 0.10909751
H   H84       1.0  0.22910  0.53310  0.88610  1.0000 0.10909751
H   H85       1.0  0.34680  0.90610  0.43520  1.0000 0.10909751
H   H86       1.0  0.65320  0.40610  0.06480  1.0000 0.10909751
H   H87       1.0  0.65320  0.09390  0.56480  1.0000 0.10909751
H   H88       1.0  0.34680  0.59390  0.93520  1.0000 0.10909751
H   H89       1.0  0.44020  0.95170  0.50790  1.0000 0.117955182
H   H90       1.0  0.55980  0.45170  0.99210  1.0000 0.117955182
H   H91       1.0  0.55980  0.04830  0.49210  1.0000 0.117955182
H   H92       1.0  0.44020  0.54830  0.00790  1.0000 0.117955182
H   H93       1.0  0.41140  0.05310  0.53070  1.0000 0.1007561137
H   H94       1.0  0.58860  0.55310  0.96930  1.0000 0.1007561137
H   H95       1.0  0.58860  0.94690  0.46930  1.0000 0.1007561137
H   H96       1.0  0.41140  0.44690  0.03070  1.0000 0.1007561137
H   H97       1.0  0.81310  0.19550  0.24510  1.0000 0.0887586413
H   H98       1.0  0.18690  0.69550  0.25490  1.0000 0.0887586413
H   H99       1.0  0.18690  0.80450  0.75490  1.0000 0.0887586413
H   H100      1.0  0.81310  0.30450  0.74510  1.0000 0.0887586413
H   H101      1.0  0.73840  0.22590  0.28620  1.0000 0.117955182
H   H102      1.0  0.26160  0.72590  0.21380  1.0000 0.117955182
H   H103      1.0  0.26160  0.77410  0.71380  1.0000 0.117955182
H   H104      1.0  0.73840  0.27410  0.78620  1.0000 0.117955182
H   H105      1.0  0.80000  0.21890  0.36960  1.0000 0.10909751
H   H106      1.0  0.20000  0.71890  0.13040  1.0000 0.10909751
H   H107      1.0  0.20000  0.78110  0.63040  1.0000 0.10909751
H   H108      1.0  0.80000  0.28110  0.86960  1.0000 0.10909751
H   H109      1.0  0.93850  0.18880  0.41010  1.0000 0.117955182
H   H110      1.0  0.06150  0.68880  0.08990  1.0000 0.117955182
H   H111      1.0  0.06150  0.81120  0.58990  1.0000 0.117955182
H   H112      1.0  0.93850  0.31120  0.91010  1.0000 0.117955182
H   H113      1.0  0.26880  0.04910  0.34670  1.0000 0.117955182
H   H114      1.0  0.73120  0.54910  0.15330  1.0000 0.117955182
H   H115      1.0  0.73120  0.95090  0.65330  1.0000 0.117955182
H   H116      1.0  0.26880  0.45090  0.84670  1.0000 0.117955182
H   H117      1.0  0.27910  0.01350  0.27780  1.0000 0.117955182
H   H118      1.0  0.72090  0.51350  0.22220  1.0000 0.117955182
H   H119      1.0  0.72090  0.98650  0.72220  1.0000 0.117955182
H   H120      1.0  0.27910  0.48650  0.77780  1.0000 0.117955182
H   H121      1.0  0.15960  0.00880  0.20550  1.0000 0.117955182
H   H122      1.0  0.84040  0.50880  0.29450  1.0000 0.117955182
H   H123      1.0  0.84040  0.99120  0.79450  1.0000 0.117955182
H   H124      1.0  0.15960  0.49120  0.70550  1.0000 0.117955182
H   H125      1.0  0.03730  0.04620  0.20380  1.0000 0.10909751
H   H126      1.0  0.96270  0.54620  0.29620  1.0000 0.10909751
H   H127      1.0  0.96270  0.95380  0.79620  1.0000 0.10909751
H   H128      1.0  0.03730  0.45380  0.70380  1.0000 0.10909751
H   H129      1.0  0.85900  0.37720  0.01240  1.0000 0.1398678293
H   H130      1.0  0.14100  0.87720  0.48760  1.0000 0.1398678293
H   H131      1.0  0.14100  0.62280  0.98760  1.0000 0.1398678293
H   H132      1.0  0.85900  0.12280  0.51240  1.0000 0.1398678293
H   H133      1.0  0.81290  0.40990  0.04040  1.0000 0.1301989817
H   H134      1.0  0.18710  0.90990  0.45960  1.0000 0.1301989817
H   H135      1.0  0.18710  0.59010  0.95960  1.0000 0.1301989817
H   H136      1.0  0.81290  0.09010  0.54040  1.0000 0.1301989817
H   H137      1.0  0.17070  0.19290  0.18920  1.0000 0.1301989817
H   H138      1.0  0.82930  0.69290  0.31080  1.0000 0.1301989817
H   H139      1.0  0.82930  0.80710  0.81080  1.0000 0.1301989817
H   H140      1.0  0.17070  0.30710  0.68920  1.0000 0.1301989817
H   H141      1.0  0.15100  0.19020  0.23380  1.0000 0.1301989817
H   H142      1.0  0.84900  0.69020  0.26620  1.0000 0.1301989817
H   H143      1.0  0.84900  0.80980  0.76620  1.0000 0.1301989817
H   H144      1.0  0.15100  0.30980  0.73380  1.0000 0.1301989817
H   H145      1.0  0.25210  0.27170  0.27280  1.0000 0.0887586413
H   H146      1.0  0.74790  0.77170  0.22720  1.0000 0.0887586413
H   H147      1.0  0.74790  0.72830  0.72720  1.0000 0.0887586413
H   H148      1.0  0.25210  0.22830  0.77280  1.0000 0.0887586413
H   H149      1.0  0.27210  0.27450  0.22780  1.0000 0.0887586413
H   H150      1.0  0.72790  0.77450  0.27220  1.0000 0.0887586413
H   H151      1.0  0.72790  0.72550  0.77220  1.0000 0.0887586413
H   H152      1.0  0.27210  0.22550  0.72780  1.0000 0.0887586413
H   H153      1.0  0.30170  0.15800  0.23780  1.0000 0.1398678293
H   H154      1.0  0.69830  0.65800  0.26220  1.0000 0.1398678293
H   H155      1.0  0.69830  0.84200  0.76220  1.0000 0.1398678293
H   H156      1.0  0.30170  0.34200  0.73780  1.0000 0.1398678293
H   H157      1.0  0.28940  0.15990  0.28500  1.0000 0.1301989817
H   H158      1.0  0.71060  0.65990  0.21500  1.0000 0.1301989817
H   H159      1.0  0.71060  0.84010  0.71500  1.0000 0.1301989817
H   H160      1.0  0.28940  0.34010  0.78500  1.0000 0.1301989817
H   H161      1.0  0.70230  0.40750  0.94790  1.0000 0.1398678293
H   H162      1.0  0.29770  0.90750  0.55210  1.0000 0.1398678293
H   H163      1.0  0.29770  0.59250  0.05210  1.0000 0.1398678293
H   H164      1.0  0.70230  0.09250  0.44790  1.0000 0.1398678293
H   H165      1.0  0.74790  0.35180  0.93240  1.0000 0.1301989817
H   H166      1.0  0.25210  0.85180  0.56760  1.0000 0.1301989817
H   H167      1.0  0.25210  0.64820  0.06760  1.0000 0.1301989817
H   H168      1.0  0.74790  0.14820  0.43240  1.0000 0.1301989817
H   H169      1.0  0.70750  0.33650  0.01030  1.0000 0.0887586413
H   H170      1.0  0.29250  0.83650  0.48970  1.0000 0.0887586413
H   H171      1.0  0.29250  0.66350  0.98970  1.0000 0.0887586413
H   H172      1.0  0.70750  0.16350  0.51030  1.0000 0.0887586413
H   H173      1.0  0.75920  0.28490  0.99600  1.0000 0.10909751
H   H174      1.0  0.24080  0.78490  0.50400  1.0000 0.10909751
H   H175      1.0  0.24080  0.71510  0.00400  1.0000 0.10909751
H   H176      1.0  0.75920  0.21510  0.49600  1.0000 0.10909751
C   C1        1.0  0.43310  0.05770  0.77220  1.0000 0.0715079439
C   C2        1.0  0.56690  0.55770  0.72780  1.0000 0.0715079439
C   C3        1.0  0.56690  0.94230  0.22780  1.0000 0.0715079439
C   C4        1.0  0.43310  0.44230  0.27220  1.0000 0.0715079439
C   C5        1.0  0.36180  0.06420  0.77670  1.0000 -0.1585828791
C   C6        1.0  0.63820  0.56420  0.72330  1.0000 -0.1585828791
C   C7        1.0  0.63820  0.93580  0.22330  1.0000 -0.1585828791
C   C8        1.0  0.36180  0.43580  0.27670  1.0000 -0.1585828791
C   C9        1.0  0.29050  0.08040  0.73660  1.0000 -0.0270007238
C   C10       1.0  0.70950  0.58040  0.76340  1.0000 -0.0270007238
C   C11       1.0  0.70950  0.91960  0.26340  1.0000 -0.0270007238
C   C12       1.0  0.29050  0.41960  0.23660  1.0000 -0.0270007238
C   C13       1.0  0.29340  0.08820  0.69320  1.0000 -0.1917752604
C   C14       1.0  0.70660  0.58820  0.80680  1.0000 -0.1917752604
C   C15       1.0  0.70660  0.91180  0.30680  1.0000 -0.1917752604
C   C16       1.0  0.29340  0.41180  0.19320  1.0000 -0.1917752604
C   C17       1.0  0.36728  0.07940  0.69188  1.0000 0.1629705374
C   C18       1.0  0.63272  0.57940  0.80812  1.0000 0.1629705374
C   C19       1.0  0.63272  0.92060  0.30812  1.0000 0.1629705374
C   C20       1.0  0.36728  0.42060  0.19188  1.0000 0.1629705374
C   C21       1.0  0.37978  0.09530  0.64898  1.0000 0.10909751
C   C22       1.0  0.62022  0.59530  0.85102  1.0000 0.10909751
C   C23       1.0  0.62022  0.90470  0.35102  1.0000 0.10909751
C   C24       1.0  0.37978  0.40470  0.14898  1.0000 0.10909751
C   C25       1.0  0.47559  0.14710  0.62909  1.0000 0.0887586413
C   C26       1.0  0.52441  0.64710  0.87091  1.0000 0.0887586413
C   C27       1.0  0.52441  0.85290  0.37091  1.0000 0.0887586413
C   C28       1.0  0.47559  0.35290  0.12909  1.0000 0.0887586413
C   C29       1.0  0.56510  0.15630  0.64740  1.0000 0.1656861027
C   C30       1.0  0.43490  0.65630  0.85260  1.0000 0.1656861027
C   C31       1.0  0.43490  0.84370  0.35260  1.0000 0.1656861027
C   C32       1.0  0.56510  0.34370  0.14740  1.0000 0.1656861027
C   C33       1.0  0.60330  0.17570  0.61920  1.0000 -0.2019528901
C   C34       1.0  0.39670  0.67570  0.88080  1.0000 -0.2019528901
C   C35       1.0  0.39670  0.82430  0.38080  1.0000 -0.2019528901
C   C36       1.0  0.60330  0.32430  0.11920  1.0000 -0.2019528901
C   C37       1.0  0.68750  0.18420  0.64050  1.0000 -0.0502558373
C   C38       1.0  0.31250  0.68420  0.85950  1.0000 -0.0502558373
C   C39       1.0  0.31250  0.81580  0.35950  1.0000 -0.0502558373
C   C40       1.0  0.68750  0.31580  0.14050  1.0000 -0.0502558373
C   C41       1.0  0.73050  0.17240  0.68840  1.0000 -0.1702362224
C   C42       1.0  0.26950  0.67240  0.81160  1.0000 -0.1702362224
C   C43       1.0  0.26950  0.82760  0.31160  1.0000 -0.1702362224
C   C44       1.0  0.73050  0.32760  0.18840  1.0000 -0.1702362224
C   C45       1.0  0.69020  0.15010  0.71430  1.0000 0.0596775988
C   C46       1.0  0.30980  0.65010  0.78570  1.0000 0.0596775988
C   C47       1.0  0.30980  0.84990  0.28570  1.0000 0.0596775988
C   C48       1.0  0.69020  0.34990  0.21430  1.0000 0.0596775988
C   C49       1.0  0.13373  0.03750  0.50503  1.0000 0.0596775988
C   C50       1.0  0.86627  0.53750  0.99497  1.0000 0.0596775988
C   C51       1.0  0.86627  0.96250  0.49497  1.0000 0.0596775988
C   C52       1.0  0.13373  0.46250  0.00503  1.0000 0.0596775988
C   C53       1.0  0.10717  0.98680  0.52477  1.0000 -0.1464700046
C   C54       1.0  0.89283  0.48680  0.97523  1.0000 -0.1464700046
C   C55       1.0  0.89283  0.01320  0.47523  1.0000 -0.1464700046
C   C56       1.0  0.10717  0.51320  0.02477  1.0000 -0.1464700046
C   C57       1.0  0.15380  0.97050  0.57140  1.0000 -0.0585445793
C   C58       1.0  0.84620  0.47050  0.92860  1.0000 -0.0585445793
C   C59       1.0  0.84620  0.02950  0.42860  1.0000 -0.0585445793
C   C60       1.0  0.15380  0.52950  0.07140  1.0000 -0.0585445793
C   C61       1.0  0.22601  0.00550  0.59801  1.0000 -0.1917752604
C   C62       1.0  0.77399  0.50550  0.90199  1.0000 -0.1917752604
C   C63       1.0  0.77399  0.99450  0.40199  1.0000 -0.1917752604
C   C64       1.0  0.22601  0.49450  0.09801  1.0000 -0.1917752604
C   C65       1.0  0.24725  0.05630  0.57615  1.0000 0.1629705374
C   C66       1.0  0.75275  0.55630  0.92385  1.0000 0.1629705374
C   C67       1.0  0.75275  0.94370  0.42385  1.0000 0.1629705374
C   C68       1.0  0.24725  0.44370  0.07615  1.0000 0.1629705374
C   C69       1.0  0.32289  0.09620  0.60049  1.0000 0.1007561137
C   C70       1.0  0.67711  0.59620  0.89951  1.0000 0.1007561137
C   C71       1.0  0.67711  0.90380  0.39951  1.0000 0.1007561137
C   C72       1.0  0.32289  0.40380  0.10049  1.0000 0.1007561137
C   C73       1.0  0.41151  0.16780  0.58611  1.0000 0.0715079439
C   C74       1.0  0.58849  0.66780  0.91389  1.0000 0.0715079439
C   C75       1.0  0.58849  0.83220  0.41389  1.0000 0.0715079439
C   C76       1.0  0.41151  0.33220  0.08611  1.0000 0.0715079439
C   C77       1.0  0.40830  0.22160  0.55320  1.0000 0.1398678293
C   C78       1.0  0.59170  0.72160  0.94680  1.0000 0.1398678293
C   C79       1.0  0.59170  0.77840  0.44680  1.0000 0.1398678293
C   C80       1.0  0.40830  0.27840  0.05320  1.0000 0.1398678293
C   C81       1.0  0.45840  0.27630  0.56730  1.0000 -0.2100566886
C   C82       1.0  0.54160  0.77630  0.93270  1.0000 -0.2100566886
C   C83       1.0  0.54160  0.72370  0.43270  1.0000 -0.2100566886
C   C84       1.0  0.45840  0.22370  0.06730  1.0000 -0.2100566886
C   C85       1.0  0.44330  0.32770  0.53510  1.0000 -0.0405639526
C   C86       1.0  0.55670  0.82770  0.96490  1.0000 -0.0502558373
C   C87       1.0  0.55670  0.67230  0.46490  1.0000 -0.0405639526
C   C88       1.0  0.44330  0.17230  0.03510  1.0000 -0.0405639526
C   C89       1.0  0.38100  0.32280  0.49060  1.0000 -0.1585828791
C   C90       1.0  0.61900  0.82280  0.00940  1.0000 -0.1585828791
C   C91       1.0  0.61900  0.67720  0.50940  1.0000 -0.1585828791
C   C92       1.0  0.38100  0.17720  0.99060  1.0000 -0.1585828791
C   C93       1.0  0.33130  0.26680  0.47880  1.0000 0.0715079439
C   C94       1.0  0.66870  0.76680  0.02120  1.0000 0.0715079439
C   C95       1.0  0.66870  0.73320  0.52120  1.0000 0.0715079439
C   C96       1.0  0.33130  0.23320  0.97880  1.0000 0.0715079439
C   C97       1.0  0.18770  0.27220  0.52140  1.0000 0.0335527808
C   C98       1.0  0.81230  0.77220  0.97860  1.0000 0.0335527808
C   C99       1.0  0.81230  0.72780  0.47860  1.0000 0.0335527808
C   C100      1.0  0.18770  0.22780  0.02140  1.0000 0.0335527808
C   C101      1.0  0.13990  0.32800  0.50980  1.0000 -0.1702362224
C   C102      1.0  0.86010  0.82800  0.99020  1.0000 -0.1702362224
C   C103      1.0  0.86010  0.67200  0.49020  1.0000 -0.1702362224
C   C104      1.0  0.13990  0.17200  0.00980  1.0000 -0.1702362224
C   C105      1.0  0.07700  0.33350  0.46470  1.0000 -0.0502558373
C   C106      1.0  0.92300  0.83350  0.03530  1.0000 -0.0502558373
C   C107      1.0  0.92300  0.66650  0.53530  1.0000 -0.0502558373
C   C108      1.0  0.07700  0.16650  0.96470  1.0000 -0.0502558373
C   C109      1.0  0.06280  0.28290  0.43260  1.0000 -0.2100566886
C   C110      1.0  0.93720  0.78290  0.06740  1.0000 -0.2100566886
C   C111      1.0  0.93720  0.71710  0.56740  1.0000 -0.2100566886
C   C112      1.0  0.06280  0.21710  0.93260  1.0000 -0.2100566886
C   C113      1.0  0.11040  0.22670  0.44720  1.0000 0.1398678293
C   C114      1.0  0.88960  0.72670  0.05280  1.0000 0.1398678293
C   C115      1.0  0.88960  0.77330  0.55280  1.0000 0.1398678293
C   C116      1.0  0.11040  0.27330  0.94720  1.0000 0.1398678293
C   C117      1.0  0.10419  0.17050  0.41529  1.0000 0.0887586413
C   C118      1.0  0.89581  0.67050  0.08471  1.0000 0.0887586413
C   C119      1.0  0.89581  0.82950  0.58471  1.0000 0.0887586413
C   C120      1.0  0.10419  0.32950  0.91529  1.0000 0.0887586413
C   C121      1.0  0.18476  0.08880  0.40356  1.0000 0.0887586413
C   C122      1.0  0.81524  0.58880  0.09644  1.0000 0.0887586413
C   C123      1.0  0.81524  0.91120  0.59644  1.0000 0.0887586413
C   C124      1.0  0.18476  0.41120  0.90356  1.0000 0.0887586413
C   C125      1.0  0.25654  0.04570  0.43094  1.0000 0.1483327989
C   C126      1.0  0.74346  0.54570  0.06906  1.0000 0.1483327989
C   C127      1.0  0.74346  0.95430  0.56906  1.0000 0.1483327989
C   C128      1.0  0.25654  0.45430  0.93094  1.0000 0.1483327989
C   C129      1.0  0.26780  0.98420  0.41570  1.0000 -0.2019528901
C   C130      1.0  0.73220  0.48420  0.08430  1.0000 -0.2019528901
C   C131      1.0  0.73220  0.01580  0.58430  1.0000 -0.2019528901
C   C132      1.0  0.26780  0.51580  0.91570  1.0000 -0.2019528901
C   C133      1.0  0.33710  0.94830  0.44480  1.0000 -0.0502558373
C   C134      1.0  0.66290  0.44830  0.05520  1.0000 -0.0502558373
C   C135      1.0  0.66290  0.05170  0.55520  1.0000 -0.0502558373
C   C136      1.0  0.33710  0.55170  0.94480  1.0000 -0.0502558373
C   C137      1.0  0.39185  0.97470  0.48795  1.0000 -0.1585828791
C   C138      1.0  0.60815  0.47470  0.01205  1.0000 -0.1585828791
C   C139      1.0  0.60815  0.02530  0.51205  1.0000 -0.1585828791
C   C140      1.0  0.39185  0.52530  0.98795  1.0000 -0.1585828791
C   C141      1.0  0.37404  0.03510  0.50104  1.0000 0.0596775988
C   C142      1.0  0.62596  0.53510  0.99896  1.0000 0.0596775988
C   C143      1.0  0.62596  0.96490  0.49896  1.0000 0.0596775988
C   C144      1.0  0.37404  0.46490  0.00104  1.0000 0.0596775988
C   C145      1.0  0.83850  0.19360  0.27890  1.0000 0.0887586413
C   C146      1.0  0.16150  0.69360  0.22110  1.0000 0.0887586413
C   C147      1.0  0.16150  0.80640  0.72110  1.0000 0.0887586413
C   C148      1.0  0.83850  0.30640  0.77890  1.0000 0.0887586413
C   C149      1.0  0.79350  0.21170  0.30310  1.0000 -0.1803267244
C   C150      1.0  0.20650  0.71170  0.19690  1.0000 -0.1803267244
C   C151      1.0  0.20650  0.78830  0.69690  1.0000 -0.1803267244
C   C152      1.0  0.79350  0.28830  0.80310  1.0000 -0.1803267244
C   C153      1.0  0.83040  0.20860  0.35240  1.0000 -0.0502558373
C   C154      1.0  0.16960  0.70860  0.14760  1.0000 -0.0502558373
C   C155      1.0  0.16960  0.79140  0.64760  1.0000 -0.0502558373
C   C156      1.0  0.83040  0.29140  0.85240  1.0000 -0.0502558373
C   C157      1.0  0.91180  0.19050  0.37630  1.0000 -0.2019528901
C   C158      1.0  0.08820  0.69050  0.12370  1.0000 -0.2019528901
C   C159      1.0  0.08820  0.80950  0.62370  1.0000 -0.2019528901
C   C160      1.0  0.91180  0.30950  0.87630  1.0000 -0.2019528901
C   C161      1.0  0.95368  0.17490  0.34978  1.0000 0.1398678293
C   C162      1.0  0.04632  0.67490  0.15022  1.0000 0.1398678293
C   C163      1.0  0.04632  0.82510  0.65022  1.0000 0.1398678293
C   C164      1.0  0.95368  0.32510  0.84978  1.0000 0.1398678293
C   C165      1.0  0.04102  0.15460  0.37082  1.0000 0.0715079439
C   C166      1.0  0.95898  0.65460  0.12918  1.0000 0.0715079439
C   C167      1.0  0.95898  0.84540  0.62918  1.0000 0.0715079439
C   C168      1.0  0.04102  0.34540  0.87082  1.0000 0.0715079439
C   C169      1.0  0.13267  0.08900  0.35487  1.0000 0.0887586413
C   C170      1.0  0.86733  0.58900  0.14513  1.0000 0.0887586413
C   C171      1.0  0.86733  0.91100  0.64513  1.0000 0.0887586413
C   C172      1.0  0.13267  0.41100  0.85487  1.0000 0.0887586413
C   C173      1.0  0.14734  0.06520  0.31454  1.0000 0.1483327989
C   C174      1.0  0.85266  0.56520  0.18546  1.0000 0.1483327989
C   C175      1.0  0.85266  0.93480  0.68546  1.0000 0.1483327989
C   C176      1.0  0.14734  0.43480  0.81454  1.0000 0.1483327989
C   C177      1.0  0.22139  0.04730  0.31709  1.0000 -0.1803267244
C   C178      1.0  0.77861  0.54730  0.18291  1.0000 -0.1803267244
C   C179      1.0  0.77861  0.95270  0.68291  1.0000 -0.1803267244
C   C180      1.0  0.22139  0.45270  0.81709  1.0000 -0.1803267244
C   C181      1.0  0.22790  0.02630  0.27630  1.0000 -0.0405639526
C   C182      1.0  0.77210  0.52630  0.22370  1.0000 -0.0405639526
C   C183      1.0  0.77210  0.97370  0.72370  1.0000 -0.0405639526
C   C184      1.0  0.22790  0.47370  0.77630  1.0000 -0.0405639526
C   C185      1.0  0.15800  0.02440  0.23370  1.0000 -0.1585828791
C   C186      1.0  0.84200  0.52440  0.26630  1.0000 -0.1585828791
C   C187      1.0  0.84200  0.97560  0.76630  1.0000 -0.1585828791
C   C188      1.0  0.15800  0.47560  0.73370  1.0000 -0.1585828791
C   C189      1.0  0.08520  0.04600  0.23320  1.0000 0.0793336128
C   C190      1.0  0.91480  0.54600  0.26680  1.0000 0.0793336128
C   C191      1.0  0.91480  0.95400  0.76680  1.0000 0.0793336128
C   C192      1.0  0.08520  0.45400  0.73320  1.0000 0.0793336128
C   C193      1.0  0.82674  0.36740  0.03014  1.0000 -0.532743339
C   C194      1.0  0.17326  0.86740  0.46986  1.0000 -0.532743339
C   C195      1.0  0.17326  0.63260  0.96986  1.0000 -0.532743339
C   C196      1.0  0.82674  0.13260  0.53014  1.0000 -0.532743339
C   C197      1.0  0.16652  0.22020  0.21422  1.0000 -0.5206513944
C   C198      1.0  0.83348  0.72020  0.28578  1.0000 -0.5206513944
C   C199      1.0  0.83348  0.77980  0.78578  1.0000 -0.5206513944
C   C200      1.0  0.16652  0.27980  0.71422  1.0000 -0.5206513944
C   C201      1.0  0.25259  0.24580  0.24619  1.0000 -0.0658520292
C   C202      1.0  0.74741  0.74580  0.25381  1.0000 -0.0658520292
C   C203      1.0  0.74741  0.75420  0.75381  1.0000 -0.0658520292
C   C204      1.0  0.25259  0.25420  0.74619  1.0000 -0.0658520292
C   C205      1.0  0.30900  0.18590  0.26530  1.0000 -0.502696121
C   C206      1.0  0.69100  0.68590  0.23470  1.0000 -0.502696121
C   C207      1.0  0.69100  0.81410  0.73470  1.0000 -0.502696121
C   C208      1.0  0.30900  0.31410  0.76530  1.0000 -0.502696121
C   C209      1.0  0.70998  0.35940  0.94678  1.0000 -0.532743339
C   C210      1.0  0.29002  0.85940  0.55322  1.0000 -0.5355611387
C   C211      1.0  0.29002  0.64060  0.05322  1.0000 -0.5355611387
C   C212      1.0  0.70998  0.14060  0.44678  1.0000 -0.532743339
C   C213      1.0  0.74761  0.33230  0.99701  1.0000 -0.0585445793
C   C214      1.0  0.25239  0.83230  0.50299  1.0000 -0.0585445793
C   C215      1.0  0.25239  0.66770  0.00299  1.0000 -0.0585445793
C   C216      1.0  0.74761  0.16770  0.49701  1.0000 -0.0585445793
N   N1        1.0  0.43745  0.06530  0.73075  1.0000 -0.2907152765
N   N2        1.0  0.56255  0.56530  0.76925  1.0000 -0.2907152765
N   N3        1.0  0.56255  0.93470  0.26925  1.0000 -0.2907152765
N   N4        1.0  0.43745  0.43470  0.23075  1.0000 -0.2907152765
N   N5        1.0  0.45594  0.11450  0.65964  1.0000 -0.3077571894
N   N6        1.0  0.54406  0.61450  0.84036  1.0000 -0.3077571894
N   N7        1.0  0.54406  0.88550  0.34036  1.0000 -0.3077571894
N   N8        1.0  0.45594  0.38550  0.15964  1.0000 -0.3077571894
N   N9        1.0  0.60853  0.14130  0.69383  1.0000 -0.2695849954
N   N10       1.0  0.39147  0.64130  0.80617  1.0000 -0.2695849954
N   N11       1.0  0.39147  0.85870  0.30617  1.0000 -0.2695849954
N   N12       1.0  0.60853  0.35870  0.19383  1.0000 -0.2695849954
N   N13       1.0  0.20210  0.07160  0.52960  1.0000 -0.2695849954
N   N14       1.0  0.79790  0.57160  0.97040  1.0000 -0.2695849954
N   N15       1.0  0.79790  0.92840  0.47040  1.0000 -0.2695849954
N   N16       1.0  0.20210  0.42840  0.02960  1.0000 -0.2695849954
N   N17       1.0  0.33940  0.13600  0.57210  1.0000 -0.2630923433
N   N18       1.0  0.66060  0.63600  0.92790  1.0000 -0.2630923433
N   N19       1.0  0.66060  0.86400  0.42790  1.0000 -0.2630923433
N   N20       1.0  0.33940  0.36400  0.07210  1.0000 -0.2695849954
N   N21       1.0  0.34367  0.21780  0.50937  1.0000 -0.2788249297
N   N22       1.0  0.65633  0.71780  0.99063  1.0000 -0.2788249297
N   N23       1.0  0.65633  0.78220  0.49063  1.0000 -0.2788249297
N   N24       1.0  0.34367  0.28220  0.00937  1.0000 -0.2788249297
N   N25       1.0  0.17508  0.22200  0.49108  1.0000 -0.2788249297
N   N26       1.0  0.82492  0.72200  0.00892  1.0000 -0.2907152765
N   N27       1.0  0.82492  0.77800  0.50892  1.0000 -0.2788249297
N   N28       1.0  0.17508  0.27800  0.99108  1.0000 -0.2907152765
N   N29       1.0  0.17093  0.13270  0.43113  1.0000 -0.2695849954
N   N30       1.0  0.82907  0.63270  0.06887  1.0000 -0.2695849954
N   N31       1.0  0.82907  0.86730  0.56887  1.0000 -0.2695849954
N   N32       1.0  0.17093  0.36730  0.93113  1.0000 -0.2695849954
N   N33       1.0  0.30753  0.06960  0.47453  1.0000 -0.2695849954
N   N34       1.0  0.69247  0.56960  0.02547  1.0000 -0.2695849954
N   N35       1.0  0.69247  0.93040  0.52547  1.0000 -0.2695849954
N   N36       1.0  0.30753  0.43040  0.97453  1.0000 -0.2695849954
N   N37       1.0  0.91630  0.17370  0.30140  1.0000 -0.3077571894
N   N38       1.0  0.08370  0.67370  0.19860  1.0000 -0.3077571894
N   N39       1.0  0.08370  0.82630  0.69860  1.0000 -0.3077571894
N   N40       1.0  0.91630  0.32630  0.80140  1.0000 -0.3077571894
N   N41       1.0  0.05983  0.11820  0.34163  1.0000 -0.3000775779
N   N42       1.0  0.94017  0.61820  0.15837  1.0000 -0.3000775779
N   N43       1.0  0.94017  0.88180  0.65837  1.0000 -0.3000775779
N   N44       1.0  0.05983  0.38180  0.84163  1.0000 -0.3000775779
N   N45       1.0  0.07930  0.06660  0.27190  1.0000 -0.3000775779
N   N46       1.0  0.92070  0.56660  0.22810  1.0000 -0.3000775779
N   N47       1.0  0.92070  0.93340  0.72810  1.0000 -0.3000775779
N   N48       1.0  0.07930  0.43340  0.77190  1.0000 -0.3000775779
O   O1        1.0  0.93467  0.15313  0.20097  1.0000 -0.7478455596
O   O2        1.0  0.06533  0.65313  0.29903  1.0000 -0.7478455596
O   O3        1.0  0.06533  0.84687  0.79903  1.0000 -0.7478455596
O   O4        1.0  0.93467  0.34687  0.70097  1.0000 -0.7478455596
O   O5        1.0  0.90297  0.28588  0.18939  1.0000 -0.8597674611
O   O6        1.0  0.09703  0.78588  0.31061  1.0000 -0.8597674611
O   O7        1.0  0.09703  0.71412  0.81061  1.0000 -0.8597674611
O   O8        1.0  0.90297  0.21412  0.68939  1.0000 -0.8597674611
O   O9        1.0  0.02193  0.43619  0.19283  1.0000 -0.8108576778
O   O10       1.0  0.97807  0.93619  0.30717  1.0000 -0.8108576778
O   O11       1.0  0.97807  0.56381  0.80717  1.0000 -0.8108576778
O   O12       1.0  0.02193  0.06381  0.69283  1.0000 -0.8108576778
O   O13       1.0  0.93673  0.36570  0.12387  1.0000 -0.8223293143
O   O14       1.0  0.06327  0.86570  0.37613  1.0000 -0.8223293143
O   O15       1.0  0.06327  0.63430  0.87613  1.0000 -0.8223293143
O   O16       1.0  0.93673  0.13430  0.62387  1.0000 -0.8223293143
O   O17       1.0  0.01014  0.22796  0.15565  1.0000 -0.8597674611
O   O18       1.0  0.98986  0.72796  0.34435  1.0000 -0.8597674611
O   O19       1.0  0.98986  0.77204  0.84435  1.0000 -0.8597674611
O   O20       1.0  0.01014  0.27204  0.65565  1.0000 -0.8597674611
O   O21       1.0  0.94570  0.27753  0.06814  1.0000 -0.8108576778
O   O22       1.0  0.05430  0.77753  0.43186  1.0000 -0.8108576778
O   O23       1.0  0.05430  0.72247  0.93186  1.0000 -0.8108576778
O   O24       1.0  0.94570  0.22247  0.56814  1.0000 -0.8108576778
O   O25       1.0  0.08279  0.22056  0.09389  1.0000 -0.8286632243
O   O26       1.0  0.91721  0.72056  0.40611  1.0000 -0.8286632243
O   O27       1.0  0.91721  0.77944  0.90611  1.0000 -0.8286632243
O   O28       1.0  0.08279  0.27944  0.59389  1.0000 -0.8286632243
O   O29       1.0  0.02728  0.39831  0.07718  1.0000 -0.7792071762
O   O30       1.0  0.97272  0.89831  0.42282  1.0000 -0.7867526355
O   O31       1.0  0.97272  0.60169  0.92282  1.0000 -0.7867526355
O   O32       1.0  0.02728  0.10169  0.57718  1.0000 -0.7792071762
O   O33       1.0  0.89494  0.15639  0.10454  1.0000 -1.0562745872
O   O34       1.0  0.10506  0.65639  0.39546  1.0000 -1.0526259485
O   O35       1.0  0.10506  0.84361  0.89546  1.0000 -1.0526259485
O   O36       1.0  0.89494  0.34361  0.60454  1.0000 -1.0526259485
O   O37       1.0  0.83351  0.27577  0.09481  1.0000 -0.7749722543
O   O38       1.0  0.16649  0.77577  0.40519  1.0000 -0.7792071762
O   O39       1.0  0.16649  0.72423  0.90519  1.0000 -0.7792071762
O   O40       1.0  0.83351  0.22423  0.59481  1.0000 -0.7792071762
O   O41       1.0  0.09713  0.32576  0.15303  1.0000 -0.7964847925
O   O42       1.0  0.90287  0.82576  0.34697  1.0000 -0.7964847925
O   O43       1.0  0.90287  0.67424  0.84697  1.0000 -0.7964847925
O   O44       1.0  0.09713  0.17424  0.65303  1.0000 -0.7964847925
O   O45       1.0  0.06221  0.31031  0.22156  1.0000 -0.7280461732
O   O46       1.0  0.93779  0.81031  0.27844  1.0000 -0.7280461732
O   O47       1.0  0.93779  0.68969  0.77844  1.0000 -0.7280461732
O   O48       1.0  0.06221  0.18969  0.72156  1.0000 -0.7280461732
O   O49       1.0  0.56917  0.00040  0.69547  1.0000 -0.7478455596
O   O50       1.0  0.43083  0.50040  0.80453  1.0000 -0.7478455596
O   O51       1.0  0.43083  0.99960  0.30453  1.0000 -0.7478455596
O   O52       1.0  0.56917  0.49960  0.19547  1.0000 -0.7478455596
O   O53       1.0  0.55005  0.16320  0.76605  1.0000 -0.7183345798
O   O54       1.0  0.44995  0.66320  0.73395  1.0000 -0.7183345798
O   O55       1.0  0.44995  0.83680  0.23395  1.0000 -0.7183345798
O   O56       1.0  0.55005  0.33680  0.26605  1.0000 -0.7183345798
O   O57       1.0  0.43075  0.22036  0.35035  1.0000 -0.83841517
O   O58       1.0  0.56925  0.72036  0.14965  1.0000 -0.83841517
O   O59       1.0  0.56925  0.77964  0.64965  1.0000 -0.83841517
O   O60       1.0  0.43075  0.27964  0.85035  1.0000 -0.83841517
O   O61       1.0  0.46587  0.25250  0.93467  1.0000 -0.8673772755
O   O62       1.0  0.53413  0.75250  0.56533  1.0000 -0.8673772755
O   O63       1.0  0.53413  0.74750  0.06533  1.0000 -0.8673772755
O   O64       1.0  0.46587  0.24750  0.43467  1.0000 -0.8673772755
O   O65       1.0  0.54390  0.36765  0.90760  1.0000 -0.83841517
O   O66       1.0  0.45610  0.86765  0.59240  1.0000 -0.83841517
O   O67       1.0  0.45610  0.63235  0.09240  1.0000 -0.83841517
O   O68       1.0  0.54390  0.13235  0.40760  1.0000 -0.83841517
O   O69       1.0  0.54209  0.17740  0.85429  1.0000 -0.892526159
O   O70       1.0  0.45791  0.67740  0.64571  1.0000 -0.892526159
O   O71       1.0  0.45791  0.82260  0.14571  1.0000 -0.892526159
O   O72       1.0  0.54209  0.32260  0.35429  1.0000 -0.892526159
O   O73       1.0  0.44752  0.25180  0.27772  1.0000 -0.7372555676
O   O74       1.0  0.55248  0.75180  0.22228  1.0000 -0.7372555676
O   O75       1.0  0.55248  0.74820  0.72228  1.0000 -0.7372555676
O   O76       1.0  0.44752  0.24820  0.77772  1.0000 -0.7372555676
O   O77       1.0  0.58718  0.29378  0.77748  1.0000 -0.9154671374
O   O78       1.0  0.41282  0.79378  0.72252  1.0000 -0.9154671374
O   O79       1.0  0.41282  0.70622  0.22252  1.0000 -0.9154671374
O   O80       1.0  0.58718  0.20622  0.27748  1.0000 -0.9154671374
O   O81       1.0  0.60783  0.31040  0.85943  1.0000 -0.8798697236
O   O82       1.0  0.39217  0.81040  0.64057  1.0000 -0.8798697236
O   O83       1.0  0.39217  0.68960  0.14057  1.0000 -0.8798697236
O   O84       1.0  0.60783  0.18960  0.35943  1.0000 -0.8798697236
O   O85       1.0  0.45997  0.13296  0.30197  1.0000 -0.8286632243
O   O86       1.0  0.54003  0.63296  0.19803  1.0000 -0.8286632243
O   O87       1.0  0.54003  0.86704  0.69803  1.0000 -0.8286632243
O   O88       1.0  0.45997  0.36704  0.80197  1.0000 -0.8286632243
O   O89       1.0  0.41547  0.94263  0.65196  1.0000 -0.8467839899
O   O90       1.0  0.58453  0.44263  0.84804  1.0000 -0.8467839899
O   O91       1.0  0.58453  0.05737  0.34804  1.0000 -0.8467839899
O   O92       1.0  0.41547  0.55737  0.15196  1.0000 -0.8467839899
O   O93       1.0  0.60028  0.90964  0.63708  1.0000 -0.8223293143
O   O94       1.0  0.39972  0.40964  0.86292  1.0000 -0.8223293143
O   O95       1.0  0.39972  0.09036  0.36292  1.0000 -0.8223293143
O   O96       1.0  0.60028  0.59036  0.13708  1.0000 -0.8223293143
O   O97       1.0  0.60836  0.25531  0.93116  1.0000 -0.7478455596
O   O98       1.0  0.39164  0.75531  0.56884  1.0000 -0.7478455596
O   O99       1.0  0.39164  0.74469  0.06884  1.0000 -0.7478455596
O   O100      1.0  0.60836  0.24469  0.43116  1.0000 -0.7478455596
