# DDEC6 charges by PACMAN v1.1 (https://github.com/mtap-research/PACMAN-charge/)
data_2009[Ag][nan]3[ASR]2
_chemical_formula_sum              "Ag4 H24 C48 N44 O20"
_cell_length_a       10.8347
_cell_length_b       10.8347
_cell_length_c       24.046
_cell_angle_alpha    70.524
_cell_angle_beta     109.476
_cell_angle_gamma    135.293

_symmetry_space_group_name_H-M    "P 1"
_symmetry_Int_Tables_number       1

loop_
  _symmetry_equiv_pos_as_xyz
  'x, y, z'

loop_
  _atom_site_type_symbol
  _atom_site_label
  _atom_site_symmetry_multiplicity
  _atom_site_fract_x
  _atom_site_fract_y
  _atom_site_fract_z
  _atom_site_occupancy
  _atom_site_charge
Ag  Ag1       1.0  0.85943  0.58983  0.15297  1.0000 0.2908429936
Ag  Ag2       1.0  0.58983  0.85943  0.34703  1.0000 0.2908429936
Ag  Ag3       1.0  0.14057  0.41017  0.84703  1.0000 0.2908429936
Ag  Ag4       1.0  0.41017  0.14057  0.65297  1.0000 0.2908429936
H   H1        1.0  0.75200  0.60060  0.99530  1.0000 0.1108631471
H   H2        1.0  0.60060  0.75200  0.50470  1.0000 0.1108631471
H   H3        1.0  0.24800  0.39940  0.00470  1.0000 0.1108631471
H   H4        1.0  0.39940  0.24800  0.49530  1.0000 0.1108631471
H   H5        1.0  0.18240  0.71480  0.09350  1.0000 0.1218250413
H   H6        1.0  0.71480  0.18240  0.40650  1.0000 0.1218250413
H   H7        1.0  0.81760  0.28520  0.90650  1.0000 0.1218250413
H   H8        1.0  0.28520  0.81760  0.59350  1.0000 0.1218250413
H   H9        1.0  0.32990  0.74730  0.72210  1.0000 0.1312826466
H   H10       1.0  0.74730  0.32990  0.77790  1.0000 0.1312826466
H   H11       1.0  0.67010  0.25270  0.27790  1.0000 0.1312826466
H   H12       1.0  0.25270  0.67010  0.22210  1.0000 0.1312826466
H   H13       1.0  0.38250  0.05770  0.79530  1.0000 0.1312826466
H   H14       1.0  0.05770  0.38250  0.70470  1.0000 0.1312826466
H   H15       1.0  0.61750  0.94230  0.20470  1.0000 0.1312826466
H   H16       1.0  0.94230  0.61750  0.29530  1.0000 0.1312826466
H   H17       1.0  0.00820  0.96480  0.07020  1.0000 0.1108631471
H   H18       1.0  0.96480  0.00820  0.42980  1.0000 0.1108631471
H   H19       1.0  0.99180  0.03520  0.92980  1.0000 0.1108631471
H   H20       1.0  0.03520  0.99180  0.57020  1.0000 0.1108631471
H   H21       1.0  0.51470  0.59510  0.09910  1.0000 0.1312826466
H   H22       1.0  0.59510  0.51470  0.40090  1.0000 0.1312826466
H   H23       1.0  0.48530  0.40490  0.90090  1.0000 0.1312826466
H   H24       1.0  0.40490  0.48530  0.59910  1.0000 0.1312826466
C   C1        1.0  0.37664  0.77236  0.02051  1.0000 0.2235408112
C   C2        1.0  0.77236  0.37664  0.47949  1.0000 0.2235408112
C   C3        1.0  0.62336  0.22764  0.97949  1.0000 0.2235408112
C   C4        1.0  0.22764  0.62336  0.52051  1.0000 0.2235408112
C   C5        1.0  0.23324  0.75396  0.97910  1.0000 -0.0168054533
C   C6        1.0  0.75396  0.23324  0.52090  1.0000 -0.0168054533
C   C7        1.0  0.76676  0.24604  0.02090  1.0000 -0.0168054533
C   C8        1.0  0.24604  0.76676  0.47910  1.0000 -0.0168054533
C   C9        1.0  0.22585  0.77695  0.91824  1.0000 -0.0340160591
C   C10       1.0  0.77695  0.22585  0.58176  1.0000 -0.0340160591
C   C11       1.0  0.77415  0.22305  0.08176  1.0000 -0.0340160591
C   C12       1.0  0.22305  0.77415  0.41824  1.0000 -0.0340160591
C   C13       1.0  0.35015  0.81145  0.89407  1.0000 -0.0043009558
C   C14       1.0  0.81145  0.35015  0.60593  1.0000 -0.0043009558
C   C15       1.0  0.64985  0.18855  0.10593  1.0000 -0.0055768146
C   C16       1.0  0.18855  0.64985  0.39407  1.0000 -0.0043009558
C   C17       1.0  0.48102  0.81758  0.93328  1.0000 -0.0359906689
C   C18       1.0  0.81758  0.48102  0.56672  1.0000 -0.0340160591
C   C19       1.0  0.51898  0.18242  0.06672  1.0000 -0.0340160591
C   C20       1.0  0.18242  0.51898  0.43328  1.0000 -0.0340160591
C   C21       1.0  0.49458  0.79762  0.99427  1.0000 -0.0359906689
C   C22       1.0  0.79762  0.49458  0.50573  1.0000 -0.0359906689
C   C23       1.0  0.50542  0.20238  0.00573  1.0000 -0.0359906689
C   C24       1.0  0.20238  0.50542  0.49427  1.0000 -0.0359906689
C   C25       1.0  0.86338  0.63222  0.00670  1.0000 0.1392786805
C   C26       1.0  0.63222  0.86338  0.49330  1.0000 0.1392786805
C   C27       1.0  0.13662  0.36778  0.99330  1.0000 0.1392786805
C   C28       1.0  0.36778  0.13662  0.50670  1.0000 0.1392786805
C   C29       1.0  0.09330  0.69330  0.06080  1.0000 0.1108631471
C   C30       1.0  0.69330  0.09330  0.43920  1.0000 0.1108631471
C   C31       1.0  0.90670  0.30670  0.93920  1.0000 0.1108631471
C   C32       1.0  0.30670  0.90670  0.56080  1.0000 0.1108631471
C   C33       1.0  0.33590  0.79430  0.75094  1.0000 0.157741128
C   C34       1.0  0.79430  0.33590  0.74906  1.0000 0.157741128
C   C35       1.0  0.66410  0.20570  0.24906  1.0000 0.157741128
C   C36       1.0  0.20570  0.66410  0.25094  1.0000 0.157741128
C   C37       1.0  0.36460  0.96340  0.78918  1.0000 0.0974338114
C   C38       1.0  0.96340  0.36460  0.71082  1.0000 0.0974338114
C   C39       1.0  0.63540  0.03660  0.21082  1.0000 0.0974338114
C   C40       1.0  0.03660  0.63540  0.28918  1.0000 0.0974338114
C   C41       1.0  0.88447  0.89673  0.06551  1.0000 0.157741128
C   C42       1.0  0.89673  0.88447  0.43449  1.0000 0.157741128
C   C43       1.0  0.11553  0.10327  0.93449  1.0000 0.157741128
C   C44       1.0  0.10327  0.11553  0.56551  1.0000 0.157741128
C   C45       1.0  0.62038  0.69602  0.08240  1.0000 0.1218250413
C   C46       1.0  0.69602  0.62038  0.41760  1.0000 0.1108631471
C   C47       1.0  0.37962  0.30398  0.91760  1.0000 0.1218250413
C   C48       1.0  0.30398  0.37962  0.58240  1.0000 0.1218250413
N   N1        1.0  0.10038  0.70782  0.00361  1.0000 0.1312826466
N   N2        1.0  0.70782  0.10038  0.49639  1.0000 0.1312826466
N   N3        1.0  0.89962  0.29218  0.99639  1.0000 0.1312826466
N   N4        1.0  0.29218  0.89962  0.50361  1.0000 0.1312826466
N   N5        1.0  0.94916  0.66667  0.96833  1.0000 -0.246571479
N   N6        1.0  0.66667  0.94916  0.53167  1.0000 -0.246571479
N   N7        1.0  0.05084  0.33333  0.03167  1.0000 -0.246571479
N   N8        1.0  0.33333  0.05084  0.46833  1.0000 -0.246571479
N   N9        1.0  0.94529  0.64511  0.06456  1.0000 -0.3077201187
N   N10       1.0  0.64511  0.94529  0.43544  1.0000 -0.3077201187
N   N11       1.0  0.05471  0.35489  0.93544  1.0000 -0.3077201187
N   N12       1.0  0.35489  0.05471  0.56456  1.0000 -0.3077201187
N   N13       1.0  0.08815  0.76865  0.87359  1.0000 0.5090479762
N   N14       1.0  0.76865  0.08815  0.62641  1.0000 0.5090479762
N   N15       1.0  0.91185  0.23135  0.12641  1.0000 0.5090479762
N   N16       1.0  0.23135  0.91185  0.37359  1.0000 0.5090479762
N   N17       1.0  0.33915  0.83245  0.83156  1.0000 0.1218250413
N   N18       1.0  0.83245  0.33915  0.66844  1.0000 0.1218250413
N   N19       1.0  0.66085  0.16755  0.16844  1.0000 0.1218250413
N   N20       1.0  0.16755  0.66085  0.33156  1.0000 0.1218250413
N   N21       1.0  0.32045  0.72115  0.80717  1.0000 -0.2355129435
N   N22       1.0  0.72115  0.32045  0.69283  1.0000 -0.2355129435
N   N23       1.0  0.67955  0.27885  0.19283  1.0000 -0.2355129435
N   N24       1.0  0.27885  0.67955  0.30717  1.0000 -0.2355129435
N   N25       1.0  0.36105  0.94195  0.73761  1.0000 -0.2683188111
N   N26       1.0  0.94195  0.36105  0.76239  1.0000 -0.2683188111
N   N27       1.0  0.63895  0.05805  0.26239  1.0000 -0.2683188111
N   N28       1.0  0.05805  0.63895  0.23761  1.0000 -0.2683188111
N   N29       1.0  0.60478  0.84122  0.90812  1.0000 0.5182729274
N   N30       1.0  0.84122  0.60478  0.59188  1.0000 0.5182729274
N   N31       1.0  0.39522  0.15878  0.09188  1.0000 0.5182729274
N   N32       1.0  0.15878  0.39522  0.40812  1.0000 0.5182729274
N   N33       1.0  0.63168  0.80712  0.03300  1.0000 0.1392786805
N   N34       1.0  0.80712  0.63168  0.46700  1.0000 0.1392786805
N   N35       1.0  0.36832  0.19288  0.96700  1.0000 0.1392786805
N   N36       1.0  0.19288  0.36832  0.53300  1.0000 0.1392786805
N   N37       1.0  0.80378  0.93842  0.02146  1.0000 -0.2615769445
N   N38       1.0  0.93842  0.80378  0.47854  1.0000 -0.2615769445
N   N39       1.0  0.19622  0.06158  0.97854  1.0000 -0.2615769445
N   N40       1.0  0.06158  0.19622  0.52146  1.0000 -0.2615769445
N   N41       1.0  0.77752  0.74788  0.10425  1.0000 -0.2759585917
N   N42       1.0  0.74788  0.77752  0.39575  1.0000 -0.2759585917
N   N43       1.0  0.22248  0.25212  0.89575  1.0000 -0.2759585917
N   N44       1.0  0.25212  0.22248  0.60425  1.0000 -0.2759585917
O   O1        1.0  0.39529  0.76291  0.07598  1.0000 -0.4826160684
O   O2        1.0  0.76291  0.39529  0.42402  1.0000 -0.4826160684
O   O3        1.0  0.60471  0.23709  0.92402  1.0000 -0.4826160684
O   O4        1.0  0.23709  0.60471  0.57598  1.0000 -0.4826160684
O   O5        1.0  0.11084  0.90216  0.86030  1.0000 -0.2954854533
O   O6        1.0  0.90216  0.11084  0.63970  1.0000 -0.2954854533
O   O7        1.0  0.88916  0.09784  0.13970  1.0000 -0.2954854533
O   O8        1.0  0.09784  0.88916  0.36030  1.0000 -0.2954854533
O   O9        1.0  0.96679  0.63141  0.85126  1.0000 -0.317485632
O   O10       1.0  0.63141  0.96679  0.64874  1.0000 -0.317485632
O   O11       1.0  0.03321  0.36859  0.14874  1.0000 -0.317485632
O   O12       1.0  0.36859  0.03321  0.35126  1.0000 -0.317485632
O   O13       1.0  0.60626  0.72214  0.92353  1.0000 -0.3287248403
O   O14       1.0  0.72214  0.60626  0.57647  1.0000 -0.3287248403
O   O15       1.0  0.39374  0.27786  0.07647  1.0000 -0.3287248403
O   O16       1.0  0.27786  0.39374  0.42353  1.0000 -0.3287248403
O   O17       1.0  0.69606  0.97614  0.87338  1.0000 -0.3077201187
O   O18       1.0  0.97614  0.69606  0.62662  1.0000 -0.3077201187
O   O19       1.0  0.30394  0.02386  0.12662  1.0000 -0.3077201187
O   O20       1.0  0.02386  0.30394  0.37338  1.0000 -0.3077201187
