# DDEC6 charges by PACMAN v1.1 (https://github.com/mtap-research/PACMAN-charge/)
data_2009[Zn][srs]3[ASR]1
_chemical_formula_sum              "Zn4 H12 C28 N4 O16"
_cell_length_a       10.4465
_cell_length_b       11.7859
_cell_length_c       14.6048
_cell_angle_alpha    90
_cell_angle_beta     90
_cell_angle_gamma    90

_symmetry_space_group_name_H-M    "P 1"
_symmetry_Int_Tables_number       1

loop_
  _symmetry_equiv_pos_as_xyz
  'x, y, z'

loop_
  _atom_site_type_symbol
  _atom_site_label
  _atom_site_symmetry_multiplicity
  _atom_site_fract_x
  _atom_site_fract_y
  _atom_site_fract_z
  _atom_site_occupancy
  _atom_site_charge
Zn  Zn1       1.0  0.14920  0.21943  0.15983  1.0000 0.8034061957
Zn  Zn2       1.0  0.35080  0.78057  0.65983  1.0000 0.8034061957
Zn  Zn3       1.0  0.85080  0.71943  0.34017  1.0000 0.8034061957
Zn  Zn4       1.0  0.64920  0.28057  0.84017  1.0000 0.8034061957
H   H1        1.0  0.04001  0.97572  0.21657  1.0000 0.1107864194
H   H2        1.0  0.45999  0.02428  0.71657  1.0000 0.1107864194
H   H3        1.0  0.95999  0.47572  0.28343  1.0000 0.1107864194
H   H4        1.0  0.54001  0.52428  0.78343  1.0000 0.1107864194
H   H5        1.0  0.68300  0.97484  0.06536  1.0000 0.1359921266
H   H6        1.0  0.81700  0.02516  0.56536  1.0000 0.1359921266
H   H7        1.0  0.31700  0.47484  0.43464  1.0000 0.1359921266
H   H8        1.0  0.18300  0.52516  0.93464  1.0000 0.1359921266
H   H9        1.0  0.97030  0.23790  0.02951  1.0000 0.1107864194
H   H10       1.0  0.52970  0.76210  0.52951  1.0000 0.1107864194
H   H11       1.0  0.02970  0.73790  0.47049  1.0000 0.1107864194
H   H12       1.0  0.47030  0.26210  0.97049  1.0000 0.1107864194
C   C1        1.0  0.97531  0.01234  0.16551  1.0000 0.0882900488
C   C2        1.0  0.52469  0.98766  0.66551  1.0000 0.0882900488
C   C3        1.0  0.02469  0.51234  0.33449  1.0000 0.0882900488
C   C4        1.0  0.47531  0.48766  0.83449  1.0000 0.0882900488
C   C5        1.0  0.85715  0.96138  0.14568  1.0000 -0.0540337781
C   C6        1.0  0.64285  0.03862  0.64568  1.0000 -0.0540337781
C   C7        1.0  0.14285  0.46138  0.35432  1.0000 -0.0540337781
C   C8        1.0  0.35715  0.53862  0.85432  1.0000 -0.0540337781
C   C9        1.0  0.77651  0.01208  0.08089  1.0000 -0.0399190336
C   C10       1.0  0.72349  0.98792  0.58089  1.0000 -0.0399190336
C   C11       1.0  0.22349  0.51208  0.41911  1.0000 -0.0399190336
C   C12       1.0  0.27651  0.48792  0.91911  1.0000 -0.0399190336
C   C13       1.0  0.93594  0.15802  0.05971  1.0000 0.0882900488
C   C14       1.0  0.56406  0.84198  0.55971  1.0000 0.0882900488
C   C15       1.0  0.06406  0.65802  0.44029  1.0000 0.0882900488
C   C16       1.0  0.43594  0.34198  0.94029  1.0000 0.0882900488
C   C17       1.0  0.23661  0.33108  0.03296  1.0000 0.5600858797
C   C18       1.0  0.26339  0.66892  0.53296  1.0000 0.5600858797
C   C19       1.0  0.76339  0.83108  0.46704  1.0000 0.5600858797
C   C20       1.0  0.73661  0.16892  0.96704  1.0000 0.5600858797
C   C21       1.0  0.31753  0.38902  0.96354  1.0000 -0.0540337781
C   C22       1.0  0.18247  0.61098  0.46354  1.0000 -0.0540337781
C   C23       1.0  0.68247  0.88902  0.53646  1.0000 -0.0540337781
C   C24       1.0  0.81753  0.11098  0.03646  1.0000 -0.0540337781
C   C25       1.0  0.18566  0.35653  0.30325  1.0000 0.5542114843
C   C26       1.0  0.31434  0.64347  0.80325  1.0000 0.5542114843
C   C27       1.0  0.81434  0.85653  0.19675  1.0000 0.5542114843
C   C28       1.0  0.68566  0.14347  0.69675  1.0000 0.5542114843
N   N1        1.0  0.01333  0.11008  0.12372  1.0000 -0.2473954986
N   N2        1.0  0.48667  0.88992  0.62372  1.0000 -0.2473954986
N   N3        1.0  0.98667  0.61008  0.37628  1.0000 -0.2473954986
N   N4        1.0  0.51333  0.38992  0.87628  1.0000 -0.2473954986
O   O1        1.0  0.29132  0.24684  0.07616  1.0000 -0.5402420591
O   O2        1.0  0.20868  0.75316  0.57616  1.0000 -0.5402420591
O   O3        1.0  0.70868  0.74684  0.42384  1.0000 -0.5402420591
O   O4        1.0  0.79132  0.25316  0.92384  1.0000 -0.5402420591
O   O5        1.0  0.12261  0.36234  0.04814  1.0000 -0.5196652691
O   O6        1.0  0.37739  0.63766  0.54814  1.0000 -0.5196652691
O   O7        1.0  0.87739  0.86234  0.45186  1.0000 -0.5196652691
O   O8        1.0  0.62261  0.13766  0.95186  1.0000 -0.5196652691
O   O9        1.0  0.08954  0.30324  0.26316  1.0000 -0.5527650248
O   O10       1.0  0.41046  0.69676  0.76316  1.0000 -0.5527650248
O   O11       1.0  0.91046  0.80324  0.23684  1.0000 -0.5527650248
O   O12       1.0  0.58954  0.19676  0.73684  1.0000 -0.5527650248
O   O13       1.0  0.29941  0.32805  0.29942  1.0000 -0.4433416953
O   O14       1.0  0.20059  0.67195  0.79942  1.0000 -0.44515164
O   O15       1.0  0.70059  0.82805  0.20058  1.0000 -0.4433416953
O   O16       1.0  0.79941  0.17195  0.70058  1.0000 -0.4433416953
