# DDEC6 charges by PACMAN v1.1 (https://github.com/mtap-research/PACMAN-charge/)
data_2009[Zn][pcu]3[ASR]10
_chemical_formula_sum              "Zn14 H72 C168 S12 O78"
_cell_length_a       27.3789
_cell_length_b       27.3789
_cell_length_c       27.3789
_cell_angle_alpha    49.8532
_cell_angle_beta     49.8532
_cell_angle_gamma    49.8532

_symmetry_space_group_name_H-M    "P 1"
_symmetry_Int_Tables_number       1

loop_
  _symmetry_equiv_pos_as_xyz
  'x, y, z'

loop_
  _atom_site_type_symbol
  _atom_site_label
  _atom_site_symmetry_multiplicity
  _atom_site_fract_x
  _atom_site_fract_y
  _atom_site_fract_z
  _atom_site_occupancy
  _atom_site_charge
Zn  Zn1       1.0  0.73485  0.73485  0.73485  1.0000 1.1196863782
Zn  Zn2       1.0  0.26515  0.26515  0.26515  1.0000 1.1196863782
Zn  Zn3       1.0  0.33263  0.08000  0.30927  1.0000 0.9554654491
Zn  Zn4       1.0  0.08000  0.30927  0.33263  1.0000 0.9499389461
Zn  Zn5       1.0  0.30927  0.33263  0.08000  1.0000 0.9499389461
Zn  Zn6       1.0  0.66737  0.92000  0.69073  1.0000 0.9554654491
Zn  Zn7       1.0  0.92000  0.69073  0.66737  1.0000 0.9499389461
Zn  Zn8       1.0  0.69073  0.66737  0.92000  1.0000 0.9554654491
Zn  Zn9       1.0  0.42877  0.15602  0.20308  1.0000 0.9499389461
Zn  Zn10      1.0  0.15602  0.20308  0.42877  1.0000 0.9499389461
Zn  Zn11      1.0  0.20308  0.42877  0.15602  1.0000 0.9499389461
Zn  Zn12      1.0  0.57123  0.84398  0.79692  1.0000 0.9499389461
Zn  Zn13      1.0  0.84398  0.79692  0.57123  1.0000 0.9499389461
Zn  Zn14      1.0  0.79692  0.57123  0.84398  1.0000 0.9499389461
H   H1        1.0  0.57560  0.77700  0.05220  1.0000 0.1383852169
H   H2        1.0  0.77700  0.05220  0.57560  1.0000 0.1383852169
H   H3        1.0  0.05220  0.57560  0.77700  1.0000 0.1383852169
H   H4        1.0  0.42440  0.22300  0.94780  1.0000 0.1383852169
H   H5        1.0  0.22300  0.94780  0.42440  1.0000 0.1383852169
H   H6        1.0  0.94780  0.42440  0.22300  1.0000 0.1383852169
H   H7        1.0  0.66700  0.90020  0.86310  1.0000 0.1320812002
H   H8        1.0  0.90020  0.86310  0.66700  1.0000 0.1320812002
H   H9        1.0  0.86310  0.66700  0.90020  1.0000 0.1320812002
H   H10       1.0  0.33300  0.09980  0.13690  1.0000 0.1320812002
H   H11       1.0  0.09980  0.13690  0.33300  1.0000 0.1320812002
H   H12       1.0  0.13690  0.33300  0.09980  1.0000 0.1320812002
H   H13       1.0  0.62770  0.97220  0.90840  1.0000 0.1320812002
H   H14       1.0  0.97220  0.90840  0.62770  1.0000 0.1320812002
H   H15       1.0  0.90840  0.62770  0.97220  1.0000 0.1320812002
H   H16       1.0  0.37230  0.02780  0.09160  1.0000 0.1320812002
H   H17       1.0  0.02780  0.09160  0.37230  1.0000 0.1320812002
H   H18       1.0  0.09160  0.37230  0.02780  1.0000 0.1320812002
H   H19       1.0  0.58570  0.03350  0.97490  1.0000 0.1383852169
H   H20       1.0  0.03350  0.97490  0.58570  1.0000 0.1383852169
H   H21       1.0  0.97490  0.58570  0.03350  1.0000 0.1383852169
H   H22       1.0  0.41430  0.96650  0.02510  1.0000 0.1383852169
H   H23       1.0  0.96650  0.02510  0.41430  1.0000 0.1320812002
H   H24       1.0  0.02510  0.41430  0.96650  1.0000 0.1320812002
H   H25       1.0  0.53910  0.07750  0.05160  1.0000 0.1320812002
H   H26       1.0  0.07750  0.05160  0.53910  1.0000 0.1320812002
H   H27       1.0  0.05160  0.53910  0.07750  1.0000 0.1320812002
H   H28       1.0  0.46090  0.92250  0.94840  1.0000 0.1320812002
H   H29       1.0  0.92250  0.94840  0.46090  1.0000 0.1320812002
H   H30       1.0  0.94840  0.46090  0.92250  1.0000 0.1320812002
H   H31       1.0  0.45740  0.93570  0.20880  1.0000 0.1471925552
H   H32       1.0  0.93570  0.20880  0.45740  1.0000 0.1471925552
H   H33       1.0  0.20880  0.45740  0.93570  1.0000 0.1471925552
H   H34       1.0  0.54260  0.06430  0.79120  1.0000 0.1471925552
H   H35       1.0  0.06430  0.79120  0.54260  1.0000 0.1471925552
H   H36       1.0  0.79120  0.54260  0.06430  1.0000 0.1471925552
H   H37       1.0  0.39800  0.96860  0.47440  1.0000 0.1320812002
H   H38       1.0  0.96860  0.47440  0.39800  1.0000 0.1320812002
H   H39       1.0  0.47440  0.39800  0.96860  1.0000 0.1320812002
H   H40       1.0  0.60200  0.03140  0.52560  1.0000 0.1320812002
H   H41       1.0  0.03140  0.52560  0.60200  1.0000 0.1320812002
H   H42       1.0  0.52560  0.60200  0.03140  1.0000 0.1320812002
H   H43       1.0  0.55960  0.02150  0.31390  1.0000 0.1471925552
H   H44       1.0  0.02150  0.31390  0.55960  1.0000 0.1471925552
H   H45       1.0  0.31390  0.55960  0.02150  1.0000 0.1471925552
H   H46       1.0  0.44040  0.97850  0.68610  1.0000 0.1471925552
H   H47       1.0  0.97850  0.68610  0.44040  1.0000 0.1383852169
H   H48       1.0  0.68610  0.44040  0.97850  1.0000 0.1471925552
H   H49       1.0  0.44780  0.90940  0.55220  1.0000 0.1320812002
H   H50       1.0  0.90940  0.55220  0.44780  1.0000 0.1320812002
H   H51       1.0  0.55220  0.44780  0.90940  1.0000 0.1320812002
H   H52       1.0  0.55220  0.09060  0.44780  1.0000 0.1320812002
H   H53       1.0  0.09060  0.44780  0.55220  1.0000 0.1320812002
H   H54       1.0  0.44780  0.55220  0.09060  1.0000 0.1320812002
H   H55       1.0  0.51840  0.85500  0.61760  1.0000 0.1320812002
H   H56       1.0  0.85500  0.61760  0.51840  1.0000 0.1320812002
H   H57       1.0  0.61760  0.51840  0.85500  1.0000 0.1320812002
H   H58       1.0  0.48160  0.14500  0.38240  1.0000 0.1320812002
H   H59       1.0  0.14500  0.38240  0.48160  1.0000 0.1320812002
H   H60       1.0  0.38240  0.48160  0.14500  1.0000 0.1320812002
H   H61       1.0  0.72560  0.88860  0.46740  1.0000 0.1471925552
H   H62       1.0  0.88860  0.46740  0.72560  1.0000 0.1471925552
H   H63       1.0  0.46740  0.72560  0.88860  1.0000 0.1471925552
H   H64       1.0  0.27440  0.11140  0.53260  1.0000 0.1471925552
H   H65       1.0  0.11140  0.53260  0.27440  1.0000 0.1471925552
H   H66       1.0  0.53260  0.27440  0.11140  1.0000 0.1471925552
H   H67       1.0  0.59300  0.81340  0.66050  1.0000 0.1383852169
H   H68       1.0  0.81340  0.66050  0.59300  1.0000 0.1383852169
H   H69       1.0  0.66050  0.59300  0.81340  1.0000 0.1383852169
H   H70       1.0  0.40700  0.18660  0.33950  1.0000 0.1383852169
H   H71       1.0  0.18660  0.33950  0.40700  1.0000 0.1383852169
H   H72       1.0  0.33950  0.40700  0.18660  1.0000 0.1383852169
C   C1        1.0  0.65660  0.78520  0.91950  1.0000 0.5612867407
C   C2        1.0  0.78520  0.91950  0.65660  1.0000 0.5612867407
C   C3        1.0  0.91950  0.65660  0.78520  1.0000 0.5612867407
C   C4        1.0  0.34340  0.21480  0.08050  1.0000 0.5612867407
C   C5        1.0  0.21480  0.08050  0.34340  1.0000 0.5612867407
C   C6        1.0  0.08050  0.34340  0.21480  1.0000 0.5612867407
C   C7        1.0  0.62598  0.83118  0.95208  1.0000 -0.0226792451
C   C8        1.0  0.83118  0.95208  0.62598  1.0000 -0.0226792451
C   C9        1.0  0.95208  0.62598  0.83118  1.0000 -0.0226792451
C   C10       1.0  0.37402  0.16882  0.04792  1.0000 -0.0226792451
C   C11       1.0  0.16882  0.04792  0.37402  1.0000 -0.0226792451
C   C12       1.0  0.04792  0.37402  0.16882  1.0000 -0.0226792451
C   C13       1.0  0.58722  0.81522  0.02312  1.0000 -0.0914143882
C   C14       1.0  0.81522  0.02312  0.58722  1.0000 -0.0914143882
C   C15       1.0  0.02312  0.58722  0.81522  1.0000 -0.0914143882
C   C16       1.0  0.41278  0.18478  0.97688  1.0000 -0.0914143882
C   C17       1.0  0.18478  0.97688  0.41278  1.0000 -0.0914143882
C   C18       1.0  0.97688  0.41278  0.18478  1.0000 -0.0914143882
C   C19       1.0  0.64114  0.88954  0.91054  1.0000 -0.0785909922
C   C20       1.0  0.88954  0.91054  0.64114  1.0000 -0.0785909922
C   C21       1.0  0.91054  0.64114  0.88954  1.0000 -0.0785909922
C   C22       1.0  0.35886  0.11046  0.08946  1.0000 -0.0785909922
C   C23       1.0  0.11046  0.08946  0.35886  1.0000 -0.0785909922
C   C24       1.0  0.08946  0.35886  0.11046  1.0000 -0.0785909922
C   C25       1.0  0.56638  0.85858  0.04938  1.0000 -0.0995149552
C   C26       1.0  0.85858  0.04938  0.56638  1.0000 -0.0995149552
C   C27       1.0  0.04938  0.56638  0.85858  1.0000 -0.0995149552
C   C28       1.0  0.43362  0.14142  0.95062  1.0000 -0.0995149552
C   C29       1.0  0.14142  0.95062  0.43362  1.0000 -0.0995149552
C   C30       1.0  0.95062  0.43362  0.14142  1.0000 -0.0995149552
C   C31       1.0  0.61872  0.93212  0.93772  1.0000 -0.1185106125
C   C32       1.0  0.93212  0.93772  0.61872  1.0000 -0.1185106125
C   C33       1.0  0.93772  0.61872  0.93212  1.0000 -0.1185106125
C   C34       1.0  0.38128  0.06788  0.06228  1.0000 -0.1185106125
C   C35       1.0  0.06788  0.06228  0.38128  1.0000 -0.1185106125
C   C36       1.0  0.06228  0.38128  0.06788  1.0000 -0.1185106125
C   C37       1.0  0.58378  0.91568  0.00698  1.0000 0.037454106
C   C38       1.0  0.91568  0.00698  0.58378  1.0000 0.037454106
C   C39       1.0  0.00698  0.58378  0.91568  1.0000 0.037454106
C   C40       1.0  0.41622  0.08432  0.99302  1.0000 0.037454106
C   C41       1.0  0.08432  0.99302  0.41622  1.0000 0.037454106
C   C42       1.0  0.99302  0.41622  0.08432  1.0000 0.037454106
C   C43       1.0  0.55487  0.95237  0.04747  1.0000 0.0465493814
C   C44       1.0  0.95237  0.04747  0.55487  1.0000 0.0465493814
C   C45       1.0  0.04747  0.55487  0.95237  1.0000 0.0465493814
C   C46       1.0  0.44513  0.04763  0.95253  1.0000 0.0465493814
C   C47       1.0  0.04763  0.95253  0.44513  1.0000 0.0465493814
C   C48       1.0  0.95253  0.44513  0.04763  1.0000 0.0465493814
C   C49       1.0  0.51733  0.92373  0.11773  1.0000 -0.0995149552
C   C50       1.0  0.92373  0.11773  0.51733  1.0000 -0.0995149552
C   C51       1.0  0.11773  0.51733  0.92373  1.0000 -0.0995149552
C   C52       1.0  0.48267  0.07627  0.88227  1.0000 -0.0995149552
C   C53       1.0  0.07627  0.88227  0.48267  1.0000 -0.0995149552
C   C54       1.0  0.88227  0.48267  0.07627  1.0000 -0.0995149552
C   C55       1.0  0.56144  0.01254  0.02204  1.0000 -0.1185106125
C   C56       1.0  0.01254  0.02204  0.56144  1.0000 -0.1185106125
C   C57       1.0  0.02204  0.56144  0.01254  1.0000 -0.1185106125
C   C58       1.0  0.43856  0.98746  0.97796  1.0000 -0.1185106125
C   C59       1.0  0.98746  0.97796  0.43856  1.0000 -0.1185106125
C   C60       1.0  0.97796  0.43856  0.98746  1.0000 -0.1185106125
C   C61       1.0  0.53153  0.04003  0.06763  1.0000 -0.0741399446
C   C62       1.0  0.04003  0.06763  0.53153  1.0000 -0.0741399446
C   C63       1.0  0.06763  0.53153  0.04003  1.0000 -0.0741399446
C   C64       1.0  0.46847  0.95997  0.93237  1.0000 -0.0741399446
C   C65       1.0  0.95997  0.93237  0.46847  1.0000 -0.0741399446
C   C66       1.0  0.93237  0.46847  0.95997  1.0000 -0.0741399446
C   C67       1.0  0.48395  0.95475  0.16215  1.0000 -0.0914143882
C   C68       1.0  0.95475  0.16215  0.48395  1.0000 -0.0914143882
C   C69       1.0  0.16215  0.48395  0.95475  1.0000 -0.0914143882
C   C70       1.0  0.51605  0.04525  0.83785  1.0000 -0.0914143882
C   C71       1.0  0.04525  0.83785  0.51605  1.0000 -0.0914143882
C   C72       1.0  0.83785  0.51605  0.04525  1.0000 -0.0914143882
C   C73       1.0  0.49036  0.01316  0.13666  1.0000 -0.0301014822
C   C74       1.0  0.01316  0.13666  0.49036  1.0000 -0.0301014822
C   C75       1.0  0.13666  0.49036  0.01316  1.0000 -0.0301014822
C   C76       1.0  0.50964  0.98684  0.86334  1.0000 -0.0301014822
C   C77       1.0  0.98684  0.86334  0.50964  1.0000 -0.0301014822
C   C78       1.0  0.86334  0.50964  0.98684  1.0000 -0.0301014822
C   C79       1.0  0.45149  0.04909  0.18259  1.0000 0.6001299751
C   C80       1.0  0.04909  0.18259  0.45149  1.0000 0.6001299751
C   C81       1.0  0.18259  0.45149  0.04909  1.0000 0.6001299751
C   C82       1.0  0.54851  0.95091  0.81741  1.0000 0.6001299751
C   C83       1.0  0.95091  0.81741  0.54851  1.0000 0.6001299751
C   C84       1.0  0.81741  0.54851  0.95091  1.0000 0.6001299751
C   C85       1.0  0.43618  0.04238  0.34078  1.0000 0.6001299751
C   C86       1.0  0.04238  0.34078  0.43618  1.0000 0.6001299751
C   C87       1.0  0.34078  0.43618  0.04238  1.0000 0.6001299751
C   C88       1.0  0.56382  0.95762  0.65922  1.0000 0.6001299751
C   C89       1.0  0.95762  0.65922  0.56382  1.0000 0.6001299751
C   C90       1.0  0.65922  0.56382  0.95762  1.0000 0.6001299751
C   C91       1.0  0.47370  0.00100  0.38730  1.0000 -0.0226792451
C   C92       1.0  0.00100  0.38730  0.47370  1.0000 -0.0226792451
C   C93       1.0  0.38730  0.47370  0.00100  1.0000 -0.0301014822
C   C94       1.0  0.52630  0.99900  0.61270  1.0000 -0.0301014822
C   C95       1.0  0.99900  0.61270  0.52630  1.0000 -0.0226792451
C   C96       1.0  0.61270  0.52630  0.99900  1.0000 -0.0226792451
C   C97       1.0  0.44071  0.96731  0.45791  1.0000 -0.0785909922
C   C98       1.0  0.96731  0.45791  0.44071  1.0000 -0.0785909922
C   C99       1.0  0.45791  0.44071  0.96731  1.0000 -0.0785909922
C   C100      1.0  0.55929  0.03269  0.54209  1.0000 -0.0785909922
C   C101      1.0  0.03269  0.54209  0.55929  1.0000 -0.0785909922
C   C102      1.0  0.54209  0.55929  0.03269  1.0000 -0.0785909922
C   C103      1.0  0.53725  0.99915  0.36115  1.0000 -0.0914143882
C   C104      1.0  0.99915  0.36115  0.53725  1.0000 -0.0914143882
C   C105      1.0  0.36115  0.53725  0.99915  1.0000 -0.0914143882
C   C106      1.0  0.46275  0.00085  0.63885  1.0000 -0.0914143882
C   C107      1.0  0.00085  0.63885  0.46275  1.0000 -0.0914143882
C   C108      1.0  0.63885  0.46275  0.00085  1.0000 -0.0914143882
C   C109      1.0  0.47022  0.93142  0.50482  1.0000 -0.1302792076
C   C110      1.0  0.93142  0.50482  0.47022  1.0000 -0.1302792076
C   C111      1.0  0.50482  0.47022  0.93142  1.0000 -0.1302792076
C   C112      1.0  0.52978  0.06858  0.49518  1.0000 -0.1302792076
C   C113      1.0  0.06858  0.49518  0.52978  1.0000 -0.1302792076
C   C114      1.0  0.49518  0.52978  0.06858  1.0000 -0.1302792076
C   C115      1.0  0.56715  0.96375  0.40595  1.0000 -0.1095905277
C   C116      1.0  0.96375  0.40595  0.56715  1.0000 -0.1095905277
C   C117      1.0  0.40595  0.56715  0.96375  1.0000 -0.1095905277
C   C118      1.0  0.43285  0.03625  0.59405  1.0000 -0.1095905277
C   C119      1.0  0.03625  0.59405  0.43285  1.0000 -0.1095905277
C   C120      1.0  0.59405  0.43285  0.03625  1.0000 -0.1095905277
C   C121      1.0  0.53512  0.93012  0.47722  1.0000 0.0564283164
C   C122      1.0  0.93012  0.47722  0.53512  1.0000 0.0564283164
C   C123      1.0  0.47722  0.53512  0.93012  1.0000 0.0564283164
C   C124      1.0  0.46488  0.06988  0.52278  1.0000 0.0564283164
C   C125      1.0  0.06988  0.52278  0.46488  1.0000 0.0564283164
C   C126      1.0  0.52278  0.46488  0.06988  1.0000 0.0564283164
C   C127      1.0  0.57528  0.89758  0.51688  1.0000 0.0465493814
C   C128      1.0  0.89758  0.51688  0.57528  1.0000 0.0465493814
C   C129      1.0  0.51688  0.57528  0.89758  1.0000 0.0465493814
C   C130      1.0  0.42472  0.10242  0.48312  1.0000 0.0465493814
C   C131      1.0  0.10242  0.48312  0.42472  1.0000 0.0465493814
C   C132      1.0  0.48312  0.42472  0.10242  1.0000 0.0465493814
C   C133      1.0  0.63697  0.90777  0.47377  1.0000 -0.0995149552
C   C134      1.0  0.90777  0.47377  0.63697  1.0000 -0.0995149552
C   C135      1.0  0.47377  0.63697  0.90777  1.0000 -0.0995149552
C   C136      1.0  0.36303  0.09223  0.52623  1.0000 -0.0995149552
C   C137      1.0  0.09223  0.52623  0.36303  1.0000 -0.0995149552
C   C138      1.0  0.52623  0.36303  0.09223  1.0000 -0.0995149552
C   C139      1.0  0.55971  0.86191  0.58741  1.0000 -0.1095905277
C   C140      1.0  0.86191  0.58741  0.55971  1.0000 -0.1095905277
C   C141      1.0  0.58741  0.55971  0.86191  1.0000 -0.1095905277
C   C142      1.0  0.44029  0.13809  0.41259  1.0000 -0.1095905277
C   C143      1.0  0.13809  0.41259  0.44029  1.0000 -0.1095905277
C   C144      1.0  0.41259  0.44029  0.13809  1.0000 -0.1095905277
C   C145      1.0  0.68416  0.88206  0.49756  1.0000 -0.1095905277
C   C146      1.0  0.88206  0.49756  0.68416  1.0000 -0.1095905277
C   C147      1.0  0.49756  0.68416  0.88206  1.0000 -0.1095905277
C   C148      1.0  0.31584  0.11794  0.50244  1.0000 -0.1095905277
C   C149      1.0  0.11794  0.50244  0.31584  1.0000 -0.1095905277
C   C150      1.0  0.50244  0.31584  0.11794  1.0000 -0.1095905277
C   C151      1.0  0.60438  0.83698  0.61288  1.0000 -0.0914143882
C   C152      1.0  0.83698  0.61288  0.60438  1.0000 -0.0914143882
C   C153      1.0  0.61288  0.60438  0.83698  1.0000 -0.0914143882
C   C154      1.0  0.39562  0.16302  0.38712  1.0000 -0.0914143882
C   C155      1.0  0.16302  0.38712  0.39562  1.0000 -0.0914143882
C   C156      1.0  0.38712  0.39562  0.16302  1.0000 -0.0914143882
C   C157      1.0  0.66619  0.84609  0.56899  1.0000 -0.006611645
C   C158      1.0  0.84609  0.56899  0.66619  1.0000 -0.006611645
C   C159      1.0  0.56899  0.66619  0.84609  1.0000 -0.006611645
C   C160      1.0  0.33381  0.15391  0.43101  1.0000 -0.006611645
C   C161      1.0  0.15391  0.43101  0.33381  1.0000 -0.006611645
C   C162      1.0  0.43101  0.33381  0.15391  1.0000 -0.006611645
C   C163      1.0  0.71486  0.81876  0.59826  1.0000 0.594221307
C   C164      1.0  0.81876  0.59826  0.71486  1.0000 0.594221307
C   C165      1.0  0.59826  0.71486  0.81876  1.0000 0.594221307
C   C166      1.0  0.28514  0.18124  0.40174  1.0000 0.594221307
C   C167      1.0  0.18124  0.40174  0.28514  1.0000 0.594221307
C   C168      1.0  0.40174  0.28514  0.18124  1.0000 0.594221307
S   S1        1.0  0.51446  0.85119  0.13551  1.0000 0.9729835721
S   S2        1.0  0.85119  0.13551  0.51446  1.0000 0.9729835721
S   S3        1.0  0.13551  0.51446  0.85119  1.0000 0.9729835721
S   S4        1.0  0.48554  0.14881  0.86449  1.0000 0.9729835721
S   S5        1.0  0.14881  0.86449  0.48554  1.0000 0.9729835721
S   S6        1.0  0.86449  0.48554  0.14881  1.0000 0.9729835721
S   S7        1.0  0.64716  0.95570  0.38514  1.0000 0.979226344
S   S8        1.0  0.95570  0.38514  0.64716  1.0000 0.979226344
S   S9        1.0  0.38514  0.64716  0.95570  1.0000 0.979226344
S   S10       1.0  0.35284  0.04430  0.61486  1.0000 0.979226344
S   S11       1.0  0.04430  0.61486  0.35284  1.0000 0.979226344
S   S12       1.0  0.61486  0.35284  0.04430  1.0000 0.979226344
O   O1        1.0  0.40668  0.03048  0.24178  1.0000 -0.5113427839
O   O2        1.0  0.03048  0.24178  0.40668  1.0000 -0.5113427839
O   O3        1.0  0.24178  0.40668  0.03048  1.0000 -0.5113427839
O   O4        1.0  0.59332  0.96952  0.75822  1.0000 -0.5113427839
O   O5        1.0  0.96952  0.75822  0.59332  1.0000 -0.5113427839
O   O6        1.0  0.75822  0.59332  0.96952  1.0000 -0.5113427839
O   O7        1.0  0.46655  0.09905  0.15645  1.0000 -0.5357575286
O   O8        1.0  0.09905  0.15645  0.46655  1.0000 -0.5357575286
O   O9        1.0  0.15645  0.46655  0.09905  1.0000 -0.5357575286
O   O10       1.0  0.53345  0.90095  0.84355  1.0000 -0.5357575286
O   O11       1.0  0.90095  0.84355  0.53345  1.0000 -0.5357575286
O   O12       1.0  0.84355  0.53345  0.90095  1.0000 -0.5357575286
O   O13       1.0  0.64070  0.73260  0.95890  1.0000 -0.5275402932
O   O14       1.0  0.73260  0.95890  0.64070  1.0000 -0.5275402932
O   O15       1.0  0.95890  0.64070  0.73260  1.0000 -0.5275402932
O   O16       1.0  0.35930  0.26740  0.04110  1.0000 -0.5275402932
O   O17       1.0  0.26740  0.04110  0.35930  1.0000 -0.5275402932
O   O18       1.0  0.04110  0.35930  0.26740  1.0000 -0.5275402932
O   O19       1.0  0.69615  0.79805  0.85705  1.0000 -0.410152601
O   O20       1.0  0.79805  0.85705  0.69615  1.0000 -0.410152601
O   O21       1.0  0.85705  0.69615  0.79805  1.0000 -0.410152601
O   O22       1.0  0.30385  0.20195  0.14295  1.0000 -0.410152601
O   O23       1.0  0.20195  0.14295  0.30385  1.0000 -0.410152601
O   O24       1.0  0.14295  0.30385  0.20195  1.0000 -0.410152601
O   O25       1.0  0.55057  0.78937  0.17907  1.0000 -0.4402823615
O   O26       1.0  0.78937  0.17907  0.55057  1.0000 -0.4320642519
O   O27       1.0  0.17907  0.55057  0.78937  1.0000 -0.4402823615
O   O28       1.0  0.44943  0.21063  0.82093  1.0000 -0.4402823615
O   O29       1.0  0.21063  0.82093  0.44943  1.0000 -0.4402823615
O   O30       1.0  0.82093  0.44943  0.21063  1.0000 -0.4402823615
O   O31       1.0  0.44534  0.86405  0.15466  1.0000 -0.5191302599
O   O32       1.0  0.86405  0.15466  0.44534  1.0000 -0.5191302599
O   O33       1.0  0.15466  0.44534  0.86405  1.0000 -0.5191302599
O   O34       1.0  0.55466  0.13595  0.84534  1.0000 -0.5191302599
O   O35       1.0  0.13595  0.84534  0.55466  1.0000 -0.5191302599
O   O36       1.0  0.84534  0.55466  0.13595  1.0000 -0.5191302599
O   O37       1.0  0.69269  0.79779  0.66159  1.0000 -0.5113427839
O   O38       1.0  0.79779  0.66159  0.69269  1.0000 -0.5113427839
O   O39       1.0  0.66159  0.69269  0.79779  1.0000 -0.5113427839
O   O40       1.0  0.30731  0.20221  0.33841  1.0000 -0.5113427839
O   O41       1.0  0.20221  0.33841  0.30731  1.0000 -0.5113427839
O   O42       1.0  0.33841  0.30731  0.20221  1.0000 -0.5113427839
O   O43       1.0  0.77453  0.81883  0.55463  1.0000 -0.5191302599
O   O44       1.0  0.81883  0.55463  0.77453  1.0000 -0.5191302599
O   O45       1.0  0.55463  0.77453  0.81883  1.0000 -0.5191302599
O   O46       1.0  0.22547  0.18117  0.44537  1.0000 -0.5191302599
O   O47       1.0  0.18117  0.44537  0.22547  1.0000 -0.5191302599
O   O48       1.0  0.44537  0.22547  0.18117  1.0000 -0.5191302599
O   O49       1.0  0.38205  0.03615  0.36565  1.0000 -0.5191302599
O   O50       1.0  0.03615  0.36565  0.38205  1.0000 -0.5191302599
O   O51       1.0  0.36565  0.38205  0.03615  1.0000 -0.5191302599
O   O52       1.0  0.61795  0.96385  0.63435  1.0000 -0.5191302599
O   O53       1.0  0.96385  0.63435  0.61795  1.0000 -0.5191302599
O   O54       1.0  0.63435  0.61795  0.96385  1.0000 -0.5191302599
O   O55       1.0  0.46319  0.08019  0.28019  1.0000 -0.5275402932
O   O56       1.0  0.08019  0.28019  0.46319  1.0000 -0.5275402932
O   O57       1.0  0.28019  0.46319  0.08019  1.0000 -0.5275402932
O   O58       1.0  0.53681  0.91981  0.71981  1.0000 -0.5275402932
O   O59       1.0  0.91981  0.71981  0.53681  1.0000 -0.5275402932
O   O60       1.0  0.71981  0.53681  0.91981  1.0000 -0.5275402932
O   O61       1.0  0.64400  0.02230  0.36010  1.0000 -0.5113427839
O   O62       1.0  0.02230  0.36010  0.64400  1.0000 -0.5113427839
O   O63       1.0  0.36010  0.64400  0.02230  1.0000 -0.5113427839
O   O64       1.0  0.35600  0.97770  0.63990  1.0000 -0.5113427839
O   O65       1.0  0.97770  0.63990  0.35600  1.0000 -0.5113427839
O   O66       1.0  0.63990  0.35600  0.97770  1.0000 -0.5113427839
O   O67       1.0  0.70310  0.91570  0.34430  1.0000 -0.4629528213
O   O68       1.0  0.91570  0.34430  0.70310  1.0000 -0.4629528213
O   O69       1.0  0.34430  0.70310  0.91570  1.0000 -0.4629528213
O   O70       1.0  0.29690  0.08430  0.65570  1.0000 -0.4629528213
O   O71       1.0  0.08430  0.65570  0.29690  1.0000 -0.4537760187
O   O72       1.0  0.65570  0.29690  0.08430  1.0000 -0.4629528213
O   O73       1.0  0.67236  0.82476  0.75596  1.0000 -0.7475923864
O   O74       1.0  0.82476  0.75596  0.67236  1.0000 -0.7475923864
O   O75       1.0  0.75596  0.67236  0.82476  1.0000 -0.7475923864
O   O76       1.0  0.32764  0.17524  0.24404  1.0000 -0.7475923864
O   O77       1.0  0.17524  0.24404  0.32764  1.0000 -0.7475923864
O   O78       1.0  0.24404  0.32764  0.17524  1.0000 -0.7475923864
