# DDEC6 charges by PACMAN v1.1 (https://github.com/mtap-research/PACMAN-charge/)
data_2009[Cu][tbo]3[ASR]2
_chemical_formula_sum              "Cu24 H232 C424 N56 O96"
_cell_length_a       27.8595
_cell_length_b       27.8595
_cell_length_c       27.8595
_cell_angle_alpha    116.399
_cell_angle_beta     116.399
_cell_angle_gamma    96.3589

_symmetry_space_group_name_H-M    "P 1"
_symmetry_Int_Tables_number       1

loop_
  _symmetry_equiv_pos_as_xyz
  'x, y, z'

loop_
  _atom_site_type_symbol
  _atom_site_label
  _atom_site_symmetry_multiplicity
  _atom_site_fract_x
  _atom_site_fract_y
  _atom_site_fract_z
  _atom_site_occupancy
  _atom_site_charge
Cu  Cu1       1.0  0.19777  0.22204  0.46351  1.0000 0.8219094782
Cu  Cu2       1.0  0.75853  0.73426  0.53649  1.0000 0.8219094782
Cu  Cu3       1.0  0.26574  0.80223  0.02427  1.0000 0.8219094782
Cu  Cu4       1.0  0.77796  0.24147  0.97573  1.0000 0.8219094782
Cu  Cu5       1.0  0.31316  0.27272  0.53724  1.0000 0.8523052989
Cu  Cu6       1.0  0.73548  0.77592  0.46276  1.0000 0.8523052989
Cu  Cu7       1.0  0.22408  0.68684  0.95956  1.0000 0.8523052989
Cu  Cu8       1.0  0.72728  0.26452  0.04044  1.0000 0.8523052989
Cu  Cu9       1.0  0.28423  0.27417  0.06408  1.0000 0.7655985712
Cu  Cu10      1.0  0.21009  0.22015  0.93592  1.0000 0.7655985712
Cu  Cu11      1.0  0.77985  0.71577  0.98994  1.0000 0.7655985712
Cu  Cu12      1.0  0.72583  0.78991  0.01006  1.0000 0.7655985712
Cu  Cu13      1.0  0.48426  0.44777  0.47573  1.0000 0.8219094782
Cu  Cu14      1.0  0.97204  0.00853  0.52427  1.0000 0.8219094782
Cu  Cu15      1.0  0.55223  0.02796  0.03649  1.0000 0.8219094782
Cu  Cu16      1.0  0.99147  0.51574  0.96351  1.0000 0.8219094782
Cu  Cu17      1.0  0.52592  0.56316  0.54044  1.0000 0.8523052989
Cu  Cu18      1.0  0.02272  0.98548  0.45956  1.0000 0.8523052989
Cu  Cu19      1.0  0.43684  0.97728  0.96276  1.0000 0.8523052989
Cu  Cu20      1.0  0.01452  0.47408  0.03724  1.0000 0.8523052989
Cu  Cu21      1.0  0.97015  0.53423  0.51006  1.0000 0.7655985712
Cu  Cu22      1.0  0.02417  0.46009  0.48994  1.0000 0.7655985712
Cu  Cu23      1.0  0.46577  0.97583  0.43592  1.0000 0.7655985712
Cu  Cu24      1.0  0.53991  0.02985  0.56408  1.0000 0.7655985712
H   H1        1.0  0.16510  0.28090  0.33780  1.0000 0.1207724527
H   H2        1.0  0.94310  0.82730  0.66220  1.0000 0.1207724527
H   H3        1.0  0.17270  0.83490  0.11580  1.0000 0.1207724527
H   H4        1.0  0.71910  0.05690  0.88420  1.0000 0.1207724527
H   H5        1.0  0.33830  0.33270  0.42620  1.0000 0.1300803428
H   H6        1.0  0.90650  0.91210  0.57380  1.0000 0.1300803428
H   H7        1.0  0.08790  0.66170  0.99440  1.0000 0.1300803428
H   H8        1.0  0.66730  0.09350  0.00560  1.0000 0.1300803428
H   H9        1.0  0.33270  0.35280  0.35270  1.0000 0.1300803428
H   H10       1.0  0.00010  0.98000  0.64730  1.0000 0.1207724527
H   H11       1.0  0.02000  0.66730  0.02010  1.0000 0.1300803428
H   H12       1.0  0.64720  0.99990  0.97990  1.0000 0.1300803428
H   H13       1.0  0.24460  0.33700  0.27280  1.0000 0.1207724527
H   H14       1.0  0.06420  0.97180  0.72720  1.0000 0.1207724527
H   H15       1.0  0.02820  0.75540  0.09240  1.0000 0.1207724527
H   H16       1.0  0.66300  0.93580  0.90760  1.0000 0.1207724527
H   H17       1.0  0.15660  0.27640  0.11120  1.0000 0.1300803428
H   H18       1.0  0.16520  0.04540  0.88880  1.0000 0.1300803428
H   H19       1.0  0.95460  0.84340  0.11980  1.0000 0.1300803428
H   H20       1.0  0.72360  0.83480  0.88020  1.0000 0.1300803428
H   H21       1.0  0.04820  0.19620  0.91980  1.0000 0.1300803428
H   H22       1.0  0.27640  0.12840  0.08020  1.0000 0.1300803428
H   H23       1.0  0.87160  0.95180  0.14800  1.0000 0.1300803428
H   H24       1.0  0.80380  0.72360  0.85200  1.0000 0.1300803428
H   H25       1.0  0.97140  0.18840  0.92820  1.0000 0.1300803428
H   H26       1.0  0.26020  0.04320  0.07180  1.0000 0.1300803428
H   H27       1.0  0.95680  0.02860  0.21700  1.0000 0.1300803428
H   H28       1.0  0.81160  0.73980  0.78300  1.0000 0.1300803428
H   H29       1.0  0.98460  0.21350  0.02550  1.0000 0.1300803428
H   H30       1.0  0.18800  0.95910  0.97450  1.0000 0.1300803428
H   H31       1.0  0.04090  0.01540  0.22890  1.0000 0.1300803428
H   H32       1.0  0.78650  0.81200  0.77110  1.0000 0.1300803428
H   H33       1.0  0.94190  0.26970  0.12240  1.0000 0.1300803428
H   H34       1.0  0.14730  0.81950  0.87760  1.0000 0.1300803428
H   H35       1.0  0.18050  0.05810  0.32780  1.0000 0.1300803428
H   H36       1.0  0.73030  0.85270  0.67220  1.0000 0.1300803428
H   H37       1.0  0.86950  0.29930  0.22320  1.0000 0.1300803428
H   H38       1.0  0.07610  0.64630  0.77680  1.0000 0.1207724527
H   H39       1.0  0.35370  0.13050  0.42980  1.0000 0.1300803428
H   H40       1.0  0.70070  0.92390  0.57020  1.0000 0.1300803428
H   H41       1.0  0.95590  0.31520  0.31030  1.0000 0.1207724527
H   H42       1.0  0.00490  0.64560  0.68970  1.0000 0.1207724527
H   H43       1.0  0.35440  0.04410  0.35930  1.0000 0.1207724527
H   H44       1.0  0.68480  0.99510  0.64070  1.0000 0.1207724527
H   H45       1.0  0.03570  0.31440  0.30410  1.0000 0.1105266994
H   H46       1.0  0.01030  0.73160  0.69590  1.0000 0.1105266994
H   H47       1.0  0.26840  0.96430  0.27870  1.0000 0.1105266994
H   H48       1.0  0.68560  0.98970  0.72130  1.0000 0.1105266994
H   H49       1.0  0.34390  0.21640  0.66810  1.0000 0.1300803428
H   H50       1.0  0.54830  0.67580  0.33190  1.0000 0.1300803428
H   H51       1.0  0.32420  0.65610  0.87250  1.0000 0.1300803428
H   H52       1.0  0.78360  0.45170  0.12750  1.0000 0.1300803428
H   H53       1.0  0.16830  0.15520  0.56310  1.0000 0.1207724527
H   H54       1.0  0.59210  0.60520  0.43690  1.0000 0.1207724527
H   H55       1.0  0.39480  0.83170  0.98690  1.0000 0.1207724527
H   H56       1.0  0.84480  0.40790  0.01310  1.0000 0.1207724527
H   H57       1.0  0.16710  0.13120  0.63190  1.0000 0.1105266994
H   H58       1.0  0.49930  0.53520  0.36810  1.0000 0.1105266994
H   H59       1.0  0.46480  0.83290  0.96410  1.0000 0.1105266994
H   H60       1.0  0.86880  0.50070  0.03590  1.0000 0.1105266994
H   H61       1.0  0.25630  0.15480  0.72390  1.0000 0.1105266994
H   H62       1.0  0.43090  0.53240  0.27610  1.0000 0.1105266994
H   H63       1.0  0.46760  0.74370  0.89850  1.0000 0.1105266994
H   H64       1.0  0.84520  0.56910  0.10150  1.0000 0.1105266994
H   H65       1.0  0.34130  0.22340  0.89010  1.0000 0.1207724527
H   H66       1.0  0.33333  0.45120  0.10990  1.0000 0.1207724527
H   H67       1.0  0.54880  0.65870  0.88210  1.0000 0.1207724527
H   H68       1.0  0.77660  0.66667  0.11790  1.0000 0.1207724527
H   H69       1.0  0.42410  0.22070  0.04960  1.0000 0.1039276963
H   H70       1.0  0.17110  0.37450  0.95040  1.0000 0.1039276963
H   H71       1.0  0.62550  0.57590  0.79660  1.0000 0.1039276963
H   H72       1.0  0.77930  0.82890  0.20340  1.0000 0.1039276963
H   H73       1.0  0.48680  0.18710  0.02170  1.0000 0.1207724527
H   H74       1.0  0.16540  0.46510  0.97830  1.0000 0.1207724527
H   H75       1.0  0.53490  0.51320  0.70030  1.0000 0.1207724527
H   H76       1.0  0.81290  0.83460  0.29970  1.0000 0.1207724527
H   H77       1.0  0.48650  0.18650  0.93740  1.0000 0.1105266994
H   H78       1.0  0.24910  0.54910  0.06260  1.0000 0.1105266994
H   H79       1.0  0.45090  0.51350  0.70000  1.0000 0.1105266994
H   H80       1.0  0.81350  0.75090  0.30000  1.0000 0.1105266994
H   H81       1.0  0.56260  0.23510  0.89110  1.0000 0.1300803428
H   H82       1.0  0.34400  0.67150  0.10890  1.0000 0.1300803428
H   H83       1.0  0.32850  0.43740  0.67250  1.0000 0.1300803428
H   H84       1.0  0.76490  0.65600  0.32750  1.0000 0.1300803428
H   H85       1.0  0.63660  0.19990  0.78990  1.0000 0.1039276963
H   H86       1.0  0.41000  0.84670  0.21010  1.0000 0.1039276963
H   H87       1.0  0.15330  0.36340  0.56330  1.0000 0.1039276963
H   H88       1.0  0.80010  0.59000  0.43670  1.0000 0.1039276963
H   H89       1.0  0.55140  0.17670  0.69970  1.0000 0.1207724527
H   H90       1.0  0.47700  0.85170  0.30030  1.0000 0.1207724527
H   H91       1.0  0.14830  0.44860  0.62530  1.0000 0.1207724527
H   H92       1.0  0.82330  0.52300  0.37470  1.0000 0.1207724527
H   H93       1.0  0.46800  0.18080  0.70300  1.0000 0.1207724527
H   H94       1.0  0.47780  0.76500  0.29700  1.0000 0.1207724527
H   H95       1.0  0.23500  0.53200  0.71280  1.0000 0.1207724527
H   H96       1.0  0.81920  0.52220  0.28720  1.0000 0.1207724527
H   H97       1.0  0.31020  0.25660  0.16980  1.0000 0.1105266994
H   H98       1.0  0.08680  0.14040  0.83020  1.0000 0.1105266994
H   H99       1.0  0.85960  0.68980  0.94640  1.0000 0.1105266994
H   H100      1.0  0.74340  0.91320  0.05360  1.0000 0.1105266994
H   H101      1.0  0.38110  0.28990  0.27760  1.0000 0.1300803428
H   H102      1.0  0.01230  0.10350  0.72240  1.0000 0.1300803428
H   H103      1.0  0.89650  0.61890  0.90880  1.0000 0.1300803428
H   H104      1.0  0.71010  0.98770  0.09120  1.0000 0.1300803428
H   H105      1.0  0.46160  0.37410  0.33250  1.0000 0.1207724527
H   H106      1.0  0.04160  0.12910  0.66750  1.0000 0.1207724527
H   H107      1.0  0.87090  0.53840  0.91250  1.0000 0.1207724527
H   H108      1.0  0.62590  0.95840  0.08750  1.0000 0.1207724527
H   H109      1.0  0.47410  0.41720  0.28630  1.0000 0.1381396113
H   H110      1.0  0.13090  0.18780  0.71370  1.0000 0.1381396113
H   H111      1.0  0.81220  0.52590  0.94310  1.0000 0.1381396113
H   H112      1.0  0.58280  0.86910  0.05690  1.0000 0.1381396113
H   H113      1.0  0.39890  0.37790  0.17760  1.0000 0.1105266994
H   H114      1.0  0.20030  0.22130  0.82240  1.0000 0.1105266994
H   H115      1.0  0.77870  0.60110  0.97900  1.0000 0.1105266994
H   H116      1.0  0.62210  0.79970  0.02100  1.0000 0.1105266994
H   H117      1.0  0.57730  0.41510  0.38420  1.0000 0.1207724527
H   H118      1.0  0.03090  0.19310  0.61580  1.0000 0.1207724527
H   H119      1.0  0.58490  0.96910  0.16220  1.0000 0.1300803428
H   H120      1.0  0.80690  0.42270  0.83780  1.0000 0.1207724527
H   H121      1.0  0.66210  0.58830  0.50560  1.0000 0.1300803428
H   H122      1.0  0.08270  0.15650  0.49440  1.0000 0.1300803428
H   H123      1.0  0.41170  0.91730  0.07380  1.0000 0.1300803428
H   H124      1.0  0.84350  0.33790  0.92620  1.0000 0.1300803428
H   H125      1.0  0.73000  0.58270  0.47990  1.0000 0.1207724527
H   H126      1.0  0.10280  0.25010  0.52010  1.0000 0.1207724527
H   H127      1.0  0.41730  0.89720  0.14730  1.0000 0.1207724527
H   H128      1.0  0.74990  0.27000  0.85270  1.0000 0.1207724527
H   H129      1.0  0.72180  0.49460  0.40760  1.0000 0.1207724527
H   H130      1.0  0.08700  0.31420  0.59240  1.0000 0.1207724527
H   H131      1.0  0.50540  0.91300  0.22720  1.0000 0.1207724527
H   H132      1.0  0.68580  0.27820  0.77280  1.0000 0.1207724527
H   H133      1.0  0.79540  0.40660  0.38020  1.0000 0.1300803428
H   H134      1.0  0.02640  0.41520  0.61980  1.0000 0.1300803428
H   H135      1.0  0.59340  0.97360  0.38880  1.0000 0.1300803428
H   H136      1.0  0.58480  0.20460  0.61120  1.0000 0.1300803428
H   H137      1.0  0.87840  0.29820  0.35200  1.0000 0.1300803428
H   H138      1.0  0.94620  0.52640  0.64800  1.0000 0.1300803428
H   H139      1.0  0.70180  0.05380  0.58020  1.0000 0.1300803428
H   H140      1.0  0.47360  0.12160  0.41980  1.0000 0.1300803428
H   H141      1.0  0.79320  0.22140  0.28300  1.0000 0.1300803428
H   H142      1.0  0.93840  0.51020  0.71700  1.0000 0.1300803428
H   H143      1.0  0.77860  0.06160  0.57180  1.0000 0.1300803428
H   H144      1.0  0.48980  0.20680  0.42820  1.0000 0.1300803428
H   H145      1.0  0.70910  0.23460  0.27110  1.0000 0.1300803428
H   H146      1.0  0.96350  0.43800  0.72890  1.0000 0.1300803428
H   H147      1.0  0.76540  0.03650  0.47450  1.0000 0.1300803428
H   H148      1.0  0.56200  0.29090  0.52550  1.0000 0.1300803428
H   H149      1.0  0.56950  0.19190  0.17220  1.0000 0.1300803428
H   H150      1.0  0.01970  0.39730  0.82780  1.0000 0.1300803428
H   H151      1.0  0.80810  0.98030  0.37760  1.0000 0.1300803428
H   H152      1.0  0.60270  0.43050  0.62240  1.0000 0.1300803428
H   H153      1.0  0.39630  0.11950  0.07020  1.0000 0.1300803428
H   H154      1.0  0.04930  0.32610  0.92980  1.0000 0.1207724527
H   H155      1.0  0.88050  0.95070  0.27680  1.0000 0.1300803428
H   H156      1.0  0.67390  0.60370  0.72320  1.0000 0.1300803428
H   H157      1.0  0.39560  0.20590  0.14070  1.0000 0.1105266994
H   H158      1.0  0.06520  0.25490  0.85930  1.0000 0.1207724527
H   H159      1.0  0.79410  0.93480  0.18970  1.0000 0.1207724527
H   H160      1.0  0.74510  0.60440  0.81030  1.0000 0.1105266994
H   H161      1.0  0.48160  0.28570  0.22130  1.0000 0.1105266994
H   H162      1.0  0.06440  0.26030  0.77870  1.0000 0.1105266994
H   H163      1.0  0.71430  0.93560  0.19590  1.0000 0.1105266994
H   H164      1.0  0.73970  0.51840  0.80410  1.0000 0.1105266994
H   H165      1.0  0.42580  0.59390  0.62750  1.0000 0.1300803428
H   H166      1.0  0.96640  0.79830  0.37250  1.0000 0.1300803428
H   H167      1.0  0.40610  0.03360  0.83190  1.0000 0.1300803428
H   H168      1.0  0.20170  0.57420  0.16810  1.0000 0.1300803428
H   H169      1.0  0.35520  0.41830  0.51310  1.0000 0.1207724527
H   H170      1.0  0.90520  0.84210  0.48690  1.0000 0.1207724527
H   H171      1.0  0.58170  0.09480  0.93690  1.0000 0.1207724527
H   H172      1.0  0.15790  0.64480  0.06310  1.0000 0.1207724527
H   H173      1.0  0.28520  0.41710  0.53590  1.0000 0.1105266994
H   H174      1.0  0.88120  0.74930  0.46410  1.0000 0.1105266994
H   H175      1.0  0.58290  0.11880  0.86810  1.0000 0.1105266994
H   H176      1.0  0.25070  0.71480  0.13190  1.0000 0.1105266994
H   H177      1.0  0.28240  0.50630  0.60150  1.0000 0.1105266994
H   H178      1.0  0.90480  0.68090  0.39850  1.0000 0.1105266994
H   H179      1.0  0.49370  0.09520  0.77610  1.0000 0.1105266994
H   H180      1.0  0.31910  0.71760  0.22390  1.0000 0.1105266994
H   H181      1.0  0.20120  0.59130  0.61790  1.0000 0.1207724527
H   H182      1.0  0.97340  0.58330  0.38210  1.0000 0.1207724527
H   H183      1.0  0.40870  0.02660  0.60990  1.0000 0.1207724527
H   H184      1.0  0.41670  0.79880  0.39010  1.0000 0.1207724527
H   H185      1.0  0.12450  0.67410  0.70340  1.0000 0.1039276963
H   H186      1.0  0.97070  0.42110  0.29660  1.0000 0.1039276963
H   H187      1.0  0.32590  0.02930  0.45040  1.0000 0.1039276963
H   H188      1.0  0.57890  0.87550  0.54960  1.0000 0.1039276963
H   H189      1.0  0.21510  0.73680  0.79970  1.0000 0.1207724527
H   H190      1.0  0.93710  0.41540  0.20030  1.0000 0.1207724527
H   H191      1.0  0.26320  0.06290  0.47830  1.0000 0.1207724527
H   H192      1.0  0.58460  0.78490  0.52170  1.0000 0.1207724527
H   H193      1.0  0.29910  0.73650  0.80000  1.0000 0.1105266994
H   H194      1.0  0.93650  0.49910  0.20000  1.0000 0.1105266994
H   H195      1.0  0.26350  0.06350  0.56260  1.0000 0.1105266994
H   H196      1.0  0.50090  0.70090  0.43740  1.0000 0.1105266994
H   H197      1.0  0.42150  0.81260  0.82750  1.0000 0.1300803428
H   H198      1.0  0.98510  0.59400  0.17250  1.0000 0.1300803428
H   H199      1.0  0.18740  0.01490  0.60890  1.0000 0.1300803428
H   H200      1.0  0.40600  0.57850  0.39110  1.0000 0.1300803428
H   H201      1.0  0.59670  0.88660  0.93670  1.0000 0.1039276963
H   H202      1.0  0.94990  0.66000  0.06330  1.0000 0.1039276963
H   H203      1.0  0.11340  0.05010  0.71010  1.0000 0.1039276963
H   H204      1.0  0.34000  0.40330  0.28990  1.0000 0.1039276963
H   H205      1.0  0.60170  0.80140  0.87470  1.0000 0.1207724527
H   H206      1.0  0.92670  0.72700  0.12530  1.0000 0.1207724527
H   H207      1.0  0.19860  0.07330  0.80030  1.0000 0.1207724527
H   H208      1.0  0.27300  0.39830  0.19970  1.0000 0.1207724527
H   H209      1.0  0.51500  0.71800  0.78720  1.0000 0.1207724527
H   H210      1.0  0.93080  0.72780  0.21280  1.0000 0.1207724527
H   H211      1.0  0.28200  0.06920  0.79700  1.0000 0.1207724527
H   H212      1.0  0.27220  0.48500  0.20300  1.0000 0.1207724527
H   H213      1.0  0.89040  0.56020  0.55360  1.0000 0.1105266994
H   H214      1.0  0.00660  0.33680  0.44640  1.0000 0.1105266994
H   H215      1.0  0.43980  0.99340  0.33020  1.0000 0.1105266994
H   H216      1.0  0.66320  0.10960  0.66980  1.0000 0.1105266994
H   H217      1.0  0.85350  0.63110  0.59120  1.0000 0.1300803428
H   H218      1.0  0.03990  0.26230  0.40880  1.0000 0.1300803428
H   H219      1.0  0.36890  0.96010  0.22240  1.0000 0.1300803428
H   H220      1.0  0.73770  0.14650  0.77760  1.0000 0.1300803428
H   H221      1.0  0.87910  0.71160  0.58750  1.0000 0.1207724527
H   H222      1.0  0.12410  0.29160  0.41250  1.0000 0.1207724527
H   H223      1.0  0.28840  0.87590  0.16750  1.0000 0.1207724527
H   H224      1.0  0.70840  0.12090  0.83250  1.0000 0.1207724527
H   H225      1.0  0.93780  0.72410  0.55690  1.0000 0.1381396113
H   H226      1.0  0.16720  0.38090  0.44310  1.0000 0.1381396113
H   H227      1.0  0.27590  0.83280  0.21370  1.0000 0.1381396113
H   H228      1.0  0.61910  0.06220  0.78630  1.0000 0.1381396113
H   H229      1.0  0.97130  0.64890  0.52100  1.0000 0.1105266994
H   H230      1.0  0.12790  0.45030  0.47900  1.0000 0.1105266994
H   H231      1.0  0.35110  0.87210  0.32240  1.0000 0.1105266994
H   H232      1.0  0.54970  0.02870  0.67760  1.0000 0.1105266994
C   C1        1.0  0.13980  0.29911  0.24629  1.0000 0.3702592461
C   C2        1.0  0.05282  0.89351  0.75371  1.0000 0.3702592461
C   C3        1.0  0.10649  0.86020  0.15931  1.0000 0.3702592461
C   C4        1.0  0.70089  0.94718  0.84069  1.0000 0.3702592461
C   C5        1.0  0.08160  0.27150  0.14350  1.0000 0.3817061561
C   C6        1.0  0.12800  0.93810  0.85650  1.0000 0.3817061561
C   C7        1.0  0.06190  0.91840  0.18990  1.0000 0.3817061561
C   C8        1.0  0.72850  0.87200  0.81010  1.0000 0.3817061561
C   C9        1.0  0.04598  0.28728  0.20430  1.0000 0.3817061561
C   C10       1.0  0.08298  0.84168  0.79570  1.0000 0.3817061561
C   C11       1.0  0.15832  0.95402  0.24130  1.0000 0.3817061561
C   C12       1.0  0.71272  0.91702  0.75870  1.0000 0.3817061561
C   C13       1.0  0.19668  0.30978  0.29830  1.0000 0.0183589931
C   C14       1.0  0.01148  0.89838  0.70170  1.0000 0.0183589931
C   C15       1.0  0.10162  0.80332  0.11310  1.0000 0.0183589931
C   C16       1.0  0.69022  0.98852  0.88690  1.0000 0.0183589931
C   C17       1.0  0.19903  0.29543  0.34120  1.0000 -0.1196623817
C   C18       1.0  0.95423  0.85783  0.65880  1.0000 -0.1196623817
C   C19       1.0  0.14217  0.80097  0.09640  1.0000 -0.1196623817
C   C20       1.0  0.70457  0.04577  0.90360  1.0000 -0.1196623817
C   C21       1.0  0.25164  0.30284  0.38880  1.0000 -0.0294438944
C   C22       1.0  0.91404  0.86284  0.61120  1.0000 -0.0294438944
C   C23       1.0  0.13716  0.74836  0.05120  1.0000 -0.0294438944
C   C24       1.0  0.69716  0.08596  0.94880  1.0000 -0.0294438944
C   C25       1.0  0.30233  0.32593  0.39340  1.0000 -0.101119074
C   C26       1.0  0.93253  0.90893  0.60660  1.0000 -0.101119074
C   C27       1.0  0.09107  0.69767  0.02360  1.0000 -0.101119074
C   C28       1.0  0.67407  0.06747  0.97640  1.0000 -0.101119074
C   C29       1.0  0.29919  0.33839  0.35000  1.0000 -0.0895984302
C   C30       1.0  0.98839  0.94919  0.65000  1.0000 -0.0895984302
C   C31       1.0  0.05081  0.70081  0.03920  1.0000 -0.0895984302
C   C32       1.0  0.66161  0.01161  0.96080  1.0000 -0.0895984302
C   C33       1.0  0.24662  0.32952  0.30290  1.0000 -0.101119074
C   C34       1.0  0.02662  0.94372  0.69710  1.0000 -0.1086814763
C   C35       1.0  0.05628  0.75338  0.08290  1.0000 -0.101119074
C   C36       1.0  0.67048  0.97338  0.91710  1.0000 -0.1086814763
C   C37       1.0  0.25428  0.28529  0.43315  1.0000 0.570469077
C   C38       1.0  0.85214  0.82113  0.56685  1.0000 0.570469077
C   C39       1.0  0.17887  0.74572  0.03101  1.0000 0.570469077
C   C40       1.0  0.71471  0.14786  0.96899  1.0000 0.570469077
C   C41       1.0  0.07280  0.25280  0.07980  1.0000 0.008351204
C   C42       1.0  0.17300  0.99300  0.92020  1.0000 0.008351204
C   C43       1.0  0.00700  0.92720  0.18000  1.0000 0.008351204
C   C44       1.0  0.74720  0.82700  0.82000  1.0000 0.008351204
C   C45       1.0  0.11920  0.25910  0.07470  1.0000 -0.1086814763
C   C46       1.0  0.18440  0.04450  0.92530  1.0000 -0.1086814763
C   C47       1.0  0.95550  0.88080  0.13990  1.0000 -0.1086814763
C   C48       1.0  0.74090  0.81560  0.86010  1.0000 -0.1086814763
C   C49       1.0  0.11080  0.24020  0.01620  1.0000 -0.0144732612
C   C50       1.0  0.22400  0.09460  0.98380  1.0000 -0.0144732612
C   C51       1.0  0.90540  0.88920  0.12940  1.0000 -0.0144732612
C   C52       1.0  0.75980  0.77600  0.87060  1.0000 -0.0144732612
C   C53       1.0  0.05383  0.21093  0.95990  1.0000 -0.1196623817
C   C54       1.0  0.25103  0.09393  0.04010  1.0000 -0.1196623817
C   C55       1.0  0.90607  0.94617  0.15710  1.0000 -0.1196623817
C   C56       1.0  0.78907  0.74897  0.84290  1.0000 -0.1196623817
C   C57       1.0  0.00866  0.20466  0.96460  1.0000 -0.1086814763
C   C58       1.0  0.24006  0.04406  0.03540  1.0000 -0.1086814763
C   C59       1.0  0.95594  0.99134  0.19600  1.0000 -0.101119074
C   C60       1.0  0.79534  0.75994  0.80400  1.0000 -0.101119074
C   C61       1.0  0.01658  0.22218  0.02340  1.0000 -0.101119074
C   C62       1.0  0.19878  0.99318  0.97660  1.0000 -0.101119074
C   C63       1.0  0.00682  0.98342  0.20560  1.0000 -0.101119074
C   C64       1.0  0.77782  0.80122  0.79440  1.0000 -0.101119074
C   C65       1.0  0.16186  0.24516  0.00970  1.0000 0.5617053269
C   C66       1.0  0.23546  0.15216  0.99030  1.0000 0.5617053269
C   C67       1.0  0.84784  0.83814  0.08330  1.0000 0.5617053269
C   C68       1.0  0.75484  0.76454  0.91670  1.0000 0.5617053269
C   C69       1.0  0.99597  0.29007  0.21130  1.0000 0.0183589931
C   C70       1.0  0.07877  0.78467  0.78870  1.0000 0.0183589931
C   C71       1.0  0.21533  0.00403  0.29410  1.0000 0.0183589931
C   C72       1.0  0.70993  0.92123  0.70590  1.0000 0.0183589931
C   C73       1.0  0.94470  0.27950  0.16040  1.0000 -0.101119074
C   C74       1.0  0.11910  0.78430  0.83960  1.0000 -0.101119074
C   C75       1.0  0.21570  0.05530  0.33480  1.0000 -0.101119074
C   C76       1.0  0.72050  0.88090  0.66520  1.0000 -0.101119074
C   C77       1.0  0.89633  0.28293  0.16380  1.0000 -0.0294438944
C   C78       1.0  0.11913  0.73253  0.83620  1.0000 -0.0294438944
C   C79       1.0  0.26747  0.10367  0.38660  1.0000 -0.0294438944
C   C80       1.0  0.71707  0.88087  0.61340  1.0000 -0.0294438944
C   C81       1.0  0.90100  0.29670  0.21990  1.0000 -0.101119074
C   C82       1.0  0.07680  0.68110  0.78010  1.0000 -0.101119074
C   C83       1.0  0.31890  0.09900  0.39570  1.0000 -0.101119074
C   C84       1.0  0.70330  0.92320  0.60430  1.0000 -0.101119074
C   C85       1.0  0.95350  0.30720  0.27290  1.0000 -0.101119074
C   C86       1.0  0.03430  0.68060  0.72710  1.0000 -0.1086814763
C   C87       1.0  0.31940  0.04650  0.35370  1.0000 -0.1086814763
C   C88       1.0  0.69280  0.96570  0.64630  1.0000 -0.101119074
C   C89       1.0  0.00060  0.30540  0.26860  1.0000 -0.1086814763
C   C90       1.0  0.03680  0.73200  0.73140  1.0000 -0.1086814763
C   C91       1.0  0.26800  0.99940  0.30480  1.0000 -0.1086814763
C   C92       1.0  0.69460  0.96320  0.69520  1.0000 -0.1086814763
C   C93       1.0  0.84120  0.27050  0.10650  1.0000 0.5796409365
C   C94       1.0  0.16400  0.73470  0.89350  1.0000 0.5796409365
C   C95       1.0  0.26530  0.15880  0.42930  1.0000 0.5796409365
C   C96       1.0  0.72950  0.83600  0.57070  1.0000 0.5796409365
C   C97       1.0  0.36261  0.19621  0.75620  1.0000 0.3591508626
C   C98       1.0  0.44001  0.60641  0.24380  1.0000 0.3591508626
C   C99       1.0  0.39359  0.63739  0.83360  1.0000 0.3591508626
C   C100      1.0  0.80379  0.55999  0.16640  1.0000 0.3591508626
C   C101      1.0  0.41150  0.20290  0.85040  1.0000 0.3488712965
C   C102      1.0  0.35250  0.56110  0.14960  1.0000 0.3488712965
C   C103      1.0  0.43890  0.58850  0.79140  1.0000 0.3488712965
C   C104      1.0  0.79710  0.64750  0.20860  1.0000 0.3488712965
C   C105      1.0  0.45580  0.20790  0.80130  1.0000 0.3591508626
C   C106      1.0  0.40660  0.65450  0.19870  1.0000 0.3591508626
C   C107      1.0  0.34550  0.54420  0.75210  1.0000 0.3591508626
C   C108      1.0  0.79210  0.59340  0.24790  1.0000 0.3591508626
C   C109      1.0  0.30690  0.18770  0.70360  1.0000 0.0183589931
C   C110      1.0  0.48410  0.60330  0.29640  1.0000 0.0183589931
C   C111      1.0  0.39670  0.69310  0.88080  1.0000 0.0183589931
C   C112      1.0  0.81230  0.51590  0.11920  1.0000 0.0183589931
C   C113      1.0  0.30860  0.20050  0.66150  1.0000 -0.1086814763
C   C114      1.0  0.53900  0.64710  0.33850  1.0000 -0.1086814763
C   C115      1.0  0.35290  0.69140  0.89190  1.0000 -0.1086814763
C   C116      1.0  0.79950  0.46100  0.10810  1.0000 -0.1086814763
C   C117      1.0  0.25500  0.18860  0.60740  1.0000 -0.0475472386
C   C118      1.0  0.58120  0.64760  0.39260  1.0000 -0.0475472386
C   C119      1.0  0.35240  0.74500  0.93360  1.0000 -0.0475472386
C   C120      1.0  0.81140  0.41880  0.06640  1.0000 -0.0475472386
C   C121      1.0  0.20320  0.16310  0.59810  1.0000 -0.0895984302
C   C122      1.0  0.56500  0.60510  0.40190  1.0000 -0.0895984302
C   C123      1.0  0.39490  0.79680  0.95990  1.0000 -0.0895984302
C   C124      1.0  0.83690  0.43500  0.04010  1.0000 -0.0895984302
C   C125      1.0  0.20230  0.14920  0.63970  1.0000 -0.101119074
C   C126      1.0  0.50950  0.56260  0.36030  1.0000 -0.101119074
C   C127      1.0  0.43740  0.79770  0.94690  1.0000 -0.101119074
C   C128      1.0  0.85080  0.49050  0.05310  1.0000 -0.101119074
C   C129      1.0  0.25600  0.16280  0.69480  1.0000 -0.101119074
C   C130      1.0  0.46800  0.56120  0.30520  1.0000 -0.101119074
C   C131      1.0  0.43880  0.74400  0.90680  1.0000 -0.101119074
C   C132      1.0  0.83720  0.53200  0.09320  1.0000 -0.101119074
C   C133      1.0  0.25569  0.20874  0.56743  1.0000 0.5796409365
C   C134      1.0  0.64131  0.68826  0.43257  1.0000 0.570469077
C   C135      1.0  0.31174  0.74431  0.95305  1.0000 0.5796409365
C   C136      1.0  0.79126  0.35869  0.04695  1.0000 0.5796409365
C   C137      1.0  0.41360  0.20640  0.90460  1.0000 0.008351204
C   C138      1.0  0.30180  0.50900  0.09540  1.0000 0.008351204
C   C139      1.0  0.49100  0.58640  0.79280  1.0000 0.008351204
C   C140      1.0  0.79360  0.69820  0.20720  1.0000 0.008351204
C   C141      1.0  0.37130  0.21840  0.91790  1.0000 -0.101119074
C   C142      1.0  0.30050  0.45340  0.08210  1.0000 -0.101119074
C   C143      1.0  0.54660  0.62870  0.84710  1.0000 -0.101119074
C   C144      1.0  0.78160  0.69950  0.15290  1.0000 -0.101119074
C   C145      1.0  0.37190  0.22290  0.96880  1.0000 -0.0415578746
C   C146      1.0  0.25410  0.40310  0.03120  1.0000 -0.0415578746
C   C147      1.0  0.59690  0.62810  0.85100  1.0000 -0.0415578746
C   C148      1.0  0.77710  0.74590  0.14900  1.0000 -0.0415578746
C   C149      1.0  0.42010  0.21440  0.01210  1.0000 -0.0895984302
C   C150      1.0  0.20230  0.40800  0.98790  1.0000 -0.0845977531
C   C151      1.0  0.59200  0.57990  0.79430  1.0000 -0.0845977531
C   C152      1.0  0.78560  0.79770  0.20570  1.0000 -0.0895984302
C   C153      1.0  0.45980  0.19710  0.99730  1.0000 -0.1086814763
C   C154      1.0  0.19980  0.46250  0.00270  1.0000 -0.1086814763
C   C155      1.0  0.53750  0.54020  0.73730  1.0000 -0.1086814763
C   C156      1.0  0.80290  0.80020  0.26270  1.0000 -0.1086814763
C   C157      1.0  0.45860  0.19510  0.94550  1.0000 -0.0895984302
C   C158      1.0  0.24960  0.51310  0.05450  1.0000 -0.0895984302
C   C159      1.0  0.48690  0.54140  0.73650  1.0000 -0.0895984302
C   C160      1.0  0.80490  0.75040  0.26350  1.0000 -0.0895984302
C   C161      1.0  0.32870  0.23730  0.98300  1.0000 0.570469077
C   C162      1.0  0.25430  0.34570  0.01700  1.0000 0.570469077
C   C163      1.0  0.65430  0.67130  0.90860  1.0000 0.570469077
C   C164      1.0  0.76270  0.74570  0.09140  1.0000 0.570469077
C   C165      1.0  0.50763  0.20873  0.79810  1.0000 0.0183589931
C   C166      1.0  0.41063  0.70953  0.20190  1.0000 0.0183589931
C   C167      1.0  0.29047  0.49237  0.70110  1.0000 0.0183589931
C   C168      1.0  0.79127  0.58937  0.29890  1.0000 0.0183589931
C   C169      1.0  0.56010  0.22327  0.85283  1.0000 -0.1196623817
C   C170      1.0  0.37044  0.70727  0.14717  1.0000 -0.1196623817
C   C171      1.0  0.29273  0.43990  0.66317  1.0000 -0.1196623817
C   C172      1.0  0.77673  0.62956  0.33683  1.0000 -0.1196623817
C   C173      1.0  0.60827  0.22024  0.85023  1.0000 -0.0294438944
C   C174      1.0  0.37001  0.75804  0.14977  1.0000 -0.0294438944
C   C175      1.0  0.24196  0.39173  0.61197  1.0000 -0.0294438944
C   C176      1.0  0.77976  0.62999  0.38803  1.0000 -0.0294438944
C   C177      1.0  0.60424  0.20224  0.79160  1.0000 -0.1196623817
C   C178      1.0  0.41064  0.81264  0.20840  1.0000 -0.1196623817
C   C179      1.0  0.18736  0.39576  0.59800  1.0000 -0.1196623817
C   C180      1.0  0.79776  0.58936  0.40200  1.0000 -0.1196623817
C   C181      1.0  0.55330  0.18800  0.73750  1.0000 -0.101119074
C   C182      1.0  0.45050  0.81580  0.26250  1.0000 -0.101119074
C   C183      1.0  0.18420  0.44670  0.63470  1.0000 -0.101119074
C   C184      1.0  0.81200  0.54950  0.36530  1.0000 -0.101119074
C   C185      1.0  0.50290  0.19070  0.73940  1.0000 -0.1086814763
C   C186      1.0  0.45130  0.76350  0.26060  1.0000 -0.1086814763
C   C187      1.0  0.23650  0.49710  0.68780  1.0000 -0.1086814763
C   C188      1.0  0.80930  0.54870  0.31220  1.0000 -0.1086814763
C   C189      1.0  0.66331  0.23471  0.90820  1.0000 0.5617053269
C   C190      1.0  0.32651  0.75511  0.09180  1.0000 0.5617053269
C   C191      1.0  0.24489  0.33669  0.57140  1.0000 0.5617053269
C   C192      1.0  0.76529  0.67349  0.42860  1.0000 0.5617053269
C   C193      1.0  0.34330  0.28970  0.19360  1.0000 0.0923191563
C   C194      1.0  0.09610  0.14970  0.80640  1.0000 0.0923191563
C   C195      1.0  0.85030  0.65670  0.94640  1.0000 0.0923191563
C   C196      1.0  0.71030  0.90390  0.05360  1.0000 0.0923191563
C   C197      1.0  0.38520  0.30870  0.25830  1.0000 -0.1515897305
C   C198      1.0  0.05040  0.12690  0.74170  1.0000 -0.1515897305
C   C199      1.0  0.87310  0.61480  0.92350  1.0000 -0.1515897305
C   C200      1.0  0.69130  0.94960  0.07650  1.0000 -0.1515897305
C   C201      1.0  0.43310  0.35850  0.28960  1.0000 -0.0415578746
C   C202      1.0  0.06890  0.14350  0.71040  1.0000 -0.0415578746
C   C203      1.0  0.85650  0.56690  0.92540  1.0000 -0.0415578746
C   C204      1.0  0.64150  0.93110  0.07460  1.0000 -0.0415578746
C   C205      1.0  0.44080  0.38460  0.26380  1.0000 -0.129707122
C   C206      1.0  0.12080  0.17700  0.73620  1.0000 -0.129707122
C   C207      1.0  0.82300  0.55920  0.94380  1.0000 -0.129707122
C   C208      1.0  0.61540  0.87920  0.05620  1.0000 -0.129707122
C   C209      1.0  0.39470  0.36040  0.19790  1.0000 0.0923191563
C   C210      1.0  0.16250  0.19680  0.80210  1.0000 0.0923191563
C   C211      1.0  0.80320  0.60530  0.96570  1.0000 0.0923191563
C   C212      1.0  0.63960  0.83750  0.03430  1.0000 0.0923191563
C   C213      1.0  0.64351  0.38980  0.34069  1.0000 0.3702592461
C   C214      1.0  0.04911  0.30282  0.65931  1.0000 0.3702592461
C   C215      1.0  0.61020  0.95089  0.25371  1.0000 0.3702592461
C   C216      1.0  0.69718  0.35649  0.74629  1.0000 0.3702592461
C   C217      1.0  0.68810  0.33160  0.31010  1.0000 0.3817061561
C   C218      1.0  0.02150  0.37800  0.68990  1.0000 0.3817061561
C   C219      1.0  0.66840  0.97850  0.35650  1.0000 0.3817061561
C   C220      1.0  0.62200  0.31190  0.64350  1.0000 0.3817061561
C   C221      1.0  0.59168  0.29598  0.25870  1.0000 0.3817061561
C   C222      1.0  0.03728  0.33298  0.74130  1.0000 0.3817061561
C   C223      1.0  0.70402  0.96272  0.29570  1.0000 0.3817061561
C   C224      1.0  0.66702  0.40832  0.70430  1.0000 0.3817061561
C   C225      1.0  0.64838  0.44668  0.38690  1.0000 0.0183589931
C   C226      1.0  0.05978  0.26148  0.61310  1.0000 0.0183589931
C   C227      1.0  0.55332  0.94022  0.20170  1.0000 0.0183589931
C   C228      1.0  0.73852  0.35162  0.79830  1.0000 0.0183589931
C   C229      1.0  0.60783  0.44903  0.40360  1.0000 -0.1196623817
C   C230      1.0  0.04543  0.20423  0.59640  1.0000 -0.1196623817
C   C231      1.0  0.55097  0.95457  0.15880  1.0000 -0.1196623817
C   C232      1.0  0.79577  0.39217  0.84120  1.0000 -0.1196623817
C   C233      1.0  0.61284  0.50164  0.44880  1.0000 -0.0294438944
C   C234      1.0  0.05284  0.16404  0.55120  1.0000 -0.0294438944
C   C235      1.0  0.49836  0.94716  0.11120  1.0000 -0.0294438944
C   C236      1.0  0.83596  0.38716  0.88880  1.0000 -0.0294438944
C   C237      1.0  0.65893  0.55233  0.47640  1.0000 -0.101119074
C   C238      1.0  0.07593  0.18253  0.52360  1.0000 -0.101119074
C   C239      1.0  0.44767  0.92407  0.10660  1.0000 -0.101119074
C   C240      1.0  0.81747  0.34107  0.89340  1.0000 -0.101119074
C   C241      1.0  0.69919  0.54919  0.46080  1.0000 -0.0895984302
C   C242      1.0  0.08839  0.23839  0.53920  1.0000 -0.0895984302
C   C243      1.0  0.45081  0.91161  0.15000  1.0000 -0.0895984302
C   C244      1.0  0.76161  0.30081  0.85000  1.0000 -0.0895984302
C   C245      1.0  0.69372  0.49662  0.41710  1.0000 -0.101119074
C   C246      1.0  0.07952  0.27662  0.58290  1.0000 -0.101119074
C   C247      1.0  0.50338  0.92048  0.19710  1.0000 -0.101119074
C   C248      1.0  0.72338  0.30628  0.80290  1.0000 -0.101119074
C   C249      1.0  0.57113  0.50428  0.46899  1.0000 0.570469077
C   C250      1.0  0.03529  0.10214  0.53101  1.0000 0.570469077
C   C251      1.0  0.49572  0.96471  0.06685  1.0000 0.570469077
C   C252      1.0  0.89786  0.42887  0.93315  1.0000 0.570469077
C   C253      1.0  0.74300  0.32280  0.32000  1.0000 0.008351204
C   C254      1.0  0.00280  0.42300  0.68000  1.0000 0.008351204
C   C255      1.0  0.67720  0.99720  0.42020  1.0000 0.008351204
C   C256      1.0  0.57700  0.25700  0.57980  1.0000 0.008351204
C   C257      1.0  0.79450  0.36920  0.36010  1.0000 -0.1086814763
C   C258      1.0  0.00910  0.43440  0.63990  1.0000 -0.1086814763
C   C259      1.0  0.63080  0.99090  0.42530  1.0000 -0.1086814763
C   C260      1.0  0.56560  0.20550  0.57470  1.0000 -0.1086814763
C   C261      1.0  0.84460  0.36080  0.37060  1.0000 -0.0144732612
C   C262      1.0  0.99020  0.47400  0.62940  1.0000 -0.0152159415
C   C263      1.0  0.63920  0.00980  0.48380  1.0000 -0.0144732612
C   C264      1.0  0.52600  0.15540  0.51620  1.0000 -0.0144732612
C   C265      1.0  0.84393  0.30383  0.34290  1.0000 -0.1196623817
C   C266      1.0  0.96093  0.50103  0.65710  1.0000 -0.1196623817
C   C267      1.0  0.69617  0.03907  0.54010  1.0000 -0.1196623817
C   C268      1.0  0.49897  0.15607  0.45990  1.0000 -0.1196623817
C   C269      1.0  0.79406  0.25866  0.30400  1.0000 -0.101119074
C   C270      1.0  0.95466  0.49006  0.69600  1.0000 -0.101119074
C   C271      1.0  0.74134  0.04534  0.53540  1.0000 -0.101119074
C   C272      1.0  0.50994  0.20594  0.46460  1.0000 -0.1086814763
C   C273      1.0  0.74318  0.26658  0.29440  1.0000 -0.101119074
C   C274      1.0  0.97218  0.44878  0.70560  1.0000 -0.101119074
C   C275      1.0  0.73342  0.02782  0.47660  1.0000 -0.101119074
C   C276      1.0  0.55122  0.25682  0.52340  1.0000 -0.101119074
C   C277      1.0  0.90216  0.41186  0.41670  1.0000 0.5617053269
C   C278      1.0  0.99516  0.48546  0.58330  1.0000 0.5617053269
C   C279      1.0  0.58814  0.00484  0.49030  1.0000 0.5617053269
C   C280      1.0  0.51454  0.09784  0.50970  1.0000 0.5617053269
C   C281      1.0  0.53467  0.24597  0.20590  1.0000 0.0183589931
C   C282      1.0  0.04007  0.32877  0.79410  1.0000 0.0183589931
C   C283      1.0  0.75403  0.95993  0.28870  1.0000 0.0183589931
C   C284      1.0  0.67123  0.46533  0.71130  1.0000 0.0183589931
C   C285      1.0  0.53430  0.19470  0.16520  1.0000 -0.101119074
C   C286      1.0  0.02950  0.36910  0.83480  1.0000 -0.101119074
C   C287      1.0  0.80530  0.97050  0.33960  1.0000 -0.101119074
C   C288      1.0  0.63090  0.46570  0.66040  1.0000 -0.101119074
C   C289      1.0  0.48253  0.14633  0.11340  1.0000 -0.0294438944
C   C290      1.0  0.03293  0.36913  0.88660  1.0000 -0.0294438944
C   C291      1.0  0.85367  0.96707  0.33620  1.0000 -0.0294438944
C   C292      1.0  0.63087  0.51747  0.66380  1.0000 -0.0294438944
C   C293      1.0  0.43110  0.15100  0.10430  1.0000 -0.101119074
C   C294      1.0  0.04670  0.32680  0.89570  1.0000 -0.101119074
C   C295      1.0  0.84900  0.95330  0.28010  1.0000 -0.101119074
C   C296      1.0  0.67320  0.56890  0.71990  1.0000 -0.101119074
C   C297      1.0  0.43060  0.20350  0.14630  1.0000 -0.1086814763
C   C298      1.0  0.05720  0.28430  0.85370  1.0000 -0.1086814763
C   C299      1.0  0.79650  0.94280  0.22710  1.0000 -0.1086814763
C   C300      1.0  0.71570  0.56940  0.77290  1.0000 -0.101119074
C   C301      1.0  0.48200  0.25060  0.19520  1.0000 -0.1086814763
C   C302      1.0  0.05540  0.28680  0.80480  1.0000 -0.1086814763
C   C303      1.0  0.74940  0.94460  0.23140  1.0000 -0.1086814763
C   C304      1.0  0.71320  0.51800  0.76860  1.0000 -0.1086814763
C   C305      1.0  0.48470  0.09120  0.07070  1.0000 0.5796409365
C   C306      1.0  0.02050  0.41400  0.92930  1.0000 0.5796409365
C   C307      1.0  0.90880  0.97950  0.39350  1.0000 0.5796409365
C   C308      1.0  0.58600  0.51530  0.60650  1.0000 0.5796409365
C   C309      1.0  0.35641  0.61261  0.66640  1.0000 0.3591508626
C   C310      1.0  0.94621  0.69001  0.33360  1.0000 0.3591508626
C   C311      1.0  0.38739  0.05379  0.74380  1.0000 0.3591508626
C   C312      1.0  0.30999  0.64359  0.25620  1.0000 0.3591508626
C   C313      1.0  0.31110  0.66150  0.70860  1.0000 0.3488712965
C   C314      1.0  0.95290  0.60250  0.29140  1.0000 0.3488712965
C   C315      1.0  0.33850  0.04710  0.64960  1.0000 0.3488712965
C   C316      1.0  0.39750  0.68890  0.35040  1.0000 0.3488712965
C   C317      1.0  0.40450  0.70580  0.74790  1.0000 0.3591508626
C   C318      1.0  0.95790  0.65660  0.25210  1.0000 0.3591508626
C   C319      1.0  0.29420  0.04210  0.69870  1.0000 0.3591508626
C   C320      1.0  0.34340  0.59550  0.30130  1.0000 0.3591508626
C   C321      1.0  0.35330  0.55690  0.61920  1.0000 0.0183589931
C   C322      1.0  0.93770  0.73410  0.38080  1.0000 0.0183589931
C   C323      1.0  0.44310  0.06230  0.79640  1.0000 0.0183589931
C   C324      1.0  0.26590  0.64670  0.20360  1.0000 0.0183589931
C   C325      1.0  0.39710  0.55860  0.60810  1.0000 -0.1086814763
C   C326      1.0  0.95050  0.78900  0.39190  1.0000 -0.1086814763
C   C327      1.0  0.44140  0.04950  0.83850  1.0000 -0.1086814763
C   C328      1.0  0.21100  0.60290  0.16150  1.0000 -0.1086814763
C   C329      1.0  0.39760  0.50500  0.56640  1.0000 -0.0475472386
C   C330      1.0  0.93860  0.83120  0.43360  1.0000 -0.0475472386
C   C331      1.0  0.49500  0.06140  0.89260  1.0000 -0.0475472386
C   C332      1.0  0.16880  0.60240  0.10740  1.0000 -0.0475472386
C   C333      1.0  0.35510  0.45320  0.54010  1.0000 -0.0895984302
C   C334      1.0  0.91310  0.81500  0.45990  1.0000 -0.0895984302
C   C335      1.0  0.54680  0.08690  0.90190  1.0000 -0.0895984302
C   C336      1.0  0.18500  0.64490  0.09810  1.0000 -0.0895984302
C   C337      1.0  0.31260  0.45230  0.55310  1.0000 -0.101119074
C   C338      1.0  0.89920  0.75950  0.44690  1.0000 -0.101119074
C   C339      1.0  0.54770  0.10080  0.86030  1.0000 -0.101119074
C   C340      1.0  0.24050  0.68740  0.13970  1.0000 -0.101119074
C   C341      1.0  0.31120  0.50600  0.59320  1.0000 -0.101119074
C   C342      1.0  0.91280  0.71800  0.40680  1.0000 -0.101119074
C   C343      1.0  0.49400  0.08720  0.80520  1.0000 -0.101119074
C   C344      1.0  0.28200  0.68880  0.19480  1.0000 -0.101119074
C   C345      1.0  0.43826  0.50569  0.54695  1.0000 0.5796409365
C   C346      1.0  0.95874  0.89131  0.45305  1.0000 0.570469077
C   C347      1.0  0.49431  0.04126  0.93257  1.0000 0.5796409365
C   C348      1.0  0.10869  0.56174  0.06743  1.0000 0.570469077
C   C349      1.0  0.25900  0.66360  0.70720  1.0000 0.008351204
C   C350      1.0  0.95640  0.55180  0.29280  1.0000 0.008351204
C   C351      1.0  0.33640  0.04360  0.59540  1.0000 0.008351204
C   C352      1.0  0.44820  0.74100  0.40460  1.0000 0.008351204
C   C353      1.0  0.20340  0.62130  0.65290  1.0000 -0.101119074
C   C354      1.0  0.96840  0.55050  0.34710  1.0000 -0.101119074
C   C355      1.0  0.37870  0.03160  0.58210  1.0000 -0.101119074
C   C356      1.0  0.44950  0.79660  0.41790  1.0000 -0.101119074
C   C357      1.0  0.15310  0.62190  0.64900  1.0000 -0.0415578746
C   C358      1.0  0.97290  0.50410  0.35100  1.0000 -0.0415578746
C   C359      1.0  0.37810  0.02710  0.53120  1.0000 -0.0415578746
C   C360      1.0  0.49590  0.84690  0.46880  1.0000 -0.0415578746
C   C361      1.0  0.15800  0.67010  0.70570  1.0000 -0.0845977531
C   C362      1.0  0.96440  0.45230  0.29430  1.0000 -0.0895984302
C   C363      1.0  0.32990  0.03560  0.48790  1.0000 -0.0845977531
C   C364      1.0  0.54770  0.84200  0.51210  1.0000 -0.0845977531
C   C365      1.0  0.21250  0.70980  0.76270  1.0000 -0.1086814763
C   C366      1.0  0.94710  0.44980  0.23730  1.0000 -0.1086814763
C   C367      1.0  0.29020  0.05290  0.50270  1.0000 -0.1086814763
C   C368      1.0  0.55020  0.78750  0.49730  1.0000 -0.1086814763
C   C369      1.0  0.26310  0.70860  0.76350  1.0000 -0.0895984302
C   C370      1.0  0.94510  0.49960  0.23650  1.0000 -0.0895984302
C   C371      1.0  0.29140  0.05490  0.55450  1.0000 -0.0895984302
C   C372      1.0  0.50040  0.73690  0.44550  1.0000 -0.0895984302
C   C373      1.0  0.09570  0.57870  0.59140  1.0000 0.570469077
C   C374      1.0  0.98730  0.50430  0.40860  1.0000 0.570469077
C   C375      1.0  0.42130  0.01270  0.51700  1.0000 0.570469077
C   C376      1.0  0.49570  0.90430  0.48300  1.0000 0.570469077
C   C377      1.0  0.45953  0.75763  0.79890  1.0000 0.0183589931
C   C378      1.0  0.95873  0.66063  0.20110  1.0000 0.0183589931
C   C379      1.0  0.24237  0.04127  0.70190  1.0000 0.0183589931
C   C380      1.0  0.33937  0.54047  0.29810  1.0000 0.0183589931
C   C381      1.0  0.45727  0.81010  0.83683  1.0000 -0.1196623817
C   C382      1.0  0.97327  0.62044  0.16317  1.0000 -0.1196623817
C   C383      1.0  0.18990  0.02673  0.64717  1.0000 -0.1196623817
C   C384      1.0  0.37956  0.54273  0.35283  1.0000 -0.1196623817
C   C385      1.0  0.50804  0.85827  0.88803  1.0000 -0.0294438944
C   C386      1.0  0.97024  0.62001  0.11197  1.0000 -0.0294438944
C   C387      1.0  0.14173  0.02976  0.64977  1.0000 -0.0294438944
C   C388      1.0  0.37999  0.49196  0.35023  1.0000 -0.0294438944
C   C389      1.0  0.56264  0.85424  0.90200  1.0000 -0.1196623817
C   C390      1.0  0.95224  0.66064  0.09800  1.0000 -0.1196623817
C   C391      1.0  0.14576  0.04776  0.70840  1.0000 -0.1196623817
C   C392      1.0  0.33936  0.43736  0.29160  1.0000 -0.1196623817
C   C393      1.0  0.56580  0.80330  0.86530  1.0000 -0.101119074
C   C394      1.0  0.93800  0.70050  0.13470  1.0000 -0.101119074
C   C395      1.0  0.19670  0.06200  0.76250  1.0000 -0.101119074
C   C396      1.0  0.29950  0.43420  0.23750  1.0000 -0.101119074
C   C397      1.0  0.51350  0.75290  0.81220  1.0000 -0.1086814763
C   C398      1.0  0.94070  0.70130  0.18780  1.0000 -0.1086814763
C   C399      1.0  0.24710  0.05930  0.76060  1.0000 -0.1086814763
C   C400      1.0  0.29870  0.48650  0.23940  1.0000 -0.1086814763
C   C401      1.0  0.50511  0.91331  0.92860  1.0000 0.5617053269
C   C402      1.0  0.98471  0.57651  0.07140  1.0000 0.5617053269
C   C403      1.0  0.08669  0.01529  0.59180  1.0000 0.5617053269
C   C404      1.0  0.42349  0.49489  0.40820  1.0000 0.5617053269
C   C405      1.0  0.89970  0.59330  0.55360  1.0000 0.0923191563
C   C406      1.0  0.03970  0.34610  0.44640  1.0000 0.0923191563
C   C407      1.0  0.40670  0.96030  0.30640  1.0000 0.0923191563
C   C408      1.0  0.65390  0.10030  0.69360  1.0000 0.0923191563
C   C409      1.0  0.87690  0.63520  0.57650  1.0000 -0.1515897305
C   C410      1.0  0.05870  0.30040  0.42350  1.0000 -0.1515897305
C   C411      1.0  0.36480  0.94130  0.24170  1.0000 -0.1515897305
C   C412      1.0  0.69960  0.12310  0.75830  1.0000 -0.1515897305
C   C413      1.0  0.89350  0.68310  0.57460  1.0000 -0.0415578746
C   C414      1.0  0.10850  0.31890  0.42540  1.0000 -0.0415578746
C   C415      1.0  0.31690  0.89150  0.21040  1.0000 -0.0415578746
C   C416      1.0  0.68110  0.10650  0.78960  1.0000 -0.0415578746
C   C417      1.0  0.92700  0.69080  0.55620  1.0000 -0.129707122
C   C418      1.0  0.13460  0.37080  0.44380  1.0000 -0.129707122
C   C419      1.0  0.30920  0.86540  0.23620  1.0000 -0.129707122
C   C420      1.0  0.62920  0.07300  0.76380  1.0000 -0.129707122
C   C421      1.0  0.94680  0.64470  0.53430  1.0000 0.0923191563
C   C422      1.0  0.11040  0.41250  0.46570  1.0000 0.0923191563
C   C423      1.0  0.35530  0.88960  0.30210  1.0000 0.0923191563
C   C424      1.0  0.58750  0.05320  0.69790  1.0000 0.0923191563
N   N1        1.0  0.09607  0.30015  0.25480  1.0000 -0.4099078433
N   N2        1.0  0.04535  0.84127  0.74520  1.0000 -0.4099078433
N   N3        1.0  0.15873  0.90393  0.20408  1.0000 -0.4099078433
N   N4        1.0  0.69985  0.95465  0.79592  1.0000 -0.4099078433
N   N5        1.0  0.13362  0.28656  0.19086  1.0000 -0.4099078433
N   N6        1.0  0.09570  0.94276  0.80914  1.0000 -0.4099078433
N   N7        1.0  0.05724  0.86638  0.15294  1.0000 -0.4099078433
N   N8        1.0  0.71344  0.90430  0.84706  1.0000 -0.4099078433
N   N9        1.0  0.03596  0.27173  0.14743  1.0000 -0.4099078433
N   N10       1.0  0.12430  0.88853  0.85257  1.0000 -0.4099078433
N   N11       1.0  0.11147  0.96404  0.23577  1.0000 -0.4099078433
N   N12       1.0  0.72827  0.87570  0.76423  1.0000 -0.4099078433
N   N13       1.0  0.40772  0.20006  0.75206  1.0000 -0.3959933759
N   N14       1.0  0.44800  0.65566  0.24794  1.0000 -0.3959933759
N   N15       1.0  0.34434  0.59228  0.79234  1.0000 -0.3959933759
N   N16       1.0  0.79994  0.55200  0.20766  1.0000 -0.3959933759
N   N17       1.0  0.36066  0.19788  0.80498  1.0000 -0.4270724521
N   N18       1.0  0.39290  0.55568  0.19502  1.0000 -0.4270724521
N   N19       1.0  0.44432  0.63934  0.83722  1.0000 -0.4270724521
N   N20       1.0  0.80212  0.60710  0.16278  1.0000 -0.4270724521
N   N21       1.0  0.46043  0.21013  0.85230  1.0000 -0.4099078433
N   N22       1.0  0.35783  0.60813  0.14770  1.0000 -0.4099078433
N   N23       1.0  0.39187  0.53957  0.74970  1.0000 -0.4099078433
N   N24       1.0  0.78987  0.64217  0.25030  1.0000 -0.4099078433
N   N25       1.0  0.34749  0.31483  0.16536  1.0000 -0.2279542179
N   N26       1.0  0.14947  0.18213  0.83464  1.0000 -0.2279542179
N   N27       1.0  0.81787  0.65251  0.96734  1.0000 -0.2279542179
N   N28       1.0  0.68517  0.85053  0.03266  1.0000 -0.2279542179
N   N29       1.0  0.59127  0.34607  0.29592  1.0000 -0.4163182171
N   N30       1.0  0.05015  0.29535  0.70408  1.0000 -0.4099078433
N   N31       1.0  0.65393  0.94985  0.24520  1.0000 -0.4099078433
N   N32       1.0  0.70465  0.40873  0.75480  1.0000 -0.4099078433
N   N33       1.0  0.69276  0.38362  0.34706  1.0000 -0.4099078433
N   N34       1.0  0.03656  0.34570  0.65294  1.0000 -0.4099078433
N   N35       1.0  0.61638  0.96344  0.30914  1.0000 -0.4099078433
N   N36       1.0  0.65430  0.30724  0.69086  1.0000 -0.4099078433
N   N37       1.0  0.63853  0.28596  0.26423  1.0000 -0.4099078433
N   N38       1.0  0.02173  0.37430  0.73577  1.0000 -0.4099078433
N   N39       1.0  0.71404  0.97827  0.35257  1.0000 -0.4099078433
N   N40       1.0  0.62570  0.36147  0.64743  1.0000 -0.4099078433
N   N41       1.0  0.40566  0.65772  0.70766  1.0000 -0.3959933759
N   N42       1.0  0.95006  0.69800  0.29234  1.0000 -0.3959933759
N   N43       1.0  0.34228  0.04994  0.74794  1.0000 -0.3959933759
N   N44       1.0  0.30200  0.59434  0.25206  1.0000 -0.3959933759
N   N45       1.0  0.30568  0.61066  0.66278  1.0000 -0.4270724521
N   N46       1.0  0.94788  0.64290  0.33722  1.0000 -0.4270724521
N   N47       1.0  0.38934  0.05212  0.69502  1.0000 -0.4270724521
N   N48       1.0  0.35710  0.69432  0.30498  1.0000 -0.4270724521
N   N49       1.0  0.35813  0.71043  0.75030  1.0000 -0.4099078433
N   N50       1.0  0.96013  0.60783  0.24970  1.0000 -0.4099078433
N   N51       1.0  0.28957  0.03987  0.64770  1.0000 -0.4099078433
N   N52       1.0  0.39217  0.64187  0.35230  1.0000 -0.4099078433
N   N53       1.0  0.93213  0.59749  0.53266  1.0000 -0.2279542179
N   N54       1.0  0.06483  0.39947  0.46734  1.0000 -0.2279542179
N   N55       1.0  0.40251  0.93517  0.33464  1.0000 -0.2279542179
N   N56       1.0  0.60053  0.06787  0.66536  1.0000 -0.2279542179
O   O1        1.0  0.20582  0.25846  0.41948  1.0000 -0.5206165656
O   O2        1.0  0.83898  0.78634  0.58052  1.0000 -0.5206165656
O   O3        1.0  0.21366  0.79418  0.05264  1.0000 -0.5206165656
O   O4        1.0  0.74154  0.16102  0.94736  1.0000 -0.5206165656
O   O5        1.0  0.30270  0.29695  0.47749  1.0000 -0.4805794114
O   O6        1.0  0.81946  0.82521  0.52251  1.0000 -0.4805794114
O   O7        1.0  0.17479  0.69730  0.99425  1.0000 -0.4805794114
O   O8        1.0  0.70305  0.18054  0.00575  1.0000 -0.4805794114
O   O9        1.0  0.21147  0.27170  0.06033  1.0000 -0.4995464885
O   O10       1.0  0.21137  0.15114  0.93967  1.0000 -0.4995464885
O   O11       1.0  0.84886  0.78853  0.06023  1.0000 -0.4995464885
O   O12       1.0  0.72830  0.78863  0.93977  1.0000 -0.4995464885
O   O13       1.0  0.14988  0.21983  0.95337  1.0000 -0.4995464885
O   O14       1.0  0.26646  0.19651  0.04663  1.0000 -0.4995464885
O   O15       1.0  0.80349  0.85012  0.06995  1.0000 -0.4995464885
O   O16       1.0  0.78017  0.73354  0.93005  1.0000 -0.4995464885
O   O17       1.0  0.84093  0.25496  0.05613  1.0000 -0.5206165656
O   O18       1.0  0.19883  0.78480  0.94387  1.0000 -0.5206165656
O   O19       1.0  0.21520  0.15907  0.41403  1.0000 -0.5252575071
O   O20       1.0  0.74504  0.80117  0.58597  1.0000 -0.5206165656
O   O21       1.0  0.79980  0.27731  0.11227  1.0000 -0.5086366153
O   O22       1.0  0.16504  0.68753  0.88773  1.0000 -0.5086366153
O   O23       1.0  0.31247  0.20020  0.47751  1.0000 -0.5086366153
O   O24       1.0  0.72269  0.83496  0.52249  1.0000 -0.5086366153
O   O25       1.0  0.30445  0.23832  0.58287  1.0000 -0.5206165656
O   O26       1.0  0.65545  0.72158  0.41713  1.0000 -0.5206165656
O   O27       1.0  0.27842  0.69555  0.93387  1.0000 -0.5206165656
O   O28       1.0  0.76168  0.34455  0.06613  1.0000 -0.5206165656
O   O29       1.0  0.20698  0.19366  0.51818  1.0000 -0.5206165656
O   O30       1.0  0.67548  0.68880  0.48182  1.0000 -0.5206165656
O   O31       1.0  0.31120  0.79302  0.98668  1.0000 -0.5206165656
O   O32       1.0  0.80634  0.32452  0.01332  1.0000 -0.5206165656
O   O33       1.0  0.28029  0.22567  0.93504  1.0000 -0.5206165656
O   O34       1.0  0.29063  0.34525  0.06496  1.0000 -0.5206165656
O   O35       1.0  0.65475  0.71971  0.94538  1.0000 -0.5206165656
O   O36       1.0  0.77433  0.70937  0.05462  1.0000 -0.5206165656
O   O37       1.0  0.33971  0.25877  0.03838  1.0000 -0.5086366153
O   O38       1.0  0.22039  0.30133  0.96162  1.0000 -0.5086366153
O   O39       1.0  0.69867  0.66029  0.91906  1.0000 -0.5086366153
O   O40       1.0  0.74123  0.77961  0.08094  1.0000 -0.5086366153
O   O41       1.0  0.66279  0.24781  0.95852  1.0000 -0.5378508882
O   O42       1.0  0.28929  0.70427  0.04148  1.0000 -0.5378508882
O   O43       1.0  0.29573  0.33721  0.58502  1.0000 -0.5378508882
O   O44       1.0  0.75219  0.71071  0.41498  1.0000 -0.5378508882
O   O45       1.0  0.70618  0.23183  0.90509  1.0000 -0.5086366153
O   O46       1.0  0.32674  0.80109  0.09491  1.0000 -0.5086366153
O   O47       1.0  0.19891  0.29382  0.52565  1.0000 -0.5086366153
O   O48       1.0  0.76817  0.67326  0.47435  1.0000 -0.5086366153
O   O49       1.0  0.53634  0.45582  0.44736  1.0000 -0.5206165656
O   O50       1.0  0.00846  0.08898  0.55264  1.0000 -0.5206165656
O   O51       1.0  0.54418  0.99154  0.08052  1.0000 -0.5206165656
O   O52       1.0  0.91102  0.46366  0.91948  1.0000 -0.5206165656
O   O53       1.0  0.57521  0.55270  0.50575  1.0000 -0.4805794114
O   O54       1.0  0.04695  0.06946  0.49425  1.0000 -0.4805794114
O   O55       1.0  0.44730  0.95305  0.02251  1.0000 -0.4805794114
O   O56       1.0  0.93054  0.42479  0.97749  1.0000 -0.4805794114
O   O57       1.0  0.90114  0.46147  0.43977  1.0000 -0.4995464885
O   O58       1.0  0.02170  0.46137  0.56023  1.0000 -0.4995464885
O   O59       1.0  0.53853  0.97830  0.43967  1.0000 -0.4995464885
O   O60       1.0  0.53863  0.09886  0.56033  1.0000 -0.4995464885
O   O61       1.0  0.94651  0.39988  0.43005  1.0000 -0.4995464885
O   O62       1.0  0.96983  0.51646  0.56995  1.0000 -0.4995464885
O   O63       1.0  0.60012  0.03017  0.54663  1.0000 -0.4995464885
O   O64       1.0  0.48354  0.05349  0.45337  1.0000 -0.4995464885
O   O65       1.0  0.53480  0.09093  0.08597  1.0000 -0.5252575071
O   O66       1.0  0.00496  0.44883  0.91403  1.0000 -0.5206165656
O   O67       1.0  0.90907  0.99504  0.44387  1.0000 -0.5206165656
O   O68       1.0  0.55117  0.46520  0.55613  1.0000 -0.5206165656
O   O69       1.0  0.43753  0.04980  0.02249  1.0000 -0.5086366153
O   O70       1.0  0.02731  0.41504  0.97751  1.0000 -0.5086366153
O   O71       1.0  0.95020  0.97269  0.38773  1.0000 -0.5086366153
O   O72       1.0  0.58496  0.56247  0.61227  1.0000 -0.5086366153
O   O73       1.0  0.47158  0.55445  0.56613  1.0000 -0.5206165656
O   O74       1.0  0.98832  0.90545  0.43387  1.0000 -0.5206165656
O   O75       1.0  0.44555  0.01168  0.91713  1.0000 -0.5206165656
O   O76       1.0  0.09455  0.52842  0.08287  1.0000 -0.5206165656
O   O77       1.0  0.43880  0.45698  0.51332  1.0000 -0.5206165656
O   O78       1.0  0.94366  0.92548  0.48668  1.0000 -0.5206165656
O   O79       1.0  0.54302  0.05634  0.98182  1.0000 -0.5206165656
O   O80       1.0  0.07452  0.56120  0.01818  1.0000 -0.5206165656
O   O81       1.0  0.09525  0.53029  0.55462  1.0000 -0.5206165656
O   O82       1.0  0.97567  0.54063  0.44538  1.0000 -0.5206165656
O   O83       1.0  0.46971  0.02433  0.56496  1.0000 -0.5206165656
O   O84       1.0  0.45937  0.90475  0.43504  1.0000 -0.5206165656
O   O85       1.0  0.05133  0.58971  0.58094  1.0000 -0.5086366153
O   O86       1.0  0.00877  0.47039  0.41906  1.0000 -0.5086366153
O   O87       1.0  0.41029  0.99123  0.46162  1.0000 -0.5086366153
O   O88       1.0  0.52961  0.94867  0.53838  1.0000 -0.5086366153
O   O89       1.0  0.45427  0.91279  0.91498  1.0000 -0.5378508882
O   O90       1.0  0.99781  0.53929  0.08502  1.0000 -0.5378508882
O   O91       1.0  0.08721  0.00219  0.54148  1.0000 -0.5378508882
O   O92       1.0  0.46071  0.54573  0.45852  1.0000 -0.5378508882
O   O93       1.0  0.55109  0.95618  0.97435  1.0000 -0.5086366153
O   O94       1.0  0.98183  0.57674  0.02565  1.0000 -0.5086366153
O   O95       1.0  0.04382  0.01817  0.59491  1.0000 -0.5086366153
O   O96       1.0  0.42326  0.44891  0.40509  1.0000 -0.5086366153
