# DDEC6 charges by PACMAN v1.1 (https://github.com/mtap-research/PACMAN-charge/)
data_2009[Cu][tbo]3[ASR]6
_chemical_formula_sum              "Cu12 H24 C72 O48"
_cell_length_a       18.6138
_cell_length_b       18.6138
_cell_length_c       18.6138
_cell_angle_alpha    60
_cell_angle_beta     60
_cell_angle_gamma    60

_symmetry_space_group_name_H-M    "P 1"
_symmetry_Int_Tables_number       1

loop_
  _symmetry_equiv_pos_as_xyz
  'x, y, z'

loop_
  _atom_site_type_symbol
  _atom_site_label
  _atom_site_symmetry_multiplicity
  _atom_site_fract_x
  _atom_site_fract_y
  _atom_site_fract_z
  _atom_site_occupancy
  _atom_site_charge
Cu  Cu1       1.0  0.42984  0.00000  0.57016  1.0000 0.8574749891
Cu  Cu2       1.0  0.00000  0.42984  0.00000  1.0000 0.8574749891
Cu  Cu3       1.0  0.57016  0.00000  0.42984  1.0000 0.8574749891
Cu  Cu4       1.0  1.00000  0.57016  0.00000  1.0000 0.8574749891
Cu  Cu5       1.0  0.42984  0.57016  0.00000  1.0000 0.8574749891
Cu  Cu6       1.0  0.00000  0.00000  0.57016  1.0000 0.8574749891
Cu  Cu7       1.0  0.57016  0.42984  0.00000  1.0000 0.8574749891
Cu  Cu8       1.0  0.00000  0.00000  0.42984  1.0000 0.8574749891
Cu  Cu9       1.0  0.42984  0.00000  0.00000  1.0000 0.8574749891
Cu  Cu10      1.0  1.00000  0.57016  0.42984  1.0000 0.8574749891
Cu  Cu11      1.0  0.57016  0.00000  0.00000  1.0000 0.8574749891
Cu  Cu12      1.0  0.00000  0.42984  0.57016  1.0000 0.8574749891
H   H1        1.0  0.72810  0.03170  0.51210  1.0000 0.1378160008
H   H2        1.0  0.03170  0.72810  0.72810  1.0000 0.1378160008
H   H3        1.0  0.51210  0.72810  0.72810  1.0000 0.1378160008
H   H4        1.0  0.72810  0.51210  0.03170  1.0000 0.1378160008
H   H5        1.0  0.72810  0.51210  0.72810  1.0000 0.1378160008
H   H6        1.0  0.03170  0.72810  0.51210  1.0000 0.1378160008
H   H7        1.0  0.51210  0.72810  0.03170  1.0000 0.1378160008
H   H8        1.0  0.72810  0.03170  0.72810  1.0000 0.1378160008
H   H9        1.0  0.72810  0.72810  0.03170  1.0000 0.1378160008
H   H10       1.0  0.03170  0.51210  0.72810  1.0000 0.1378160008
H   H11       1.0  0.51210  0.03170  0.72810  1.0000 0.1378160008
H   H12       1.0  0.72810  0.72810  0.51210  1.0000 0.1378160008
H   H13       1.0  0.96830  0.27190  0.48790  1.0000 0.1378160008
H   H14       1.0  0.27190  0.96830  0.27190  1.0000 0.1378160008
H   H15       1.0  0.27190  0.48790  0.27190  1.0000 0.1378160008
H   H16       1.0  0.48790  0.27190  0.96830  1.0000 0.1378160008
H   H17       1.0  0.48790  0.27190  0.27190  1.0000 0.1378160008
H   H18       1.0  0.27190  0.96830  0.48790  1.0000 0.1378160008
H   H19       1.0  0.27190  0.48790  0.96830  1.0000 0.1378160008
H   H20       1.0  0.96830  0.27190  0.27190  1.0000 0.1378160008
H   H21       1.0  0.27190  0.27190  0.96830  1.0000 0.1378160008
H   H22       1.0  0.48790  0.96830  0.27190  1.0000 0.1378160008
H   H23       1.0  0.96830  0.48790  0.27190  1.0000 0.1378160008
H   H24       1.0  0.27190  0.27190  0.48790  1.0000 0.1378160008
C   C1        1.0  0.56910  0.02528  0.56910  1.0000 0.5816154444
C   C2        1.0  0.61270  0.03228  0.61270  1.0000 -0.039305631
C   C3        1.0  0.02528  0.56910  0.83652  1.0000 0.5816154444
C   C4        1.0  0.03228  0.61270  0.74232  1.0000 -0.039305631
C   C5        1.0  0.56910  0.83652  0.56910  1.0000 0.5816154444
C   C6        1.0  0.61270  0.74232  0.61270  1.0000 -0.039305631
C   C7        1.0  0.83652  0.56910  0.02528  1.0000 0.5816154444
C   C8        1.0  0.74232  0.61270  0.03228  1.0000 -0.039305631
C   C9        1.0  0.56910  0.56910  0.83652  1.0000 0.5816154444
C   C10       1.0  0.61270  0.61270  0.74232  1.0000 -0.039305631
C   C11       1.0  0.02528  0.83652  0.56910  1.0000 0.5816154444
C   C12       1.0  0.03228  0.74232  0.61270  1.0000 -0.039305631
C   C13       1.0  0.56910  0.56910  0.02528  1.0000 0.5816154444
C   C14       1.0  0.61270  0.61270  0.03228  1.0000 -0.039305631
C   C15       1.0  0.83652  0.02528  0.56910  1.0000 0.5816154444
C   C16       1.0  0.74232  0.03228  0.61270  1.0000 -0.039305631
C   C17       1.0  0.56910  0.83652  0.02528  1.0000 0.5816154444
C   C18       1.0  0.61270  0.74232  0.03228  1.0000 -0.039305631
C   C19       1.0  0.02528  0.56910  0.56910  1.0000 0.5816154444
C   C20       1.0  0.03228  0.61270  0.61270  1.0000 -0.039305631
C   C21       1.0  0.56910  0.02528  0.83652  1.0000 0.5816154444
C   C22       1.0  0.61270  0.03228  0.74232  1.0000 -0.039305631
C   C23       1.0  0.83652  0.56910  0.56910  1.0000 0.5816154444
C   C24       1.0  0.74232  0.61270  0.61270  1.0000 -0.039305631
C   C25       1.0  0.97472  0.43090  0.43090  1.0000 0.5816154444
C   C26       1.0  0.96772  0.38730  0.38730  1.0000 -0.039305631
C   C27       1.0  0.43090  0.97472  0.16348  1.0000 0.5816154444
C   C28       1.0  0.38730  0.96772  0.25768  1.0000 -0.039305631
C   C29       1.0  0.16348  0.43090  0.43090  1.0000 0.5816154444
C   C30       1.0  0.25768  0.38730  0.38730  1.0000 -0.039305631
C   C31       1.0  0.43090  0.16348  0.97472  1.0000 0.5816154444
C   C32       1.0  0.38730  0.25768  0.96772  1.0000 -0.039305631
C   C33       1.0  0.43090  0.43090  0.16348  1.0000 0.5816154444
C   C34       1.0  0.38730  0.38730  0.25768  1.0000 -0.039305631
C   C35       1.0  0.16348  0.97472  0.43090  1.0000 0.5816154444
C   C36       1.0  0.25768  0.96772  0.38730  1.0000 -0.039305631
C   C37       1.0  0.43090  0.43090  0.97472  1.0000 0.5816154444
C   C38       1.0  0.38730  0.38730  0.96772  1.0000 -0.039305631
C   C39       1.0  0.97472  0.16348  0.43090  1.0000 0.5816154444
C   C40       1.0  0.96772  0.25768  0.38730  1.0000 -0.039305631
C   C41       1.0  0.16348  0.43090  0.97472  1.0000 0.5816154444
C   C42       1.0  0.25768  0.38730  0.96772  1.0000 -0.039305631
C   C43       1.0  0.43090  0.97472  0.43090  1.0000 0.5816154444
C   C44       1.0  0.38730  0.96772  0.38730  1.0000 -0.039305631
C   C45       1.0  0.97472  0.43090  0.16348  1.0000 0.5816154444
C   C46       1.0  0.96772  0.38730  0.25768  1.0000 -0.039305631
C   C47       1.0  0.43090  0.16348  0.43090  1.0000 0.5816154444
C   C48       1.0  0.38730  0.25768  0.38730  1.0000 -0.039305631
C   C49       1.0  0.69920  0.03206  0.56954  1.0000 -0.0762484226
C   C50       1.0  0.03206  0.69920  0.69920  1.0000 -0.0762484226
C   C51       1.0  0.56954  0.69920  0.69920  1.0000 -0.0762484226
C   C52       1.0  0.69920  0.56954  0.03206  1.0000 -0.0762484226
C   C53       1.0  0.69920  0.56954  0.69920  1.0000 -0.0762484226
C   C54       1.0  0.03206  0.69920  0.56954  1.0000 -0.0762484226
C   C55       1.0  0.56954  0.69920  0.03206  1.0000 -0.0762484226
C   C56       1.0  0.69920  0.03206  0.69920  1.0000 -0.0762484226
C   C57       1.0  0.69920  0.69920  0.03206  1.0000 -0.0762484226
C   C58       1.0  0.03206  0.56954  0.69920  1.0000 -0.0762484226
C   C59       1.0  0.56954  0.03206  0.69920  1.0000 -0.0762484226
C   C60       1.0  0.69920  0.69920  0.56954  1.0000 -0.0762484226
C   C61       1.0  0.96794  0.30080  0.43046  1.0000 -0.0762484226
C   C62       1.0  0.30080  0.96794  0.30080  1.0000 -0.0744208134
C   C63       1.0  0.30080  0.43046  0.30080  1.0000 -0.0762484226
C   C64       1.0  0.43046  0.30080  0.96794  1.0000 -0.0762484226
C   C65       1.0  0.43046  0.30080  0.30080  1.0000 -0.0762484226
C   C66       1.0  0.30080  0.96794  0.43046  1.0000 -0.0762484226
C   C67       1.0  0.30080  0.43046  0.96794  1.0000 -0.0762484226
C   C68       1.0  0.96794  0.30080  0.30080  1.0000 -0.0762484226
C   C69       1.0  0.30080  0.30080  0.96794  1.0000 -0.0762484226
C   C70       1.0  0.43046  0.96794  0.30080  1.0000 -0.0762484226
C   C71       1.0  0.96794  0.43046  0.30080  1.0000 -0.0762484226
C   C72       1.0  0.30080  0.30080  0.43046  1.0000 -0.0762484226
O   O1        1.0  0.49246  0.02118  0.61244  1.0000 -0.5164665861
O   O2        1.0  0.02118  0.49246  0.87392  1.0000 -0.5164665861
O   O3        1.0  0.61244  0.87392  0.49246  1.0000 -0.5145295001
O   O4        1.0  0.87392  0.61244  0.02118  1.0000 -0.5164665861
O   O5        1.0  0.49246  0.61244  0.87392  1.0000 -0.5164665861
O   O6        1.0  0.02118  0.87392  0.61244  1.0000 -0.5164665861
O   O7        1.0  0.61244  0.49246  0.02118  1.0000 -0.5164665861
O   O8        1.0  0.87392  0.02118  0.49246  1.0000 -0.5164665861
O   O9        1.0  0.49246  0.87392  0.02118  1.0000 -0.5164665861
O   O10       1.0  0.02118  0.61244  0.49246  1.0000 -0.5164665861
O   O11       1.0  0.61244  0.02118  0.87392  1.0000 -0.5164665861
O   O12       1.0  0.87392  0.49246  0.61244  1.0000 -0.5164665861
O   O13       1.0  0.97882  0.50754  0.38756  1.0000 -0.5164665861
O   O14       1.0  0.50754  0.97882  0.12608  1.0000 -0.5164665861
O   O15       1.0  0.12608  0.38756  0.50754  1.0000 -0.5164665861
O   O16       1.0  0.38756  0.12608  0.97882  1.0000 -0.5164665861
O   O17       1.0  0.38756  0.50754  0.12608  1.0000 -0.5164665861
O   O18       1.0  0.12608  0.97882  0.38756  1.0000 -0.5164665861
O   O19       1.0  0.50754  0.38756  0.97882  1.0000 -0.5164665861
O   O20       1.0  0.97882  0.12608  0.50754  1.0000 -0.5164665861
O   O21       1.0  0.12608  0.50754  0.97882  1.0000 -0.5164665861
O   O22       1.0  0.38756  0.97882  0.50754  1.0000 -0.5145295001
O   O23       1.0  0.97882  0.38756  0.12608  1.0000 -0.5164665861
O   O24       1.0  0.50754  0.12608  0.38756  1.0000 -0.5164665861
O   O25       1.0  0.50754  0.97882  0.38756  1.0000 -0.5164665861
O   O26       1.0  0.97882  0.50754  0.12608  1.0000 -0.5164665861
O   O27       1.0  0.38756  0.12608  0.50754  1.0000 -0.5164665861
O   O28       1.0  0.12608  0.38756  0.97882  1.0000 -0.5164665861
O   O29       1.0  0.50754  0.38756  0.12608  1.0000 -0.5164665861
O   O30       1.0  0.97882  0.12608  0.38756  1.0000 -0.5164665861
O   O31       1.0  0.38756  0.50754  0.97882  1.0000 -0.5164665861
O   O32       1.0  0.12608  0.97882  0.50754  1.0000 -0.5145295001
O   O33       1.0  0.50754  0.12608  0.97882  1.0000 -0.5164665861
O   O34       1.0  0.97882  0.38756  0.50754  1.0000 -0.5164665861
O   O35       1.0  0.38756  0.97882  0.12608  1.0000 -0.5164665861
O   O36       1.0  0.12608  0.50754  0.38756  1.0000 -0.5164665861
O   O37       1.0  0.02118  0.49246  0.61244  1.0000 -0.5164665861
O   O38       1.0  0.49246  0.02118  0.87392  1.0000 -0.5164665861
O   O39       1.0  0.87392  0.61244  0.49246  1.0000 -0.5164665861
O   O40       1.0  0.61244  0.87392  0.02118  1.0000 -0.5164665861
O   O41       1.0  0.61244  0.49246  0.87392  1.0000 -0.5164665861
O   O42       1.0  0.87392  0.02118  0.61244  1.0000 -0.5164665861
O   O43       1.0  0.49246  0.61244  0.02118  1.0000 -0.5164665861
O   O44       1.0  0.02118  0.87392  0.49246  1.0000 -0.5164665861
O   O45       1.0  0.87392  0.49246  0.02118  1.0000 -0.5164665861
O   O46       1.0  0.61244  0.02118  0.49246  1.0000 -0.5164665861
O   O47       1.0  0.02118  0.61244  0.87392  1.0000 -0.5164665861
O   O48       1.0  0.49246  0.87392  0.61244  1.0000 -0.5164665861
