# DDEC6 charges by PACMAN v1.1 (https://github.com/mtap-research/PACMAN-charge/)
data_2009[In][rho]3[ASR]1
_chemical_formula_sum              "In24 H48 C240 N96 O192"
_cell_length_a       26.8329
_cell_length_b       26.8329
_cell_length_c       26.8329
_cell_angle_alpha    109.471
_cell_angle_beta     109.471
_cell_angle_gamma    109.471

_symmetry_space_group_name_H-M    "P 1"
_symmetry_Int_Tables_number       1

loop_
  _symmetry_equiv_pos_as_xyz
  'x, y, z'

loop_
  _atom_site_type_symbol
  _atom_site_label
  _atom_site_symmetry_multiplicity
  _atom_site_fract_x
  _atom_site_fract_y
  _atom_site_fract_z
  _atom_site_occupancy
  _atom_site_charge
In  In1       1.0  0.64560  0.35440  0.50000  1.0000 1.1485416087
In  In2       1.0  0.85440  0.14560  0.50000  1.0000 1.1485416087
In  In3       1.0  0.14560  0.64560  0.29120  1.0000 1.1485416087
In  In4       1.0  0.35440  0.85440  0.70880  1.0000 1.1485416087
In  In5       1.0  0.50000  0.64560  0.35440  1.0000 1.1485416087
In  In6       1.0  0.50000  0.85440  0.14560  1.0000 1.1485416087
In  In7       1.0  0.29120  0.14560  0.64560  1.0000 1.1485416087
In  In8       1.0  0.70880  0.35440  0.85440  1.0000 1.1485416087
In  In9       1.0  0.35440  0.50000  0.64560  1.0000 1.1485416087
In  In10      1.0  0.14560  0.50000  0.85440  1.0000 1.1485416087
In  In11      1.0  0.64560  0.29120  0.14560  1.0000 1.1485416087
In  In12      1.0  0.85440  0.70880  0.35440  1.0000 1.1485416087
In  In13      1.0  0.35440  0.64560  0.50000  1.0000 1.1485416087
In  In14      1.0  0.14560  0.85440  0.50000  1.0000 1.1485416087
In  In15      1.0  0.85440  0.35440  0.70880  1.0000 1.1485416087
In  In16      1.0  0.64560  0.14560  0.29120  1.0000 1.1485416087
In  In17      1.0  0.50000  0.35440  0.64560  1.0000 1.1485416087
In  In18      1.0  0.50000  0.14560  0.85440  1.0000 1.1485416087
In  In19      1.0  0.70880  0.85440  0.35440  1.0000 1.1485416087
In  In20      1.0  0.29120  0.64560  0.14560  1.0000 1.1485416087
In  In21      1.0  0.64560  0.50000  0.35440  1.0000 1.1485416087
In  In22      1.0  0.85440  0.50000  0.14560  1.0000 1.1485416087
In  In23      1.0  0.35440  0.70880  0.85440  1.0000 1.1485416087
In  In24      1.0  0.14560  0.29120  0.64560  1.0000 1.1485416087
H   H1        1.0  0.62080  0.39800  0.62080  1.0000 0.1395897013
H   H2        1.0  0.77720  0.00000  0.37920  1.0000 0.1395897013
H   H3        1.0  0.22280  0.60200  0.22280  1.0000 0.1395897013
H   H4        1.0  0.37920  1.00000  0.77720  1.0000 0.1395897013
H   H5        1.0  0.62080  0.62080  0.39800  1.0000 0.1395897013
H   H6        1.0  0.37920  0.77720  0.00000  1.0000 0.1395897013
H   H7        1.0  0.22280  0.22280  0.60200  1.0000 0.1395897013
H   H8        1.0  0.77720  0.37920  0.00000  1.0000 0.1395897013
H   H9        1.0  0.39800  0.62080  0.62080  1.0000 0.1395897013
H   H10       1.0  0.00000  0.37920  0.77720  1.0000 0.1395897013
H   H11       1.0  0.60200  0.22280  0.22280  1.0000 0.1395897013
H   H12       1.0  0.00000  0.77720  0.37920  1.0000 0.1395897013
H   H13       1.0  0.00000  0.22280  0.62080  1.0000 0.1395897013
H   H14       1.0  0.60200  0.37920  0.37920  1.0000 0.1395897013
H   H15       1.0  0.00000  0.62080  0.22280  1.0000 0.1395897013
H   H16       1.0  0.39800  0.77720  0.77720  1.0000 0.1395897013
H   H17       1.0  0.77720  0.77720  0.39800  1.0000 0.1395897013
H   H18       1.0  0.62080  0.22280  0.00000  1.0000 0.1395897013
H   H19       1.0  0.37920  0.37920  0.60200  1.0000 0.1395897013
H   H20       1.0  0.22280  0.62080  0.00000  1.0000 0.1395897013
H   H21       1.0  0.22280  1.00000  0.62080  1.0000 0.1395897013
H   H22       1.0  0.77720  0.39800  0.77720  1.0000 0.1395897013
H   H23       1.0  0.62080  0.00000  0.22280  1.0000 0.1395897013
H   H24       1.0  0.37920  0.60200  0.37920  1.0000 0.1395897013
H   H25       1.0  0.78170  0.41030  0.62860  1.0000 0.1395897013
H   H26       1.0  0.78170  0.15310  0.37140  1.0000 0.1395897013
H   H27       1.0  0.21830  0.58970  0.37140  1.0000 0.1395897013
H   H28       1.0  0.21830  0.84690  0.62860  1.0000 0.1395897013
H   H29       1.0  0.62860  0.78170  0.41030  1.0000 0.1395897013
H   H30       1.0  0.37140  0.78170  0.15310  1.0000 0.1395897013
H   H31       1.0  0.37140  0.21830  0.58970  1.0000 0.1395897013
H   H32       1.0  0.62860  0.21830  0.84690  1.0000 0.1395897013
H   H33       1.0  0.41030  0.62860  0.78170  1.0000 0.1395897013
H   H34       1.0  0.15310  0.37140  0.78170  1.0000 0.1395897013
H   H35       1.0  0.58970  0.37140  0.21830  1.0000 0.1395897013
H   H36       1.0  0.84690  0.62860  0.21830  1.0000 0.1395897013
H   H37       1.0  0.84690  0.21830  0.62860  1.0000 0.1395897013
H   H38       1.0  0.58970  0.21830  0.37140  1.0000 0.1395897013
H   H39       1.0  0.15310  0.78170  0.37140  1.0000 0.1395897013
H   H40       1.0  0.41030  0.78170  0.62860  1.0000 0.1395897013
H   H41       1.0  0.78170  0.62860  0.41030  1.0000 0.1395897013
H   H42       1.0  0.78170  0.37140  0.15310  1.0000 0.1395897013
H   H43       1.0  0.21830  0.37140  0.58970  1.0000 0.1395897013
H   H44       1.0  0.21830  0.62860  0.84690  1.0000 0.1395897013
H   H45       1.0  0.37140  0.15310  0.78170  1.0000 0.1395897013
H   H46       1.0  0.62860  0.41030  0.78170  1.0000 0.1395897013
H   H47       1.0  0.62860  0.84690  0.21830  1.0000 0.1395897013
H   H48       1.0  0.37140  0.58970  0.21830  1.0000 0.1395897013
C   C1        1.0  0.58413  0.37384  0.58413  1.0000 0.2332172424
C   C2        1.0  0.78971  0.00000  0.41587  1.0000 0.2332172424
C   C3        1.0  0.21029  0.62616  0.21029  1.0000 0.2332172424
C   C4        1.0  0.41587  1.00000  0.78971  1.0000 0.2332172424
C   C5        1.0  0.58413  0.58413  0.37384  1.0000 0.2332172424
C   C6        1.0  0.41587  0.78971  0.00000  1.0000 0.2332172424
C   C7        1.0  0.21029  0.21029  0.62616  1.0000 0.2332172424
C   C8        1.0  0.78971  0.41587  0.00000  1.0000 0.2332172424
C   C9        1.0  0.37384  0.58413  0.58413  1.0000 0.2332172424
C   C10       1.0  0.00000  0.41587  0.78971  1.0000 0.2332172424
C   C11       1.0  0.62616  0.21029  0.21029  1.0000 0.2332172424
C   C12       1.0  0.00000  0.78971  0.41587  1.0000 0.2332172424
C   C13       1.0  0.00000  0.21029  0.58413  1.0000 0.2332172424
C   C14       1.0  0.62616  0.41587  0.41587  1.0000 0.2332172424
C   C15       1.0  0.00000  0.58413  0.21029  1.0000 0.2332172424
C   C16       1.0  0.37384  0.78971  0.78971  1.0000 0.2332172424
C   C17       1.0  0.78971  0.78971  0.37384  1.0000 0.2332172424
C   C18       1.0  0.58413  0.21029  0.00000  1.0000 0.2332172424
C   C19       1.0  0.41587  0.41587  0.62616  1.0000 0.2332172424
C   C20       1.0  0.21029  0.58413  0.00000  1.0000 0.2332172424
C   C21       1.0  0.21029  0.00000  0.58413  1.0000 0.2332172424
C   C22       1.0  0.78971  0.37384  0.78971  1.0000 0.2332172424
C   C23       1.0  0.58413  0.00000  0.21029  1.0000 0.2332172424
C   C24       1.0  0.41587  0.62616  0.41587  1.0000 0.2332172424
C   C25       1.0  0.51922  0.32113  0.48825  1.0000 0.0600554402
C   C26       1.0  0.83288  0.03097  0.51175  1.0000 0.0600554402
C   C27       1.0  0.16712  0.67887  0.19809  1.0000 0.0600554402
C   C28       1.0  0.48078  0.96903  0.80191  1.0000 0.0600554402
C   C29       1.0  0.48825  0.51922  0.32113  1.0000 0.0600554402
C   C30       1.0  0.51175  0.83288  0.03097  1.0000 0.0600554402
C   C31       1.0  0.19809  0.16712  0.67887  1.0000 0.0600554402
C   C32       1.0  0.80191  0.48078  0.96903  1.0000 0.0600554402
C   C33       1.0  0.32113  0.48825  0.51922  1.0000 0.0600554402
C   C34       1.0  0.03097  0.51175  0.83288  1.0000 0.0600554402
C   C35       1.0  0.67887  0.19809  0.16712  1.0000 0.0600554402
C   C36       1.0  0.96903  0.80191  0.48078  1.0000 0.0600554402
C   C37       1.0  0.96903  0.16712  0.48825  1.0000 0.0600554402
C   C38       1.0  0.67887  0.48078  0.51175  1.0000 0.0600554402
C   C39       1.0  0.03097  0.51922  0.19809  1.0000 0.0600554402
C   C40       1.0  0.32113  0.83288  0.80191  1.0000 0.0600554402
C   C41       1.0  0.83288  0.80191  0.32113  1.0000 0.0600554402
C   C42       1.0  0.51922  0.19809  0.03097  1.0000 0.0600554402
C   C43       1.0  0.48078  0.51175  0.67887  1.0000 0.0600554402
C   C44       1.0  0.16712  0.48825  0.96903  1.0000 0.0600554402
C   C45       1.0  0.19809  0.03097  0.51922  1.0000 0.0600554402
C   C46       1.0  0.80191  0.32113  0.83288  1.0000 0.0600554402
C   C47       1.0  0.48825  0.96903  0.16712  1.0000 0.0600554402
C   C48       1.0  0.51175  0.67887  0.48078  1.0000 0.0600554402
C   C49       1.0  0.48078  0.67887  0.51175  1.0000 0.0600554402
C   C50       1.0  0.16712  0.96903  0.48825  1.0000 0.0600554402
C   C51       1.0  0.83288  0.32113  0.80191  1.0000 0.0600554402
C   C52       1.0  0.51922  0.03097  0.19809  1.0000 0.0600554402
C   C53       1.0  0.51175  0.48078  0.67887  1.0000 0.0600554402
C   C54       1.0  0.48825  0.16712  0.96903  1.0000 0.0600554402
C   C55       1.0  0.80191  0.83288  0.32113  1.0000 0.0600554402
C   C56       1.0  0.19809  0.51922  0.03097  1.0000 0.0600554402
C   C57       1.0  0.67887  0.51175  0.48078  1.0000 0.0600554402
C   C58       1.0  0.96903  0.48825  0.16712  1.0000 0.0600554402
C   C59       1.0  0.32113  0.80191  0.83288  1.0000 0.0600554402
C   C60       1.0  0.03097  0.19809  0.51922  1.0000 0.0600554402
C   C61       1.0  0.03097  0.83288  0.51175  1.0000 0.0600554402
C   C62       1.0  0.32113  0.51922  0.48825  1.0000 0.0600554402
C   C63       1.0  0.96903  0.48078  0.80191  1.0000 0.0600554402
C   C64       1.0  0.67887  0.16712  0.19809  1.0000 0.0600554402
C   C65       1.0  0.16712  0.19809  0.67887  1.0000 0.0600554402
C   C66       1.0  0.48078  0.80191  0.96903  1.0000 0.0600554402
C   C67       1.0  0.51922  0.48825  0.32113  1.0000 0.0600554402
C   C68       1.0  0.83288  0.51175  0.03097  1.0000 0.0600554402
C   C69       1.0  0.80191  0.96903  0.48078  1.0000 0.0600554402
C   C70       1.0  0.19809  0.67887  0.16712  1.0000 0.0600554402
C   C71       1.0  0.51175  0.03097  0.83288  1.0000 0.0600554402
C   C72       1.0  0.48825  0.32113  0.51922  1.0000 0.0600554402
C   C73       1.0  0.49997  0.29248  0.42281  1.0000 0.5470207823
C   C74       1.0  0.86967  0.07716  0.57719  1.0000 0.5470207823
C   C75       1.0  0.13033  0.70752  0.20749  1.0000 0.5470207823
C   C76       1.0  0.50003  0.92284  0.79251  1.0000 0.5470207823
C   C77       1.0  0.42281  0.49997  0.29248  1.0000 0.5470207823
C   C78       1.0  0.57719  0.86967  0.07716  1.0000 0.5470207823
C   C79       1.0  0.20749  0.13033  0.70752  1.0000 0.5470207823
C   C80       1.0  0.79251  0.50003  0.92284  1.0000 0.5470207823
C   C81       1.0  0.29248  0.42281  0.49997  1.0000 0.5470207823
C   C82       1.0  0.07716  0.57719  0.86967  1.0000 0.5470207823
C   C83       1.0  0.70752  0.20749  0.13033  1.0000 0.5470207823
C   C84       1.0  0.92284  0.79251  0.50003  1.0000 0.5470207823
C   C85       1.0  0.92284  0.13033  0.42281  1.0000 0.5470207823
C   C86       1.0  0.70752  0.50003  0.57719  1.0000 0.5470207823
C   C87       1.0  0.07716  0.49997  0.20749  1.0000 0.5470207823
C   C88       1.0  0.29248  0.86967  0.79251  1.0000 0.5470207823
C   C89       1.0  0.86967  0.79251  0.29248  1.0000 0.5470207823
C   C90       1.0  0.49997  0.20749  0.07716  1.0000 0.5470207823
C   C91       1.0  0.50003  0.57719  0.70752  1.0000 0.5470207823
C   C92       1.0  0.13033  0.42281  0.92284  1.0000 0.5470207823
C   C93       1.0  0.20749  0.07716  0.49997  1.0000 0.5470207823
C   C94       1.0  0.79251  0.29248  0.86967  1.0000 0.5470207823
C   C95       1.0  0.42281  0.92284  0.13033  1.0000 0.5470207823
C   C96       1.0  0.57719  0.70752  0.50003  1.0000 0.5470207823
C   C97       1.0  0.50003  0.70752  0.57719  1.0000 0.5470207823
C   C98       1.0  0.13033  0.92284  0.42281  1.0000 0.5470207823
C   C99       1.0  0.86967  0.29248  0.79251  1.0000 0.5470207823
C   C100      1.0  0.49997  0.07716  0.20749  1.0000 0.5470207823
C   C101      1.0  0.57719  0.50003  0.70752  1.0000 0.5470207823
C   C102      1.0  0.42281  0.13033  0.92284  1.0000 0.5470207823
C   C103      1.0  0.79251  0.86967  0.29248  1.0000 0.5470207823
C   C104      1.0  0.20749  0.49997  0.07716  1.0000 0.5470207823
C   C105      1.0  0.70752  0.57719  0.50003  1.0000 0.5470207823
C   C106      1.0  0.92284  0.42281  0.13033  1.0000 0.5470207823
C   C107      1.0  0.29248  0.79251  0.86967  1.0000 0.5470207823
C   C108      1.0  0.07716  0.20749  0.49997  1.0000 0.5470207823
C   C109      1.0  0.07716  0.86967  0.57719  1.0000 0.5470207823
C   C110      1.0  0.29248  0.49997  0.42281  1.0000 0.5470207823
C   C111      1.0  0.92284  0.50003  0.79251  1.0000 0.5470207823
C   C112      1.0  0.70752  0.13033  0.20749  1.0000 0.5470207823
C   C113      1.0  0.13033  0.20749  0.70752  1.0000 0.5470207823
C   C114      1.0  0.50003  0.79251  0.92284  1.0000 0.5470207823
C   C115      1.0  0.49997  0.42281  0.29248  1.0000 0.5470207823
C   C116      1.0  0.86967  0.57719  0.07716  1.0000 0.5470207823
C   C117      1.0  0.79251  0.92284  0.50003  1.0000 0.5470207823
C   C118      1.0  0.20749  0.70752  0.13033  1.0000 0.5470207823
C   C119      1.0  0.57719  0.07716  0.86967  1.0000 0.5470207823
C   C120      1.0  0.42281  0.29248  0.49997  1.0000 0.5470207823
C   C121      1.0  0.67375  0.28179  0.56382  1.0000 0.0525490759
C   C122      1.0  0.71797  0.10993  0.43618  1.0000 0.0525490759
C   C123      1.0  0.28203  0.71821  0.39196  1.0000 0.0525490759
C   C124      1.0  0.32625  0.89007  0.60804  1.0000 0.0525490759
C   C125      1.0  0.56382  0.67375  0.28179  1.0000 0.0525490759
C   C126      1.0  0.43618  0.71797  0.10993  1.0000 0.0525490759
C   C127      1.0  0.39196  0.28203  0.71821  1.0000 0.0525490759
C   C128      1.0  0.60804  0.32625  0.89007  1.0000 0.0525490759
C   C129      1.0  0.28179  0.56382  0.67375  1.0000 0.0525490759
C   C130      1.0  0.10993  0.43618  0.71797  1.0000 0.0525490759
C   C131      1.0  0.71821  0.39196  0.28203  1.0000 0.0525490759
C   C132      1.0  0.89007  0.60804  0.32625  1.0000 0.0525490759
C   C133      1.0  0.89007  0.28203  0.56382  1.0000 0.0525490759
C   C134      1.0  0.71821  0.32625  0.43618  1.0000 0.0525490759
C   C135      1.0  0.10993  0.67375  0.39196  1.0000 0.0525490759
C   C136      1.0  0.28179  0.71797  0.60804  1.0000 0.0525490759
C   C137      1.0  0.71797  0.60804  0.28179  1.0000 0.0525490759
C   C138      1.0  0.67375  0.39196  0.10993  1.0000 0.0525490759
C   C139      1.0  0.32625  0.43618  0.71821  1.0000 0.0525490759
C   C140      1.0  0.28203  0.56382  0.89007  1.0000 0.0525490759
C   C141      1.0  0.39196  0.10993  0.67375  1.0000 0.0525490759
C   C142      1.0  0.60804  0.28179  0.71797  1.0000 0.0525490759
C   C143      1.0  0.56382  0.89007  0.28203  1.0000 0.0525490759
C   C144      1.0  0.43618  0.71821  0.32625  1.0000 0.0525490759
C   C145      1.0  0.32625  0.71821  0.43618  1.0000 0.0525490759
C   C146      1.0  0.28203  0.89007  0.56382  1.0000 0.0525490759
C   C147      1.0  0.71797  0.28179  0.60804  1.0000 0.0525490759
C   C148      1.0  0.67375  0.10993  0.39196  1.0000 0.0525490759
C   C149      1.0  0.43618  0.32625  0.71821  1.0000 0.0525490759
C   C150      1.0  0.56382  0.28203  0.89007  1.0000 0.0525490759
C   C151      1.0  0.60804  0.71797  0.28179  1.0000 0.0525490759
C   C152      1.0  0.39196  0.67375  0.10993  1.0000 0.0525490759
C   C153      1.0  0.71821  0.43618  0.32625  1.0000 0.0525490759
C   C154      1.0  0.89007  0.56382  0.28203  1.0000 0.0525490759
C   C155      1.0  0.28179  0.60804  0.71797  1.0000 0.0525490759
C   C156      1.0  0.10993  0.39196  0.67375  1.0000 0.0525490759
C   C157      1.0  0.10993  0.71797  0.43618  1.0000 0.0525490759
C   C158      1.0  0.28179  0.67375  0.56382  1.0000 0.0525490759
C   C159      1.0  0.89007  0.32625  0.60804  1.0000 0.0525490759
C   C160      1.0  0.71821  0.28203  0.39196  1.0000 0.0525490759
C   C161      1.0  0.28203  0.39196  0.71821  1.0000 0.0525490759
C   C162      1.0  0.32625  0.60804  0.89007  1.0000 0.0525490759
C   C163      1.0  0.67375  0.56382  0.28179  1.0000 0.0525490759
C   C164      1.0  0.71797  0.43618  0.10993  1.0000 0.0525490759
C   C165      1.0  0.60804  0.89007  0.32625  1.0000 0.0525490759
C   C166      1.0  0.39196  0.71821  0.28203  1.0000 0.0525490759
C   C167      1.0  0.43618  0.10993  0.71797  1.0000 0.0525490759
C   C168      1.0  0.56382  0.28179  0.67375  1.0000 0.0525490759
C   C169      1.0  0.61156  0.23359  0.51417  1.0000 0.5470207823
C   C170      1.0  0.71942  0.09739  0.48583  1.0000 0.5470207823
C   C171      1.0  0.28058  0.76641  0.37797  1.0000 0.5470207823
C   C172      1.0  0.38844  0.90261  0.62203  1.0000 0.5470207823
C   C173      1.0  0.51417  0.61156  0.23359  1.0000 0.5470207823
C   C174      1.0  0.48583  0.71942  0.09739  1.0000 0.5470207823
C   C175      1.0  0.37797  0.28058  0.76641  1.0000 0.5470207823
C   C176      1.0  0.62203  0.38844  0.90261  1.0000 0.5470207823
C   C177      1.0  0.23359  0.51417  0.61156  1.0000 0.5470207823
C   C178      1.0  0.09739  0.48583  0.71942  1.0000 0.5470207823
C   C179      1.0  0.76641  0.37797  0.28058  1.0000 0.5470207823
C   C180      1.0  0.90261  0.62203  0.38844  1.0000 0.5470207823
C   C181      1.0  0.90261  0.28058  0.51417  1.0000 0.5470207823
C   C182      1.0  0.76641  0.38844  0.48583  1.0000 0.5470207823
C   C183      1.0  0.09739  0.61156  0.37797  1.0000 0.5470207823
C   C184      1.0  0.23359  0.71942  0.62203  1.0000 0.5470207823
C   C185      1.0  0.71942  0.62203  0.23359  1.0000 0.5470207823
C   C186      1.0  0.61156  0.37797  0.09739  1.0000 0.5470207823
C   C187      1.0  0.38844  0.48583  0.76641  1.0000 0.5470207823
C   C188      1.0  0.28058  0.51417  0.90261  1.0000 0.5470207823
C   C189      1.0  0.37797  0.09739  0.61156  1.0000 0.5470207823
C   C190      1.0  0.62203  0.23359  0.71942  1.0000 0.5470207823
C   C191      1.0  0.51417  0.90261  0.28058  1.0000 0.5470207823
C   C192      1.0  0.48583  0.76641  0.38844  1.0000 0.5470207823
C   C193      1.0  0.38844  0.76641  0.48583  1.0000 0.5470207823
C   C194      1.0  0.28058  0.90261  0.51417  1.0000 0.5470207823
C   C195      1.0  0.71942  0.23359  0.62203  1.0000 0.5470207823
C   C196      1.0  0.61156  0.09739  0.37797  1.0000 0.5470207823
C   C197      1.0  0.48583  0.38844  0.76641  1.0000 0.5470207823
C   C198      1.0  0.51417  0.28058  0.90261  1.0000 0.5470207823
C   C199      1.0  0.62203  0.71942  0.23359  1.0000 0.5470207823
C   C200      1.0  0.37797  0.61156  0.09739  1.0000 0.5470207823
C   C201      1.0  0.76641  0.48583  0.38844  1.0000 0.5470207823
C   C202      1.0  0.90261  0.51417  0.28058  1.0000 0.5470207823
C   C203      1.0  0.23359  0.62203  0.71942  1.0000 0.5470207823
C   C204      1.0  0.09739  0.37797  0.61156  1.0000 0.5470207823
C   C205      1.0  0.09739  0.71942  0.48583  1.0000 0.5470207823
C   C206      1.0  0.23359  0.61156  0.51417  1.0000 0.5470207823
C   C207      1.0  0.90261  0.38844  0.62203  1.0000 0.5470207823
C   C208      1.0  0.76641  0.28058  0.37797  1.0000 0.5470207823
C   C209      1.0  0.28058  0.37797  0.76641  1.0000 0.5470207823
C   C210      1.0  0.38844  0.62203  0.90261  1.0000 0.5470207823
C   C211      1.0  0.61156  0.51417  0.23359  1.0000 0.5470207823
C   C212      1.0  0.71942  0.48583  0.09739  1.0000 0.5470207823
C   C213      1.0  0.62203  0.90261  0.38844  1.0000 0.5470207823
C   C214      1.0  0.37797  0.76641  0.28058  1.0000 0.5470207823
C   C215      1.0  0.48583  0.09739  0.71942  1.0000 0.5470207823
C   C216      1.0  0.51417  0.23359  0.61156  1.0000 0.5470207823
C   C217      1.0  0.75472  0.37015  0.61543  1.0000 0.2427083476
C   C218      1.0  0.75472  0.13929  0.38457  1.0000 0.2427083476
C   C219      1.0  0.24528  0.62985  0.38457  1.0000 0.2427083476
C   C220      1.0  0.24528  0.86071  0.61543  1.0000 0.2427083476
C   C221      1.0  0.61543  0.75472  0.37015  1.0000 0.2427083476
C   C222      1.0  0.38457  0.75472  0.13929  1.0000 0.2427083476
C   C223      1.0  0.38457  0.24528  0.62985  1.0000 0.2427083476
C   C224      1.0  0.61543  0.24528  0.86071  1.0000 0.2427083476
C   C225      1.0  0.37015  0.61543  0.75472  1.0000 0.2427083476
C   C226      1.0  0.13929  0.38457  0.75472  1.0000 0.2427083476
C   C227      1.0  0.62985  0.38457  0.24528  1.0000 0.2427083476
C   C228      1.0  0.86071  0.61543  0.24528  1.0000 0.2427083476
C   C229      1.0  0.86071  0.24528  0.61543  1.0000 0.2427083476
C   C230      1.0  0.62985  0.24528  0.38457  1.0000 0.2427083476
C   C231      1.0  0.13929  0.75472  0.38457  1.0000 0.2427083476
C   C232      1.0  0.37015  0.75472  0.61543  1.0000 0.2427083476
C   C233      1.0  0.75472  0.61543  0.37015  1.0000 0.2427083476
C   C234      1.0  0.75472  0.38457  0.13929  1.0000 0.2427083476
C   C235      1.0  0.24528  0.38457  0.62985  1.0000 0.2427083476
C   C236      1.0  0.24528  0.61543  0.86071  1.0000 0.2427083476
C   C237      1.0  0.38457  0.13929  0.75472  1.0000 0.2427083476
C   C238      1.0  0.61543  0.37015  0.75472  1.0000 0.2427083476
C   C239      1.0  0.61543  0.86071  0.24528  1.0000 0.2427083476
C   C240      1.0  0.38457  0.62985  0.24528  1.0000 0.2427083476
N   N1        1.0  0.58063  0.35498  0.53043  1.0000 -0.2959073069
N   N2        1.0  0.82455  0.05020  0.46957  1.0000 -0.2949607628
N   N3        1.0  0.17545  0.64502  0.22565  1.0000 -0.2959073069
N   N4        1.0  0.41937  0.94980  0.77435  1.0000 -0.2959073069
N   N5        1.0  0.53043  0.58063  0.35498  1.0000 -0.2959073069
N   N6        1.0  0.46957  0.82455  0.05020  1.0000 -0.2959073069
N   N7        1.0  0.22565  0.17545  0.64502  1.0000 -0.2959073069
N   N8        1.0  0.77435  0.41937  0.94980  1.0000 -0.2949607628
N   N9        1.0  0.35498  0.53043  0.58063  1.0000 -0.2959073069
N   N10       1.0  0.05020  0.46957  0.82455  1.0000 -0.2959073069
N   N11       1.0  0.64502  0.22565  0.17545  1.0000 -0.2959073069
N   N12       1.0  0.94980  0.77435  0.41937  1.0000 -0.2959073069
N   N13       1.0  0.94980  0.17545  0.53043  1.0000 -0.2949607628
N   N14       1.0  0.64502  0.41937  0.46957  1.0000 -0.2959073069
N   N15       1.0  0.05020  0.58063  0.22565  1.0000 -0.2959073069
N   N16       1.0  0.35498  0.82455  0.77435  1.0000 -0.2959073069
N   N17       1.0  0.82455  0.77435  0.35498  1.0000 -0.2959073069
N   N18       1.0  0.58063  0.22565  0.05020  1.0000 -0.2959073069
N   N19       1.0  0.41937  0.46957  0.64502  1.0000 -0.2959073069
N   N20       1.0  0.17545  0.53043  0.94980  1.0000 -0.2959073069
N   N21       1.0  0.22565  0.05020  0.58063  1.0000 -0.2959073069
N   N22       1.0  0.77435  0.35498  0.82455  1.0000 -0.2959073069
N   N23       1.0  0.53043  0.94980  0.17545  1.0000 -0.2959073069
N   N24       1.0  0.46957  0.64502  0.41937  1.0000 -0.2959073069
N   N25       1.0  0.41937  0.64502  0.46957  1.0000 -0.2959073069
N   N26       1.0  0.17545  0.94980  0.53043  1.0000 -0.2959073069
N   N27       1.0  0.82455  0.35498  0.77435  1.0000 -0.2959073069
N   N28       1.0  0.58063  0.05020  0.22565  1.0000 -0.2959073069
N   N29       1.0  0.46957  0.41937  0.64502  1.0000 -0.2959073069
N   N30       1.0  0.53043  0.17545  0.94980  1.0000 -0.2949607628
N   N31       1.0  0.77435  0.82455  0.35498  1.0000 -0.2959073069
N   N32       1.0  0.22565  0.58063  0.05020  1.0000 -0.2959073069
N   N33       1.0  0.64502  0.46957  0.41937  1.0000 -0.2959073069
N   N34       1.0  0.94980  0.53043  0.17545  1.0000 -0.2959073069
N   N35       1.0  0.35498  0.77435  0.82455  1.0000 -0.2959073069
N   N36       1.0  0.05020  0.22565  0.58063  1.0000 -0.2959073069
N   N37       1.0  0.05020  0.82455  0.46957  1.0000 -0.2959073069
N   N38       1.0  0.35498  0.58063  0.53043  1.0000 -0.2959073069
N   N39       1.0  0.94980  0.41937  0.77435  1.0000 -0.2959073069
N   N40       1.0  0.64502  0.17545  0.22565  1.0000 -0.2959073069
N   N41       1.0  0.17545  0.22565  0.64502  1.0000 -0.2959073069
N   N42       1.0  0.41937  0.77435  0.94980  1.0000 -0.2959073069
N   N43       1.0  0.58063  0.53043  0.35498  1.0000 -0.2959073069
N   N44       1.0  0.82455  0.46957  0.05020  1.0000 -0.2959073069
N   N45       1.0  0.77435  0.94980  0.41937  1.0000 -0.2959073069
N   N46       1.0  0.22565  0.64502  0.17545  1.0000 -0.2959073069
N   N47       1.0  0.46957  0.05020  0.82455  1.0000 -0.2959073069
N   N48       1.0  0.53043  0.35498  0.58063  1.0000 -0.2959073069
N   N49       1.0  0.69774  0.33826  0.56944  1.0000 -0.2949607628
N   N50       1.0  0.76882  0.12830  0.43056  1.0000 -0.2949607628
N   N51       1.0  0.23118  0.66174  0.35948  1.0000 -0.2959073069
N   N52       1.0  0.30226  0.87170  0.64052  1.0000 -0.2959073069
N   N53       1.0  0.56944  0.69774  0.33826  1.0000 -0.2959073069
N   N54       1.0  0.43056  0.76882  0.12830  1.0000 -0.2959073069
N   N55       1.0  0.35948  0.23118  0.66174  1.0000 -0.2949607628
N   N56       1.0  0.64052  0.30226  0.87170  1.0000 -0.2949607628
N   N57       1.0  0.33826  0.56944  0.69774  1.0000 -0.2959073069
N   N58       1.0  0.12830  0.43056  0.76882  1.0000 -0.2959073069
N   N59       1.0  0.66174  0.35948  0.23118  1.0000 -0.2949607628
N   N60       1.0  0.87170  0.64052  0.30226  1.0000 -0.2949607628
N   N61       1.0  0.87170  0.23118  0.56944  1.0000 -0.2949607628
N   N62       1.0  0.66174  0.30226  0.43056  1.0000 -0.2949607628
N   N63       1.0  0.12830  0.69774  0.35948  1.0000 -0.2959073069
N   N64       1.0  0.33826  0.76882  0.64052  1.0000 -0.2959073069
N   N65       1.0  0.76882  0.64052  0.33826  1.0000 -0.2949607628
N   N66       1.0  0.69774  0.35948  0.12830  1.0000 -0.2949607628
N   N67       1.0  0.30226  0.43056  0.66174  1.0000 -0.2959073069
N   N68       1.0  0.23118  0.56944  0.87170  1.0000 -0.2959073069
N   N69       1.0  0.35948  0.12830  0.69774  1.0000 -0.2949607628
N   N70       1.0  0.64052  0.33826  0.76882  1.0000 -0.2949607628
N   N71       1.0  0.56944  0.87170  0.23118  1.0000 -0.2959073069
N   N72       1.0  0.43056  0.66174  0.30226  1.0000 -0.2959073069
N   N73       1.0  0.30226  0.66174  0.43056  1.0000 -0.2959073069
N   N74       1.0  0.23118  0.87170  0.56944  1.0000 -0.2959073069
N   N75       1.0  0.76882  0.33826  0.64052  1.0000 -0.2949607628
N   N76       1.0  0.69774  0.12830  0.35948  1.0000 -0.2949607628
N   N77       1.0  0.43056  0.30226  0.66174  1.0000 -0.2949607628
N   N78       1.0  0.56944  0.23118  0.87170  1.0000 -0.2949607628
N   N79       1.0  0.64052  0.76882  0.33826  1.0000 -0.2959073069
N   N80       1.0  0.35948  0.69774  0.12830  1.0000 -0.2959073069
N   N81       1.0  0.66174  0.43056  0.30226  1.0000 -0.2949607628
N   N82       1.0  0.87170  0.56944  0.23118  1.0000 -0.2949607628
N   N83       1.0  0.33826  0.64052  0.76882  1.0000 -0.2959073069
N   N84       1.0  0.12830  0.35948  0.69774  1.0000 -0.2959073069
N   N85       1.0  0.12830  0.76882  0.43056  1.0000 -0.2959073069
N   N86       1.0  0.33826  0.69774  0.56944  1.0000 -0.2959073069
N   N87       1.0  0.87170  0.30226  0.64052  1.0000 -0.2949607628
N   N88       1.0  0.66174  0.23118  0.35948  1.0000 -0.2949607628
N   N89       1.0  0.23118  0.35948  0.66174  1.0000 -0.2959073069
N   N90       1.0  0.30226  0.64052  0.87170  1.0000 -0.2959073069
N   N91       1.0  0.69774  0.56944  0.33826  1.0000 -0.2949607628
N   N92       1.0  0.76882  0.43056  0.12830  1.0000 -0.2949607628
N   N93       1.0  0.64052  0.87170  0.30226  1.0000 -0.2959073069
N   N94       1.0  0.35948  0.66174  0.23118  1.0000 -0.2959073069
N   N95       1.0  0.43056  0.12830  0.76882  1.0000 -0.2949607628
N   N96       1.0  0.56944  0.33826  0.69774  1.0000 -0.2949607628
O   O1        1.0  0.53992  0.29711  0.40797  1.0000 -0.468530837
O   O2        1.0  0.88914  0.13195  0.59203  1.0000 -0.468530837
O   O3        1.0  0.11086  0.70289  0.24281  1.0000 -0.468530837
O   O4        1.0  0.46008  0.86805  0.75719  1.0000 -0.468530837
O   O5        1.0  0.40797  0.53992  0.29711  1.0000 -0.468530837
O   O6        1.0  0.59203  0.88914  0.13195  1.0000 -0.468530837
O   O7        1.0  0.24281  0.11086  0.70289  1.0000 -0.468530837
O   O8        1.0  0.75719  0.46008  0.86805  1.0000 -0.468530837
O   O9        1.0  0.29711  0.40797  0.53992  1.0000 -0.468530837
O   O10       1.0  0.13195  0.59203  0.88914  1.0000 -0.468530837
O   O11       1.0  0.70289  0.24281  0.11086  1.0000 -0.468530837
O   O12       1.0  0.86805  0.75719  0.46008  1.0000 -0.468530837
O   O13       1.0  0.86805  0.11086  0.40797  1.0000 -0.468530837
O   O14       1.0  0.70289  0.46008  0.59203  1.0000 -0.468530837
O   O15       1.0  0.13195  0.53992  0.24281  1.0000 -0.468530837
O   O16       1.0  0.29711  0.88914  0.75719  1.0000 -0.468530837
O   O17       1.0  0.88914  0.75719  0.29711  1.0000 -0.468530837
O   O18       1.0  0.53992  0.24281  0.13195  1.0000 -0.468530837
O   O19       1.0  0.46008  0.59203  0.70289  1.0000 -0.468530837
O   O20       1.0  0.11086  0.40797  0.86805  1.0000 -0.468530837
O   O21       1.0  0.24281  0.13195  0.53992  1.0000 -0.468530837
O   O22       1.0  0.75719  0.29711  0.88914  1.0000 -0.468530837
O   O23       1.0  0.40797  0.86805  0.11086  1.0000 -0.468530837
O   O24       1.0  0.59203  0.70289  0.46008  1.0000 -0.468530837
O   O25       1.0  0.46008  0.70289  0.59203  1.0000 -0.468530837
O   O26       1.0  0.11086  0.86805  0.40797  1.0000 -0.468530837
O   O27       1.0  0.88914  0.29711  0.75719  1.0000 -0.468530837
O   O28       1.0  0.53992  0.13195  0.24281  1.0000 -0.468530837
O   O29       1.0  0.59203  0.46008  0.70289  1.0000 -0.468530837
O   O30       1.0  0.40797  0.11086  0.86805  1.0000 -0.468530837
O   O31       1.0  0.75719  0.88914  0.29711  1.0000 -0.468530837
O   O32       1.0  0.24281  0.53992  0.13195  1.0000 -0.468530837
O   O33       1.0  0.70289  0.59203  0.46008  1.0000 -0.468530837
O   O34       1.0  0.86805  0.40797  0.11086  1.0000 -0.468530837
O   O35       1.0  0.29711  0.75719  0.88914  1.0000 -0.468530837
O   O36       1.0  0.13195  0.24281  0.53992  1.0000 -0.468530837
O   O37       1.0  0.13195  0.88914  0.59203  1.0000 -0.468530837
O   O38       1.0  0.29711  0.53992  0.40797  1.0000 -0.468530837
O   O39       1.0  0.86805  0.46008  0.75719  1.0000 -0.468530837
O   O40       1.0  0.70289  0.11086  0.24281  1.0000 -0.468530837
O   O41       1.0  0.11086  0.24281  0.70289  1.0000 -0.468530837
O   O42       1.0  0.46008  0.75719  0.86805  1.0000 -0.468530837
O   O43       1.0  0.53992  0.40797  0.29711  1.0000 -0.468530837
O   O44       1.0  0.88914  0.59203  0.13195  1.0000 -0.468530837
O   O45       1.0  0.75719  0.86805  0.46008  1.0000 -0.468530837
O   O46       1.0  0.24281  0.70289  0.11086  1.0000 -0.468530837
O   O47       1.0  0.59203  0.13195  0.88914  1.0000 -0.468530837
O   O48       1.0  0.40797  0.29711  0.53992  1.0000 -0.468530837
O   O49       1.0  0.44245  0.26264  0.38441  1.0000 -0.3309969096
O   O50       1.0  0.87823  0.05804  0.61559  1.0000 -0.3309969096
O   O51       1.0  0.12177  0.73736  0.17981  1.0000 -0.3309969096
O   O52       1.0  0.55755  0.94196  0.82019  1.0000 -0.3309969096
O   O53       1.0  0.38441  0.44245  0.26264  1.0000 -0.3309969096
O   O54       1.0  0.61559  0.87823  0.05804  1.0000 -0.3309969096
O   O55       1.0  0.17981  0.12177  0.73736  1.0000 -0.3309969096
O   O56       1.0  0.82019  0.55755  0.94196  1.0000 -0.3309969096
O   O57       1.0  0.26264  0.38441  0.44245  1.0000 -0.3309969096
O   O58       1.0  0.05804  0.61559  0.87823  1.0000 -0.3309969096
O   O59       1.0  0.73736  0.17981  0.12177  1.0000 -0.3309969096
O   O60       1.0  0.94196  0.82019  0.55755  1.0000 -0.3309969096
O   O61       1.0  0.94196  0.12177  0.38441  1.0000 -0.3309969096
O   O62       1.0  0.73736  0.55755  0.61559  1.0000 -0.3309969096
O   O63       1.0  0.05804  0.44245  0.17981  1.0000 -0.3309969096
O   O64       1.0  0.26264  0.87823  0.82019  1.0000 -0.3309969096
O   O65       1.0  0.87823  0.82019  0.26264  1.0000 -0.3309969096
O   O66       1.0  0.44245  0.17981  0.05804  1.0000 -0.3309969096
O   O67       1.0  0.55755  0.61559  0.73736  1.0000 -0.3309969096
O   O68       1.0  0.12177  0.38441  0.94196  1.0000 -0.3309969096
O   O69       1.0  0.17981  0.05804  0.44245  1.0000 -0.3309969096
O   O70       1.0  0.82019  0.26264  0.87823  1.0000 -0.3309969096
O   O71       1.0  0.38441  0.94196  0.12177  1.0000 -0.3309969096
O   O72       1.0  0.61559  0.73736  0.55755  1.0000 -0.3309969096
O   O73       1.0  0.55755  0.73736  0.61559  1.0000 -0.3309969096
O   O74       1.0  0.12177  0.94196  0.38441  1.0000 -0.3309969096
O   O75       1.0  0.87823  0.26264  0.82019  1.0000 -0.3309969096
O   O76       1.0  0.44245  0.05804  0.17981  1.0000 -0.3309969096
O   O77       1.0  0.61559  0.55755  0.73736  1.0000 -0.3309969096
O   O78       1.0  0.38441  0.12177  0.94196  1.0000 -0.3309969096
O   O79       1.0  0.82019  0.87823  0.26264  1.0000 -0.3309969096
O   O80       1.0  0.17981  0.44245  0.05804  1.0000 -0.3309969096
O   O81       1.0  0.73736  0.61559  0.55755  1.0000 -0.3309969096
O   O82       1.0  0.94196  0.38441  0.12177  1.0000 -0.3309969096
O   O83       1.0  0.26264  0.82019  0.87823  1.0000 -0.3309969096
O   O84       1.0  0.05804  0.17981  0.44245  1.0000 -0.3309969096
O   O85       1.0  0.05804  0.87823  0.61559  1.0000 -0.3309969096
O   O86       1.0  0.26264  0.44245  0.38441  1.0000 -0.3309969096
O   O87       1.0  0.94196  0.55755  0.82019  1.0000 -0.3309969096
O   O88       1.0  0.73736  0.12177  0.17981  1.0000 -0.3309969096
O   O89       1.0  0.12177  0.17981  0.73736  1.0000 -0.3309969096
O   O90       1.0  0.55755  0.82019  0.94196  1.0000 -0.3309969096
O   O91       1.0  0.44245  0.38441  0.26264  1.0000 -0.3309969096
O   O92       1.0  0.87823  0.61559  0.05804  1.0000 -0.3309969096
O   O93       1.0  0.82019  0.94196  0.55755  1.0000 -0.3309969096
O   O94       1.0  0.17981  0.73736  0.12177  1.0000 -0.3309969096
O   O95       1.0  0.61559  0.05804  0.87823  1.0000 -0.3309969096
O   O96       1.0  0.38441  0.26264  0.44245  1.0000 -0.3309969096
O   O97       1.0  0.58371  0.24439  0.47624  1.0000 -0.4445124747
O   O98       1.0  0.76815  0.10747  0.52376  1.0000 -0.4445124747
O   O99       1.0  0.23185  0.75561  0.33932  1.0000 -0.4445124747
O   O100      1.0  0.41629  0.89253  0.66068  1.0000 -0.4445124747
O   O101      1.0  0.47624  0.58371  0.24439  1.0000 -0.4445124747
O   O102      1.0  0.52376  0.76815  0.10747  1.0000 -0.4445124747
O   O103      1.0  0.33932  0.23185  0.75561  1.0000 -0.4445124747
O   O104      1.0  0.66068  0.41629  0.89253  1.0000 -0.4445124747
O   O105      1.0  0.24439  0.47624  0.58371  1.0000 -0.4445124747
O   O106      1.0  0.10747  0.52376  0.76815  1.0000 -0.4445124747
O   O107      1.0  0.75561  0.33932  0.23185  1.0000 -0.4445124747
O   O108      1.0  0.89253  0.66068  0.41629  1.0000 -0.4445124747
O   O109      1.0  0.89253  0.23185  0.47624  1.0000 -0.4445124747
O   O110      1.0  0.75561  0.41629  0.52376  1.0000 -0.4445124747
O   O111      1.0  0.10747  0.58371  0.33932  1.0000 -0.4445124747
O   O112      1.0  0.24439  0.76815  0.66068  1.0000 -0.4445124747
O   O113      1.0  0.76815  0.66068  0.24439  1.0000 -0.4445124747
O   O114      1.0  0.58371  0.33932  0.10747  1.0000 -0.4445124747
O   O115      1.0  0.41629  0.52376  0.75561  1.0000 -0.4445124747
O   O116      1.0  0.23185  0.47624  0.89253  1.0000 -0.4445124747
O   O117      1.0  0.33932  0.10747  0.58371  1.0000 -0.4445124747
O   O118      1.0  0.66068  0.24439  0.76815  1.0000 -0.4445124747
O   O119      1.0  0.47624  0.89253  0.23185  1.0000 -0.4445124747
O   O120      1.0  0.52376  0.75561  0.41629  1.0000 -0.4445124747
O   O121      1.0  0.41629  0.75561  0.52376  1.0000 -0.4445124747
O   O122      1.0  0.23185  0.89253  0.47624  1.0000 -0.4445124747
O   O123      1.0  0.76815  0.24439  0.66068  1.0000 -0.4445124747
O   O124      1.0  0.58371  0.10747  0.33932  1.0000 -0.4445124747
O   O125      1.0  0.52376  0.41629  0.75561  1.0000 -0.4445124747
O   O126      1.0  0.47624  0.23185  0.89253  1.0000 -0.4445124747
O   O127      1.0  0.66068  0.76815  0.24439  1.0000 -0.4445124747
O   O128      1.0  0.33932  0.58371  0.10747  1.0000 -0.4445124747
O   O129      1.0  0.75561  0.52376  0.41629  1.0000 -0.4445124747
O   O130      1.0  0.89253  0.47624  0.23185  1.0000 -0.4445124747
O   O131      1.0  0.24439  0.66068  0.76815  1.0000 -0.4445124747
O   O132      1.0  0.10747  0.33932  0.58371  1.0000 -0.4445124747
O   O133      1.0  0.10747  0.76815  0.52376  1.0000 -0.4445124747
O   O134      1.0  0.24439  0.58371  0.47624  1.0000 -0.4445124747
O   O135      1.0  0.89253  0.41629  0.66068  1.0000 -0.4445124747
O   O136      1.0  0.75561  0.23185  0.33932  1.0000 -0.4445124747
O   O137      1.0  0.23185  0.33932  0.75561  1.0000 -0.4445124747
O   O138      1.0  0.41629  0.66068  0.89253  1.0000 -0.4445124747
O   O139      1.0  0.58371  0.47624  0.24439  1.0000 -0.4445124747
O   O140      1.0  0.76815  0.52376  0.10747  1.0000 -0.4445124747
O   O141      1.0  0.66068  0.89253  0.41629  1.0000 -0.4445124747
O   O142      1.0  0.33932  0.75561  0.23185  1.0000 -0.4445124747
O   O143      1.0  0.52376  0.10747  0.76815  1.0000 -0.4445124747
O   O144      1.0  0.47624  0.24439  0.58371  1.0000 -0.4445124747
O   O145      1.0  0.58946  0.18239  0.51253  1.0000 -0.3231666971
O   O146      1.0  0.66986  0.07693  0.48747  1.0000 -0.3231666971
O   O147      1.0  0.33014  0.81761  0.40707  1.0000 -0.3231666971
O   O148      1.0  0.41054  0.92307  0.59293  1.0000 -0.3231666971
O   O149      1.0  0.51253  0.58946  0.18239  1.0000 -0.3231666971
O   O150      1.0  0.48747  0.66986  0.07693  1.0000 -0.3231666971
O   O151      1.0  0.40707  0.33014  0.81761  1.0000 -0.3231666971
O   O152      1.0  0.59293  0.41054  0.92307  1.0000 -0.3231666971
O   O153      1.0  0.18239  0.51253  0.58946  1.0000 -0.3231666971
O   O154      1.0  0.07693  0.48747  0.66986  1.0000 -0.3231666971
O   O155      1.0  0.81761  0.40707  0.33014  1.0000 -0.3231666971
O   O156      1.0  0.92307  0.59293  0.41054  1.0000 -0.3231666971
O   O157      1.0  0.92307  0.33014  0.51253  1.0000 -0.3231666971
O   O158      1.0  0.81761  0.41054  0.48747  1.0000 -0.3231666971
O   O159      1.0  0.07693  0.58946  0.40707  1.0000 -0.3231666971
O   O160      1.0  0.18239  0.66986  0.59293  1.0000 -0.3231666971
O   O161      1.0  0.66986  0.59293  0.18239  1.0000 -0.3231666971
O   O162      1.0  0.58946  0.40707  0.07693  1.0000 -0.3231666971
O   O163      1.0  0.41054  0.48747  0.81761  1.0000 -0.3231666971
O   O164      1.0  0.33014  0.51253  0.92307  1.0000 -0.3231666971
O   O165      1.0  0.40707  0.07693  0.58946  1.0000 -0.3231666971
O   O166      1.0  0.59293  0.18239  0.66986  1.0000 -0.3231666971
O   O167      1.0  0.51253  0.92307  0.33014  1.0000 -0.3231666971
O   O168      1.0  0.48747  0.81761  0.41054  1.0000 -0.3231666971
O   O169      1.0  0.41054  0.81761  0.48747  1.0000 -0.3231666971
O   O170      1.0  0.33014  0.92307  0.51253  1.0000 -0.3231666971
O   O171      1.0  0.66986  0.18239  0.59293  1.0000 -0.3231666971
O   O172      1.0  0.58946  0.07693  0.40707  1.0000 -0.3231666971
O   O173      1.0  0.48747  0.41054  0.81761  1.0000 -0.3231666971
O   O174      1.0  0.51253  0.33014  0.92307  1.0000 -0.3231666971
O   O175      1.0  0.59293  0.66986  0.18239  1.0000 -0.3231666971
O   O176      1.0  0.40707  0.58946  0.07693  1.0000 -0.3231666971
O   O177      1.0  0.81761  0.48747  0.41054  1.0000 -0.3231666971
O   O178      1.0  0.92307  0.51253  0.33014  1.0000 -0.3231666971
O   O179      1.0  0.18239  0.59293  0.66986  1.0000 -0.3231666971
O   O180      1.0  0.07693  0.40707  0.58946  1.0000 -0.3231666971
O   O181      1.0  0.07693  0.66986  0.48747  1.0000 -0.3231666971
O   O182      1.0  0.18239  0.58946  0.51253  1.0000 -0.3231666971
O   O183      1.0  0.92307  0.41054  0.59293  1.0000 -0.3231666971
O   O184      1.0  0.81761  0.33014  0.40707  1.0000 -0.3231666971
O   O185      1.0  0.33014  0.40707  0.81761  1.0000 -0.3231666971
O   O186      1.0  0.41054  0.59293  0.92307  1.0000 -0.3231666971
O   O187      1.0  0.58946  0.51253  0.18239  1.0000 -0.3231666971
O   O188      1.0  0.66986  0.48747  0.07693  1.0000 -0.3231666971
O   O189      1.0  0.59293  0.92307  0.41054  1.0000 -0.3231666971
O   O190      1.0  0.40707  0.81761  0.33014  1.0000 -0.3231666971
O   O191      1.0  0.48747  0.07693  0.66986  1.0000 -0.3231666971
O   O192      1.0  0.51253  0.18239  0.58946  1.0000 -0.3231666971
