# DDEC6 charges by PACMAN v1.1 (https://github.com/mtap-research/PACMAN-charge/)
data_2009[Eu][nan]3[ASR]2
_chemical_formula_sum              "Eu10 H20 C80 N10 O60"
_cell_length_a       9.3669
_cell_length_b       14.1543
_cell_length_c       21.7897
_cell_angle_alpha    95.075
_cell_angle_beta     94.315
_cell_angle_gamma    104.723

_symmetry_space_group_name_H-M    "P 1"
_symmetry_Int_Tables_number       1

loop_
  _symmetry_equiv_pos_as_xyz
  'x, y, z'

loop_
  _atom_site_type_symbol
  _atom_site_label
  _atom_site_symmetry_multiplicity
  _atom_site_fract_x
  _atom_site_fract_y
  _atom_site_fract_z
  _atom_site_occupancy
  _atom_site_charge
Eu  Eu1       1.0  0.56814  0.28786  0.09682  1.0000 1.9645067891
Eu  Eu2       1.0  0.43186  0.71214  0.90318  1.0000 1.9657190284
Eu  Eu3       1.0  0.15073  0.93115  0.22072  1.0000 2.0646596393
Eu  Eu4       1.0  0.84927  0.06885  0.77928  1.0000 2.0664437255
Eu  Eu5       1.0  0.76143  0.17086  0.38188  1.0000 2.079190298
Eu  Eu6       1.0  0.23857  0.82914  0.61812  1.0000 2.079190298
Eu  Eu7       1.0  0.21148  0.61275  0.43987  1.0000 1.9921008786
Eu  Eu8       1.0  0.78852  0.38725  0.56013  1.0000 1.9921008786
Eu  Eu9       1.0  0.92311  0.69149  0.06292  1.0000 2.0937898597
Eu  Eu10      1.0  0.07689  0.30851  0.93708  1.0000 2.0964885196
H   H1        1.0  0.46760  0.89010  0.07790  1.0000 0.1305476326
H   H2        1.0  0.53240  0.10990  0.92210  1.0000 0.1305476326
H   H3        1.0  0.85240  0.01890  0.01530  1.0000 0.1601566886
H   H4        1.0  0.14760  0.98110  0.98470  1.0000 0.1601566886
H   H5        1.0  0.54910  0.33970  0.34520  1.0000 0.1392157397
H   H6        1.0  0.45090  0.66030  0.65480  1.0000 0.1305476326
H   H7        1.0  0.32150  0.50070  0.25520  1.0000 0.1392157397
H   H8        1.0  0.67850  0.49930  0.74480  1.0000 0.1392157397
H   H9        1.0  0.49510  0.70030  0.13270  1.0000 0.1601566886
H   H10       1.0  0.50490  0.29970  0.86730  1.0000 0.1601566886
H   H11       1.0  0.71350  0.90780  0.27010  1.0000 0.1513012588
H   H12       1.0  0.28650  0.09220  0.72990  1.0000 0.1513012588
H   H13       1.0  0.31220  0.11990  0.37570  1.0000 0.1513012588
H   H14       1.0  0.68780  0.88010  0.62430  1.0000 0.1513012588
H   H15       1.0  0.29430  0.31530  0.51940  1.0000 0.1601566886
H   H16       1.0  0.70570  0.68470  0.48060  1.0000 0.1601566886
H   H17       1.0  0.00840  0.67210  0.21350  1.0000 0.1305476326
H   H18       1.0  0.99160  0.32790  0.78650  1.0000 0.1305476326
H   H19       1.0  0.86130  0.38950  0.24600  1.0000 0.1513012588
H   H20       1.0  0.13870  0.61050  0.75400  1.0000 0.1513012588
C   C1        1.0  0.51840  0.03930  0.08520  1.0000 0.1305476326
C   C2        1.0  0.48160  0.96070  0.91480  1.0000 0.1305476326
C   C3        1.0  0.53860  0.94590  0.07050  1.0000 -0.1589122349
C   C4        1.0  0.46140  0.05410  0.92950  1.0000 -0.1589122349
C   C5        1.0  0.66500  0.93760  0.04490  1.0000 0.021179283
C   C6        1.0  0.33500  0.06240  0.95510  1.0000 0.021179283
C   C7        1.0  0.76550  0.02210  0.03250  1.0000 -0.1459693471
C   C8        1.0  0.23450  0.97790  0.96750  1.0000 -0.1459693471
C   C9        1.0  0.73420  0.11110  0.04610  1.0000 0.1192675693
C   C10       1.0  0.26580  0.88890  0.95390  1.0000 0.1192675693
C   C11       1.0  0.38720  0.05740  0.11770  1.0000 0.5862109503
C   C12       1.0  0.61280  0.94260  0.88230  1.0000 0.5862109503
C   C13       1.0  0.68820  0.83700  0.02800  1.0000 0.6322487434
C   C14       1.0  0.31180  0.16300  0.97200  1.0000 0.6322487434
C   C15       1.0  0.83470  0.20720  0.03320  1.0000 0.5983672342
C   C16       1.0  0.16530  0.79280  0.96680  1.0000 0.5983672342
C   C17       1.0  0.53240  0.31730  0.25120  1.0000 0.1192675693
C   C18       1.0  0.46760  0.68270  0.74880  1.0000 0.1192675693
C   C19       1.0  0.51240  0.35930  0.30900  1.0000 -0.1396376947
C   C20       1.0  0.48760  0.64070  0.69100  1.0000 -0.1396376947
C   C21       1.0  0.43520  0.43200  0.31090  1.0000 0.0315659531
C   C22       1.0  0.56480  0.56800  0.68910  1.0000 0.0315659531
C   C23       1.0  0.37640  0.45440  0.25540  1.0000 -0.1396376947
C   C24       1.0  0.62360  0.54560  0.74460  1.0000 -0.1396376947
C   C25       1.0  0.40000  0.40750  0.20040  1.0000 0.1192675693
C   C26       1.0  0.60000  0.59250  0.79960  1.0000 0.1192675693
C   C27       1.0  0.62390  0.24280  0.24330  1.0000 0.5983672342
C   C28       1.0  0.37610  0.75720  0.75670  1.0000 0.5983672342
C   C29       1.0  0.41690  0.48270  0.37290  1.0000 0.57869701
C   C30       1.0  0.58310  0.51730  0.62710  1.0000 0.57869701
C   C31       1.0  0.34210  0.42750  0.13680  1.0000 0.546796157
C   C32       1.0  0.65790  0.57250  0.86320  1.0000 0.546796157
C   C33       1.0  0.37100  0.78430  0.17180  1.0000 0.1392157397
C   C34       1.0  0.62900  0.21570  0.82820  1.0000 0.1392157397
C   C35       1.0  0.49860  0.75220  0.16260  1.0000 -0.1306411087
C   C36       1.0  0.50140  0.24780  0.83740  1.0000 -0.1306411087
C   C37       1.0  0.63080  0.79940  0.19900  1.0000 0.021179283
C   C38       1.0  0.36920  0.20060  0.80100  1.0000 0.021179283
C   C39       1.0  0.62810  0.87510  0.24450  1.0000 -0.1306411087
C   C40       1.0  0.37190  0.12490  0.75550  1.0000 -0.1306411087
C   C41       1.0  0.49550  0.90080  0.25090  1.0000 0.1305476326
C   C42       1.0  0.50450  0.09920  0.74910  1.0000 0.1305476326
C   C43       1.0  0.22480  0.74790  0.13090  1.0000 0.5626532575
C   C44       1.0  0.77520  0.25210  0.86910  1.0000 0.5626532575
C   C45       1.0  0.77800  0.78010  0.18700  1.0000 0.6322487434
C   C46       1.0  0.22200  0.21990  0.81300  1.0000 0.6322487434
C   C47       1.0  0.48260  0.98630  0.29550  1.0000 0.6061674794
C   C48       1.0  0.51740  0.01370  0.70450  1.0000 0.6061674794
C   C49       1.0  0.10840  0.13900  0.38720  1.0000 0.1192675693
C   C50       1.0  0.89160  0.86100  0.61280  1.0000 0.1192675693
C   C51       1.0  0.25940  0.15360  0.39990  1.0000 -0.1396376947
C   C52       1.0  0.74060  0.84640  0.60010  1.0000 -0.1396376947
C   C53       1.0  0.32960  0.22040  0.45030  1.0000 0.0137591175
C   C54       1.0  0.67040  0.77960  0.54970  1.0000 0.0137591175
C   C55       1.0  0.24850  0.27030  0.48550  1.0000 -0.1110980893
C   C56       1.0  0.75150  0.72970  0.51450  1.0000 -0.1110980893
C   C57       1.0  0.09810  0.25100  0.46880  1.0000 0.1305476326
C   C58       1.0  0.90190  0.74900  0.53120  1.0000 0.1305476326
C   C59       1.0  0.01780  0.07080  0.33300  1.0000 0.6061674794
C   C60       1.0  0.98220  0.92920  0.66700  1.0000 0.5983672342
C   C61       1.0  0.49610  0.24270  0.46520  1.0000 0.6615971467
C   C62       1.0  0.50390  0.75730  0.53480  1.0000 0.6615971467
C   C63       1.0  0.99600  0.29870  0.50180  1.0000 0.573271676
C   C64       1.0  0.00400  0.70130  0.49820  1.0000 0.573271676
C   C65       1.0  0.06930  0.64350  0.29930  1.0000 0.1192675693
C   C66       1.0  0.93070  0.35650  0.70070  1.0000 0.1192675693
C   C67       1.0  0.00240  0.62270  0.23940  1.0000 -0.1396376947
C   C68       1.0  0.99760  0.37730  0.76060  1.0000 -0.1396376947
C   C69       1.0  0.92550  0.52570  0.21850  1.0000 0.0315659531
C   C70       1.0  0.07450  0.47430  0.78150  1.0000 0.0315659531
C   C71       1.0  0.91420  0.45430  0.25850  1.0000 -0.1306411087
C   C72       1.0  0.08580  0.54570  0.74150  1.0000 -0.1306411087
C   C73       1.0  0.98450  0.48270  0.31810  1.0000 0.1305476326
C   C74       1.0  0.01550  0.51730  0.68190  1.0000 0.1305476326
C   C75       1.0  0.15730  0.74510  0.32700  1.0000 0.6061674794
C   C76       1.0  0.84270  0.25490  0.67300  1.0000 0.6061674794
C   C77       1.0  0.85400  0.50100  0.15230  1.0000 0.6763284644
C   C78       1.0  0.14600  0.49900  0.84770  1.0000 0.6763284644
C   C79       1.0  0.97940  0.41190  0.36750  1.0000 0.6061674794
C   C80       1.0  0.02060  0.58810  0.63250  1.0000 0.6061674794
N   N1        1.0  0.61420  0.12020  0.07220  1.0000 -0.3707915703
N   N2        1.0  0.38580  0.87980  0.92780  1.0000 -0.3707915703
N   N3        1.0  0.48040  0.34120  0.19800  1.0000 -0.3707915703
N   N4        1.0  0.51960  0.65880  0.80200  1.0000 -0.3707915703
N   N5        1.0  0.37180  0.85780  0.21430  1.0000 -0.3707915703
N   N6        1.0  0.62820  0.14220  0.78570  1.0000 -0.3707915703
N   N7        1.0  0.02900  0.18680  0.41970  1.0000 -0.4136672178
N   N8        1.0  0.97100  0.81320  0.58030  1.0000 -0.4136672178
N   N9        1.0  0.06120  0.57450  0.33810  1.0000 -0.3707915703
N   N10       1.0  0.93880  0.42550  0.66190  1.0000 -0.3707915703
O   O1        1.0  0.37480  0.14410  0.12140  1.0000 -0.6105398098
O   O2        1.0  0.62520  0.85590  0.87860  1.0000 -0.6105398098
O   O3        1.0  0.30590  0.98580  0.13810  1.0000 -0.6384077954
O   O4        1.0  0.69410  0.01420  0.86190  1.0000 -0.6384077954
O   O5        1.0  0.58080  0.77380  0.99930  1.0000 -0.6502697924
O   O6        1.0  0.41920  0.22620  0.00070  1.0000 -0.6502697924
O   O7        1.0  0.81280  0.82510  0.04350  1.0000 -0.6384077954
O   O8        1.0  0.18720  0.17490  0.95650  1.0000 -0.6384077954
O   O9        1.0  0.93570  0.20400  0.00010  1.0000 -0.6384077954
O   O10       1.0  0.06430  0.79600  0.99990  1.0000 -0.6384077954
O   O11       1.0  0.80500  0.28380  0.05690  1.0000 -0.6186209629
O   O12       1.0  0.19500  0.71620  0.94310  1.0000 -0.6186209629
O   O13       1.0  0.66490  0.23030  0.19000  1.0000 -0.6013527224
O   O14       1.0  0.33510  0.76970  0.81000  1.0000 -0.6013527224
O   O15       1.0  0.65360  0.20200  0.28800  1.0000 -0.6013527224
O   O16       1.0  0.34640  0.79800  0.71200  1.0000 -0.6013527224
O   O17       1.0  0.46820  0.45810  0.42030  1.0000 -0.5195725718
O   O18       1.0  0.53180  0.54190  0.57970  1.0000 -0.5195725718
O   O19       1.0  0.34990  0.55020  0.37020  1.0000 -0.678321288
O   O20       1.0  0.65010  0.44980  0.62980  1.0000 -0.678321288
O   O21       1.0  0.25240  0.47650  0.13230  1.0000 -0.4820967922
O   O22       1.0  0.74760  0.52350  0.86770  1.0000 -0.4820967922
O   O23       1.0  0.39240  0.38610  0.09180  1.0000 -0.6502697924
O   O24       1.0  0.60760  0.61390  0.90820  1.0000 -0.6502697924
O   O25       1.0  0.12060  0.78640  0.14470  1.0000 -0.7391726682
O   O26       1.0  0.87940  0.21360  0.85530  1.0000 -0.7391726682
O   O27       1.0  0.20900  0.68530  0.08470  1.0000 -0.54830663
O   O28       1.0  0.79100  0.31470  0.91530  1.0000 -0.54830663
O   O29       1.0  0.77730  0.71490  0.14470  1.0000 -0.6564817587
O   O30       1.0  0.22270  0.28510  0.85530  1.0000 -0.6564817587
O   O31       1.0  0.89030  0.83100  0.21980  1.0000 -0.6384077954
O   O32       1.0  0.10970  0.16900  0.78020  1.0000 -0.6384077954
O   O33       1.0  0.58700  0.02050  0.33770  1.0000 -0.6384077954
O   O34       1.0  0.41300  0.97950  0.66230  1.0000 -0.6384077954
O   O35       1.0  0.36940  0.01560  0.28640  1.0000 -0.6186209629
O   O36       1.0  0.63060  0.98440  0.71360  1.0000 -0.6186209629
O   O37       1.0  0.89210  0.08280  0.31760  1.0000 -0.6301759416
O   O38       1.0  0.10790  0.91720  0.68240  1.0000 -0.6301759416
O   O39       1.0  0.06910  0.00570  0.30720  1.0000 -0.6301759416
O   O40       1.0  0.93090  0.99430  0.69280  1.0000 -0.6301759416
O   O41       1.0  0.56540  0.21300  0.42380  1.0000 -0.6948200026
O   O42       1.0  0.43460  0.78700  0.57620  1.0000 -0.6948200026
O   O43       1.0  0.55200  0.28880  0.51670  1.0000 -0.6384077954
O   O44       1.0  0.44800  0.71120  0.48330  1.0000 -0.6384077954
O   O45       1.0  0.04400  0.36520  0.54570  1.0000 -0.5723954896
O   O46       1.0  0.95600  0.63480  0.45430  1.0000 -0.5723954896
O   O47       1.0  0.85740  0.26880  0.48300  1.0000 -0.7391726682
O   O48       1.0  0.14260  0.73120  0.51700  1.0000 -0.7391726682
O   O49       1.0  0.22720  0.75000  0.37970  1.0000 -0.6013527224
O   O50       1.0  0.77280  0.25000  0.62030  1.0000 -0.6013527224
O   O51       1.0  0.15480  0.81590  0.29760  1.0000 -0.6013527224
O   O52       1.0  0.84520  0.18410  0.70240  1.0000 -0.6013527224
O   O53       1.0  0.91030  0.55450  0.11300  1.0000 -0.6742939214
O   O54       1.0  0.08970  0.44550  0.88700  1.0000 -0.6742939214
O   O55       1.0  0.74220  0.42960  0.14320  1.0000 -0.6384077954
O   O56       1.0  0.25780  0.57040  0.85680  1.0000 -0.6384077954
O   O57       1.0  0.90010  0.32660  0.35460  1.0000 -0.6301759416
O   O58       1.0  0.09990  0.67340  0.64540  1.0000 -0.6301759416
O   O59       1.0  0.05680  0.44720  0.41820  1.0000 -0.6301759416
O   O60       1.0  0.94320  0.55280  0.58180  1.0000 -0.6301759416
