# DDEC6 charges by PACMAN v1.1 (https://github.com/mtap-research/PACMAN-charge/)
data_2009[Zn][sqp]3[ASR]1
_chemical_formula_sum              "Zn12 H60 C140 S10 O64"
_cell_length_a       21.441
_cell_length_b       23.212
_cell_length_c       24.646
_cell_angle_alpha    68.1
_cell_angle_beta     67.49
_cell_angle_gamma    79.99

_symmetry_space_group_name_H-M    "P 1"
_symmetry_Int_Tables_number       1

loop_
  _symmetry_equiv_pos_as_xyz
  'x, y, z'

loop_
  _atom_site_type_symbol
  _atom_site_label
  _atom_site_symmetry_multiplicity
  _atom_site_fract_x
  _atom_site_fract_y
  _atom_site_fract_z
  _atom_site_occupancy
  _atom_site_charge
Zn  Zn1       1.0  0.74203  0.18920  0.22661  1.0000 0.9790070165
Zn  Zn2       1.0  0.25797  0.81080  0.77339  1.0000 0.9790070165
Zn  Zn3       1.0  0.09323  0.80013  0.80771  1.0000 0.9656810571
Zn  Zn4       1.0  0.90677  0.19987  0.19229  1.0000 0.9644956995
Zn  Zn5       1.0  0.75922  0.30872  0.09234  1.0000 1.0373797227
Zn  Zn6       1.0  0.24078  0.69128  0.90766  1.0000 1.0373797227
Zn  Zn7       1.0  0.83055  0.08328  0.27453  1.0000 0.9400299598
Zn  Zn8       1.0  0.16945  0.91672  0.72547  1.0000 0.9400299598
Zn  Zn9       1.0  0.19742  0.79560  0.67778  1.0000 1.0373797227
Zn  Zn10      1.0  0.80258  0.20440  0.32222  1.0000 1.0373797227
Zn  Zn11      1.0  0.31898  0.67422  0.76368  1.0000 0.9790070165
Zn  Zn12      1.0  0.68102  0.32578  0.23632  1.0000 0.9790070165
H   H1        1.0  0.32090  0.86930  0.58300  1.0000 0.1312161252
H   H2        1.0  0.67910  0.13070  0.41700  1.0000 0.1312161252
H   H3        1.0  0.49000  0.77150  0.59600  1.0000 0.1465696205
H   H4        1.0  0.51000  0.22850  0.40400  1.0000 0.1465696205
H   H5        1.0  0.38200  0.94750  0.50000  1.0000 0.1312161252
H   H6        1.0  0.61800  0.05250  0.50000  1.0000 0.1312161252
H   H7        1.0  0.46400  0.02760  0.41400  1.0000 0.1312161252
H   H8        1.0  0.53600  0.97240  0.58600  1.0000 0.1410578115
H   H9        1.0  0.55160  0.08850  0.34100  1.0000 0.1312161252
H   H10       1.0  0.44840  0.91150  0.65900  1.0000 0.1312161252
H   H11       1.0  0.68580  0.95260  0.38800  1.0000 0.1410578115
H   H12       1.0  0.31420  0.04740  0.61200  1.0000 0.1410578115
H   H13       1.0  0.91840  0.97130  0.41170  1.0000 0.1410578115
H   H14       1.0  0.08160  0.02870  0.58830  1.0000 0.1410578115
H   H15       1.0  0.78940  0.08100  0.50010  1.0000 0.1237958232
H   H16       1.0  0.21060  0.91900  0.49990  1.0000 0.1237958232
H   H17       1.0  0.82130  0.03420  0.58670  1.0000 0.1312161252
H   H18       1.0  0.17870  0.96580  0.41330  1.0000 0.1312161252
H   H19       1.0  0.87540  0.97020  0.66890  1.0000 0.1312161252
H   H20       1.0  0.12460  0.02980  0.33110  1.0000 0.1312161252
H   H21       1.0  0.05000  0.83640  0.59530  1.0000 0.1410578115
H   H22       1.0  0.95000  0.16360  0.40470  1.0000 0.1410578115
H   H23       1.0  0.94190  0.90790  0.72970  1.0000 0.1237958232
H   H24       1.0  0.05810  0.09210  0.27030  1.0000 0.1237958232
H   H25       1.0  0.45560  0.53880  0.84840  1.0000 0.1465696205
H   H26       1.0  0.54440  0.46120  0.15160  1.0000 0.1465696205
H   H27       1.0  0.27720  0.51690  0.98900  1.0000 0.1312161252
H   H28       1.0  0.72280  0.48310  0.01100  1.0000 0.1312161252
H   H29       1.0  0.32630  0.44600  0.05690  1.0000 0.1312161252
H   H30       1.0  0.67370  0.55400  0.94310  1.0000 0.1312161252
H   H31       1.0  0.39960  0.36860  0.11640  1.0000 0.1312161252
H   H32       1.0  0.60040  0.63140  0.88360  1.0000 0.1312161252
H   H33       1.0  0.48060  0.30980  0.15560  1.0000 0.1237958232
H   H34       1.0  0.51940  0.69020  0.84440  1.0000 0.1237958232
H   H35       1.0  0.62510  0.37350  0.99110  1.0000 0.1410578115
H   H36       1.0  0.37490  0.62650  0.00890  1.0000 0.1410578115
H   H37       1.0  0.79630  0.46180  0.16900  1.0000 0.1410578115
H   H38       1.0  0.20370  0.53820  0.83100  1.0000 0.1410578115
H   H39       1.0  0.94810  0.34090  0.20360  1.0000 0.1312161252
H   H40       1.0  0.05190  0.65910  0.79640  1.0000 0.1312161252
H   H41       1.0  0.02730  0.41410  0.13210  1.0000 0.1312161252
H   H42       1.0  0.97270  0.58590  0.86790  1.0000 0.1312161252
H   H43       1.0  0.09980  0.49740  0.04010  1.0000 0.1410578115
H   H44       1.0  0.90020  0.50260  0.95990  1.0000 0.1410578115
H   H45       1.0  0.14860  0.58260  0.95800  1.0000 0.1312161252
H   H46       1.0  0.85140  0.41740  0.04200  1.0000 0.1312161252
H   H47       1.0  0.96540  0.66690  0.96910  1.0000 0.1465696205
H   H48       1.0  0.03460  0.33310  0.03090  1.0000 0.1465696205
H   H49       1.0  0.98800  0.86950  0.96020  1.0000 0.1312161252
H   H50       1.0  0.01200  0.13050  0.03980  1.0000 0.1312161252
H   H51       1.0  0.03560  0.03580  0.82670  1.0000 0.1410578115
H   H52       1.0  0.96440  0.96420  0.17330  1.0000 0.1410578115
H   H53       1.0  0.92290  0.91280  0.02930  1.0000 0.1410578115
H   H54       1.0  0.07710  0.08720  0.97070  1.0000 0.1410578115
H   H55       1.0  0.84700  0.97830  0.09730  1.0000 0.1410578115
H   H56       1.0  0.15300  0.02170  0.90270  1.0000 0.1410578115
H   H57       1.0  0.87170  0.18810  0.98380  1.0000 0.1410578115
H   H58       1.0  0.12830  0.81190  0.01620  1.0000 0.1410578115
H   H59       1.0  0.79990  0.05000  0.14480  1.0000 0.1312161252
H   H60       1.0  0.20010  0.95000  0.85520  1.0000 0.1312161252
C   C1        1.0  0.36040  0.76590  0.65750  1.0000 0.6077295948
C   C2        1.0  0.63960  0.23410  0.34250  1.0000 0.6077295948
C   C3        1.0  0.40000  0.81360  0.59830  1.0000 -0.0097324144
C   C4        1.0  0.60000  0.18640  0.40170  1.0000 -0.0097324144
C   C5        1.0  0.36780  0.86590  0.56880  1.0000 -0.0809323915
C   C6        1.0  0.63220  0.13410  0.43120  1.0000 -0.0809323915
C   C7        1.0  0.46810  0.80720  0.57720  1.0000 -0.1000504984
C   C8        1.0  0.53190  0.19280  0.42280  1.0000 -0.1000504984
C   C9        1.0  0.40450  0.91250  0.51890  1.0000 -0.1191767271
C   C10       1.0  0.59550  0.08750  0.48110  1.0000 -0.1191767271
C   C11       1.0  0.50490  0.85570  0.52610  1.0000 -0.090266963
C   C12       1.0  0.49510  0.14430  0.47390  1.0000 -0.090266963
C   C13       1.0  0.47380  0.90880  0.49600  1.0000 0.0407551198
C   C14       1.0  0.52620  0.09120  0.50400  1.0000 0.0407551198
C   C15       1.0  0.52130  0.95400  0.44560  1.0000 0.0407551198
C   C16       1.0  0.47870  0.04600  0.55440  1.0000 0.0407551198
C   C17       1.0  0.50830  0.01280  0.40920  1.0000 -0.1191767271
C   C18       1.0  0.49170  0.98720  0.59080  1.0000 -0.1191767271
C   C19       1.0  0.58830  0.93360  0.43840  1.0000 -0.1000504984
C   C20       1.0  0.41170  0.06640  0.56160  1.0000 -0.1000504984
C   C21       1.0  0.56080  0.04900  0.36590  1.0000 -0.090266963
C   C22       1.0  0.43920  0.95100  0.63410  1.0000 -0.090266963
C   C23       1.0  0.64170  0.96850  0.39400  1.0000 -0.1000504984
C   C24       1.0  0.35830  0.03150  0.60600  1.0000 -0.1000504984
C   C25       1.0  0.62820  0.02870  0.35780  1.0000 -0.0009512764
C   C26       1.0  0.37180  0.97130  0.64220  1.0000 -0.0009512764
C   C27       1.0  0.68650  0.07010  0.31050  1.0000 0.6012505402
C   C28       1.0  0.31350  0.92990  0.68950  1.0000 0.6012505402
C   C29       1.0  0.82930  0.06600  0.39210  1.0000 0.6012505402
C   C30       1.0  0.17070  0.93400  0.60790  1.0000 0.6012505402
C   C31       1.0  0.85030  0.03110  0.44860  1.0000 -0.0189356374
C   C32       1.0  0.14970  0.96890  0.55140  1.0000 -0.0189356374
C   C33       1.0  0.89900  0.98370  0.44660  1.0000 -0.1000504984
C   C34       1.0  0.10100  0.01630  0.55340  1.0000 -0.090266963
C   C35       1.0  0.82220  0.04890  0.50010  1.0000 -0.090266963
C   C36       1.0  0.17780  0.95110  0.49990  1.0000 -0.090266963
C   C37       1.0  0.84070  0.02100  0.55230  1.0000 -0.1087429361
C   C38       1.0  0.15930  0.97900  0.44770  1.0000 -0.1087429361
C   C39       1.0  0.91740  0.95610  0.49740  1.0000 -0.1000504984
C   C40       1.0  0.08260  0.04390  0.50260  1.0000 -0.1000504984
C   C41       1.0  0.88970  0.97220  0.55180  1.0000 0.0602221896
C   C42       1.0  0.11030  0.02780  0.44820  1.0000 0.0602221896
C   C43       1.0  0.92230  0.93730  0.59840  1.0000 0.049365447
C   C44       1.0  0.07770  0.06270  0.40160  1.0000 0.049365447
C   C45       1.0  0.90940  0.94310  0.65440  1.0000 -0.1191767271
C   C46       1.0  0.09060  0.05690  0.34560  1.0000 -0.1191767271
C   C47       1.0  0.97320  0.89600  0.57850  1.0000 -0.1087429361
C   C48       1.0  0.02680  0.10400  0.42150  1.0000 -0.1087429361
C   C49       1.0  0.00160  0.86680  0.66667  1.0000 -0.026859375
C   C50       1.0  0.99840  0.13320  0.33333  1.0000 -0.026859375
C   C51       1.0  0.04710  0.83430  0.70740  1.0000 0.6012505402
C   C52       1.0  0.95290  0.16570  0.29260  1.0000 0.6012505402
C   C53       1.0  0.01460  0.86180  0.61120  1.0000 -0.090266963
C   C54       1.0  0.98540  0.13820  0.38880  1.0000 -0.090266963
C   C55       1.0  0.94990  0.90590  0.69060  1.0000 -0.0725963164
C   C56       1.0  0.05010  0.09410  0.30940  1.0000 -0.0725963164
C   C57       1.0  0.32560  0.58280  0.87090  1.0000 0.5829364468
C   C58       1.0  0.67440  0.41720  0.12910  1.0000 0.5829364468
C   C59       1.0  0.36000  0.53450  0.91240  1.0000 -0.0097324144
C   C60       1.0  0.64000  0.46550  0.08760  1.0000 -0.0097324144
C   C61       1.0  0.42940  0.51990  0.88990  1.0000 -0.090266963
C   C62       1.0  0.57060  0.48010  0.11010  1.0000 -0.090266963
C   C63       1.0  0.32310  0.50670  0.97430  1.0000 -0.0809323915
C   C64       1.0  0.67690  0.49330  0.02570  1.0000 -0.0809323915
C   C65       1.0  0.45760  0.47660  0.93120  1.0000 -0.090266963
C   C66       1.0  0.54240  0.52340  0.06880  1.0000 -0.090266963
C   C67       1.0  0.35220  0.46410  0.01510  1.0000 -0.1087429361
C   C68       1.0  0.64780  0.53590  0.98490  1.0000 -0.1087429361
C   C69       1.0  0.42040  0.44830  0.99350  1.0000 0.049365447
C   C70       1.0  0.57960  0.55170  0.00650  1.0000 0.049365447
C   C71       1.0  0.46330  0.40590  0.02740  1.0000 0.0407551198
C   C72       1.0  0.53670  0.59410  0.97260  1.0000 0.0407551198
C   C73       1.0  0.44460  0.36970  0.09050  1.0000 -0.1000504984
C   C74       1.0  0.55540  0.63030  0.90950  1.0000 -0.1000504984
C   C75       1.0  0.52950  0.40490  0.99220  1.0000 -0.1000504984
C   C76       1.0  0.47050  0.59510  0.00780  1.0000 -0.1000504984
C   C77       1.0  0.49370  0.33540  0.11400  1.0000 -0.0725963164
C   C78       1.0  0.50630  0.66460  0.88600  1.0000 -0.0725963164
C   C79       1.0  0.57990  0.37200  0.01660  1.0000 -0.090266963
C   C80       1.0  0.42010  0.62800  0.98340  1.0000 -0.090266963
C   C81       1.0  0.56050  0.33770  0.07860  1.0000 -0.0388754032
C   C82       1.0  0.43950  0.66230  0.92140  1.0000 -0.0388754032
C   C83       1.0  0.61100  0.30650  0.10760  1.0000 0.5741069426
C   C84       1.0  0.38900  0.69350  0.89240  1.0000 0.5741069426
C   C85       1.0  0.81260  0.34570  0.23360  1.0000 0.6012505402
C   C86       1.0  0.18740  0.65430  0.76640  1.0000 0.6012505402
C   C87       1.0  0.86330  0.39260  0.19290  1.0000 -0.049144205
C   C88       1.0  0.13670  0.60740  0.80710  1.0000 -0.049144205
C   C89       1.0  0.84200  0.45160  0.16200  1.0000 -0.0809323915
C   C90       1.0  0.15800  0.54840  0.83800  1.0000 -0.0809323915
C   C91       1.0  0.93370  0.37970  0.18180  1.0000 -0.0725963164
C   C92       1.0  0.06630  0.62030  0.81820  1.0000 -0.0725963164
C   C93       1.0  0.98150  0.42360  0.13910  1.0000 -0.1295898746
C   C94       1.0  0.01850  0.57640  0.86090  1.0000 -0.1295898746
C   C95       1.0  0.89140  0.49570  0.12000  1.0000 -0.1087429361
C   C96       1.0  0.10860  0.50430  0.88000  1.0000 -0.1087429361
C   C97       1.0  0.96040  0.48090  0.10770  1.0000 0.049365447
C   C98       1.0  0.03960  0.51910  0.89230  1.0000 0.049365447
C   C99       1.0  0.00290  0.52960  0.05460  1.0000 0.049365447
C   C100      1.0  0.99710  0.47040  0.94540  1.0000 0.049365447
C   C101      1.0  0.07280  0.53120  0.02590  1.0000 -0.1087429361
C   C102      1.0  0.92720  0.46880  0.97410  1.0000 -0.1087429361
C   C103      1.0  0.96400  0.58280  0.03150  1.0000 -0.1000504984
C   C104      1.0  0.03600  0.41720  0.96850  1.0000 -0.1000504984
C   C105      1.0  0.10180  0.58220  0.97700  1.0000 -0.090266963
C   C106      1.0  0.89820  0.41780  0.02300  1.0000 -0.090266963
C   C107      1.0  0.99220  0.63300  0.98340  1.0000 -0.1000504984
C   C108      1.0  0.00780  0.36700  0.01660  1.0000 -0.1000504984
C   C109      1.0  0.06270  0.63380  0.95480  1.0000 -0.0189356374
C   C110      1.0  0.93730  0.36620  0.04520  1.0000 -0.0189356374
C   C111      1.0  0.09680  0.68820  0.89980  1.0000 0.5881744732
C   C112      1.0  0.90320  0.31180  0.10020  1.0000 0.5881744732
C   C113      1.0  0.06430  0.91640  0.84120  1.0000 0.5881744732
C   C114      1.0  0.93570  0.08360  0.15880  1.0000 0.5881744732
C   C115      1.0  0.02110  0.94720  0.88440  1.0000 -0.049144205
C   C116      1.0  0.97890  0.05280  0.11560  1.0000 -0.049144205
C   C117      1.0  0.98390  0.91260  0.94760  1.0000 -0.0725963164
C   C118      1.0  0.01610  0.08740  0.05240  1.0000 -0.0725963164
C   C119      1.0  0.01280  0.01090  0.86730  1.0000 -0.1000504984
C   C120      1.0  0.98720  0.98910  0.13270  1.0000 -0.1000504984
C   C121      1.0  0.94480  0.93780  0.98850  1.0000 -0.1000504984
C   C122      1.0  0.05520  0.06220  0.01150  1.0000 -0.1000504984
C   C123      1.0  0.97100  0.03730  0.91000  1.0000 -0.090266963
C   C124      1.0  0.02900  0.96270  0.09000  1.0000 -0.090266963
C   C125      1.0  0.93540  0.00200  0.97170  1.0000 0.0407551198
C   C126      1.0  0.06460  0.99800  0.02830  1.0000 0.0407551198
C   C127      1.0  0.89510  0.03820  0.01150  1.0000 0.0602221896
C   C128      1.0  0.10490  0.96180  0.98850  1.0000 0.0602221896
C   C129      1.0  0.85400  0.02020  0.07440  1.0000 -0.1191767271
C   C130      1.0  0.14600  0.97980  0.92560  1.0000 -0.1191767271
C   C131      1.0  0.89850  0.10450  0.97820  1.0000 -0.1087429361
C   C132      1.0  0.10150  0.89550  0.02180  1.0000 -0.1000504984
C   C133      1.0  0.86770  0.14580  0.00640  1.0000 -0.090266963
C   C134      1.0  0.13230  0.85420  0.99360  1.0000 -0.090266963
C   C135      1.0  0.82450  0.06310  0.10220  1.0000 -0.0725963164
C   C136      1.0  0.17550  0.93690  0.89780  1.0000 -0.0725963164
C   C137      1.0  0.82980  0.12630  0.06910  1.0000 -0.049144205
C   C138      1.0  0.17020  0.87370  0.93090  1.0000 -0.049144205
C   C139      1.0  0.79710  0.16840  0.10410  1.0000 0.6077295948
C   C140      1.0  0.20290  0.83160  0.89590  1.0000 0.6077295948
S   S1        1.0  0.59393  0.85877  0.49061  1.0000 0.9790070165
S   S2        1.0  0.40607  0.14123  0.50939  1.0000 0.9790070165
S   S3        1.0  0.97677  0.89301  0.50705  1.0000 0.9910032758
S   S4        1.0  0.02323  0.10699  0.49295  1.0000 0.9910032758
S   S5        1.0  0.54301  0.45108  0.91277  1.0000 0.9910032758
S   S6        1.0  0.45699  0.54892  0.08723  1.0000 0.9910032758
S   S7        1.0  0.87681  0.57211  0.07417  1.0000 0.9910032758
S   S8        1.0  0.12319  0.42789  0.92583  1.0000 0.9910032758
S   S9        1.0  0.95201  0.11750  0.89981  1.0000 0.9790070165
S   S10       1.0  0.04799  0.88250  0.10019  1.0000 0.9790070165
O   O1        1.0  0.39078  0.71790  0.68321  1.0000 -0.4782234396
O   O2        1.0  0.60922  0.28210  0.31679  1.0000 -0.4782234396
O   O3        1.0  0.29730  0.77667  0.68080  1.0000 -0.5963167142
O   O4        1.0  0.70270  0.22333  0.31920  1.0000 -0.5963167142
O   O5        1.0  0.74500  0.04483  0.30214  1.0000 -0.5287322472
O   O6        1.0  0.25500  0.95517  0.69786  1.0000 -0.5287322472
O   O7        1.0  0.67204  0.12580  0.28566  1.0000 -0.4919446449
O   O8        1.0  0.32796  0.87420  0.71434  1.0000 -0.4919446449
O   O9        1.0  0.62380  0.86000  0.53240  1.0000 -0.5131302516
O   O10       1.0  0.37620  0.14000  0.46760  1.0000 -0.5131302516
O   O11       1.0  0.62150  0.81460  0.45710  1.0000 -0.4782234396
O   O12       1.0  0.37850  0.18540  0.54290  1.0000 -0.4782234396
O   O13       1.0  0.78700  0.11060  0.39218  1.0000 -0.567538936
O   O14       1.0  0.21300  0.88940  0.60782  1.0000 -0.567538936
O   O15       1.0  0.86070  0.04550  0.34680  1.0000 -0.5287322472
O   O16       1.0  0.13930  0.95450  0.65320  1.0000 -0.5287322472
O   O17       1.0  0.09870  0.81013  0.67710  1.0000 -0.5482520948
O   O18       1.0  0.90130  0.18987  0.32290  1.0000 -0.5482520948
O   O19       1.0  0.02910  0.83220  0.76280  1.0000 -0.5287322472
O   O20       1.0  0.97090  0.16780  0.23720  1.0000 -0.5287322472
O   O21       1.0  0.04160  0.91160  0.45990  1.0000 -0.4966379444
O   O22       1.0  0.95840  0.08840  0.54010  1.0000 -0.4966379444
O   O23       1.0  0.94990  0.83660  0.51630  1.0000 -0.4637001942
O   O24       1.0  0.05010  0.16340  0.48370  1.0000 -0.4527510892
O   O25       1.0  0.26750  0.60165  0.89305  1.0000 -0.5423179955
O   O26       1.0  0.73250  0.39835  0.10695  1.0000 -0.5423179955
O   O27       1.0  0.36328  0.60285  0.81270  1.0000 -0.5131302516
O   O28       1.0  0.63672  0.39715  0.18730  1.0000 -0.5131302516
O   O29       1.0  0.67300  0.31684  0.07222  1.0000 -0.5569896291
O   O30       1.0  0.32700  0.68316  0.92778  1.0000 -0.5569896291
O   O31       1.0  0.59470  0.27154  0.16330  1.0000 -0.4359487782
O   O32       1.0  0.40530  0.72846  0.83670  1.0000 -0.4359487782
O   O33       1.0  0.58780  0.50070  0.89060  1.0000 -0.4919446449
O   O34       1.0  0.41220  0.49930  0.10940  1.0000 -0.4919446449
O   O35       1.0  0.55980  0.41280  0.87580  1.0000 -0.4295662682
O   O36       1.0  0.44020  0.58720  0.12420  1.0000 -0.4295662682
O   O37       1.0  0.75140  0.36240  0.24205  1.0000 -0.5287322472
O   O38       1.0  0.24860  0.63760  0.75795  1.0000 -0.5287322472
O   O39       1.0  0.83488  0.29190  0.25653  1.0000 -0.5569896291
O   O40       1.0  0.16512  0.70810  0.74347  1.0000 -0.5569896291
O   O41       1.0  0.05483  0.72650  0.87542  1.0000 -0.5192739184
O   O42       1.0  0.94517  0.27350  0.12458  1.0000 -0.5192739184
O   O43       1.0  0.15760  0.69702  0.88098  1.0000 -0.5287322472
O   O44       1.0  0.84240  0.30298  0.11902  1.0000 -0.5287322472
O   O45       1.0  0.84131  0.57355  0.03450  1.0000 -0.5192739184
O   O46       1.0  0.15869  0.42645  0.96550  1.0000 -0.5192739184
O   O47       1.0  0.84990  0.61140  0.11230  1.0000 -0.471063536
O   O48       1.0  0.15010  0.38860  0.88770  1.0000 -0.471063536
O   O49       1.0  0.10150  0.95032  0.78810  1.0000 -0.5192739184
O   O50       1.0  0.89850  0.04968  0.21190  1.0000 -0.5192739184
O   O51       1.0  0.06380  0.85730  0.85702  1.0000 -0.5423179955
O   O52       1.0  0.93620  0.14270  0.14298  1.0000 -0.5423179955
O   O53       1.0  0.77210  0.14800  0.16340  1.0000 -0.5423179955
O   O54       1.0  0.22790  0.85200  0.83660  1.0000 -0.5423179955
O   O55       1.0  0.79700  0.22740  0.07190  1.0000 -0.5482520948
O   O56       1.0  0.20300  0.77260  0.92810  1.0000 -0.5482520948
O   O57       1.0  0.01090  0.14840  0.88750  1.0000 -0.5192739184
O   O58       1.0  0.98910  0.85160  0.11250  1.0000 -0.5192739184
O   O59       1.0  0.91430  0.14380  0.85810  1.0000 -0.471063536
O   O60       1.0  0.08570  0.85620  0.14190  1.0000 -0.471063536
O   O61       1.0  0.81952  0.17319  0.25085  1.0000 -0.9767590355
O   O62       1.0  0.18048  0.82681  0.74915  1.0000 -0.9767590355
O   O63       1.0  0.70355  0.26915  0.18865  1.0000 -0.8094305883
O   O64       1.0  0.29645  0.73085  0.81135  1.0000 -0.8094305883
