# DDEC6 charges by PACMAN v1.1 (https://github.com/mtap-research/PACMAN-charge/)
data_2009[Zn][dia]3[ASR]2
_chemical_formula_sum              "Zn4 H48 C32 N8 O32"
_cell_length_a       12.9511
_cell_length_b       17.855
_cell_length_c       6.6597
_cell_angle_alpha    90
_cell_angle_beta     90
_cell_angle_gamma    90

_symmetry_space_group_name_H-M    "P 1"
_symmetry_Int_Tables_number       1

loop_
  _symmetry_equiv_pos_as_xyz
  'x, y, z'

loop_
  _atom_site_type_symbol
  _atom_site_label
  _atom_site_symmetry_multiplicity
  _atom_site_fract_x
  _atom_site_fract_y
  _atom_site_fract_z
  _atom_site_occupancy
  _atom_site_charge
Zn  Zn1       1.0  0.75000  0.25000  0.11157  1.0000 0.9318531311
Zn  Zn2       1.0  0.25000  0.75000  0.11157  1.0000 0.9318531311
Zn  Zn3       1.0  0.25000  0.25000  0.88843  1.0000 0.9318531311
Zn  Zn4       1.0  0.75000  0.75000  0.88843  1.0000 0.9318531311
H   H1        1.0  0.58725  0.45261  0.32178  1.0000 0.1234779438
H   H2        1.0  0.41275  0.54739  0.32178  1.0000 0.1234779438
H   H3        1.0  0.41275  0.45261  0.67822  1.0000 0.1234779438
H   H4        1.0  0.58725  0.54739  0.67822  1.0000 0.1234779438
H   H5        1.0  0.08725  0.95261  0.32178  1.0000 0.1234779438
H   H6        1.0  0.91275  0.04739  0.32178  1.0000 0.1234779438
H   H7        1.0  0.91275  0.95261  0.67822  1.0000 0.1234779438
H   H8        1.0  0.08725  0.04739  0.67822  1.0000 0.1234779438
H   H9        1.0  0.60129  0.41086  0.57028  1.0000 0.1290515444
H   H10       1.0  0.39871  0.58914  0.57028  1.0000 0.1290515444
H   H11       1.0  0.39871  0.41086  0.42972  1.0000 0.1290515444
H   H12       1.0  0.60129  0.58914  0.42972  1.0000 0.1290515444
H   H13       1.0  0.10129  0.91086  0.57028  1.0000 0.1290515444
H   H14       1.0  0.89871  0.08914  0.57028  1.0000 0.1290515444
H   H15       1.0  0.89871  0.91086  0.42972  1.0000 0.1290515444
H   H16       1.0  0.10129  0.08914  0.42972  1.0000 0.1290515444
H   H17       1.0  0.59050  0.14877  0.59856  1.0000 0.1290515444
H   H18       1.0  0.40950  0.85123  0.59856  1.0000 0.1290515444
H   H19       1.0  0.40950  0.14877  0.40144  1.0000 0.1290515444
H   H20       1.0  0.59050  0.85123  0.40144  1.0000 0.1290515444
H   H21       1.0  0.09050  0.64877  0.59856  1.0000 0.1290515444
H   H22       1.0  0.90950  0.35123  0.59856  1.0000 0.1290515444
H   H23       1.0  0.90950  0.64877  0.40144  1.0000 0.1290515444
H   H24       1.0  0.09050  0.35123  0.40144  1.0000 0.1290515444
H   H25       1.0  0.47739  0.16751  0.74620  1.0000 0.1362639243
H   H26       1.0  0.52261  0.83249  0.74620  1.0000 0.1362639243
H   H27       1.0  0.52261  0.16751  0.25380  1.0000 0.1362639243
H   H28       1.0  0.47739  0.83249  0.25380  1.0000 0.1362639243
H   H29       1.0  0.97739  0.66751  0.74620  1.0000 0.1362639243
H   H30       1.0  0.02261  0.33249  0.74620  1.0000 0.1362639243
H   H31       1.0  0.02261  0.66751  0.25380  1.0000 0.1362639243
H   H32       1.0  0.97739  0.33249  0.25380  1.0000 0.1362639243
H   H33       1.0  0.75630  0.51369  0.38488  1.0000 0.2999421327
H   H34       1.0  0.24370  0.48631  0.38488  1.0000 0.2999421327
H   H35       1.0  0.24370  0.51369  0.61512  1.0000 0.2999421327
H   H36       1.0  0.75630  0.48631  0.61512  1.0000 0.2999421327
H   H37       1.0  0.25630  0.01369  0.38488  1.0000 0.2999421327
H   H38       1.0  0.74370  0.98631  0.38488  1.0000 0.2999421327
H   H39       1.0  0.74370  0.01369  0.61512  1.0000 0.2999421327
H   H40       1.0  0.25630  0.98631  0.61512  1.0000 0.2999421327
H   H41       1.0  0.55829  0.27452  0.43924  1.0000 0.2702521837
H   H42       1.0  0.44171  0.72548  0.43924  1.0000 0.2702521837
H   H43       1.0  0.44171  0.27452  0.56076  1.0000 0.2702521837
H   H44       1.0  0.55829  0.72548  0.56076  1.0000 0.2702521837
H   H45       1.0  0.05829  0.77452  0.43924  1.0000 0.2702521837
H   H46       1.0  0.94171  0.22548  0.43924  1.0000 0.2702521837
H   H47       1.0  0.94171  0.77452  0.56076  1.0000 0.2702521837
H   H48       1.0  0.05829  0.22548  0.56076  1.0000 0.2702521837
C   C1        1.0  0.64216  0.43394  0.43815  1.0000 -0.1960533069
C   C2        1.0  0.35784  0.56606  0.43815  1.0000 -0.1960533069
C   C3        1.0  0.35784  0.43394  0.56185  1.0000 -0.1960533069
C   C4        1.0  0.64216  0.56606  0.56185  1.0000 -0.1960533069
C   C5        1.0  0.14216  0.93394  0.43815  1.0000 -0.1960533069
C   C6        1.0  0.85784  0.06606  0.43815  1.0000 -0.1960533069
C   C7        1.0  0.85784  0.93394  0.56185  1.0000 -0.1960533069
C   C8        1.0  0.14216  0.06606  0.56185  1.0000 -0.1960533069
C   C9        1.0  0.71332  0.37440  0.35136  1.0000 0.6110742545
C   C10       1.0  0.28668  0.62560  0.35136  1.0000 0.6110742545
C   C11       1.0  0.28668  0.37440  0.64864  1.0000 0.6110742545
C   C12       1.0  0.71332  0.62560  0.64864  1.0000 0.6110742545
C   C13       1.0  0.21332  0.87440  0.35136  1.0000 0.6110742545
C   C14       1.0  0.78668  0.12560  0.35136  1.0000 0.6110742545
C   C15       1.0  0.78668  0.87440  0.64864  1.0000 0.6110742545
C   C16       1.0  0.21332  0.12560  0.64864  1.0000 0.6110742545
C   C17       1.0  0.54257  0.19331  0.66536  1.0000 -0.1869805747
C   C18       1.0  0.45743  0.80669  0.66536  1.0000 -0.1869805747
C   C19       1.0  0.45743  0.19331  0.33464  1.0000 -0.1869805747
C   C20       1.0  0.54257  0.80669  0.33464  1.0000 -0.1869805747
C   C21       1.0  0.04257  0.69331  0.66536  1.0000 -0.1869805747
C   C22       1.0  0.95743  0.30669  0.66536  1.0000 -0.1869805747
C   C23       1.0  0.95743  0.69331  0.33464  1.0000 -0.1869805747
C   C24       1.0  0.04257  0.30669  0.33464  1.0000 -0.1869805747
C   C25       1.0  0.60683  0.24000  0.80932  1.0000 0.6168988204
C   C26       1.0  0.39317  0.76000  0.80932  1.0000 0.6168988204
C   C27       1.0  0.39317  0.24000  0.19068  1.0000 0.6168988204
C   C28       1.0  0.60683  0.76000  0.19068  1.0000 0.6168988204
C   C29       1.0  0.10683  0.74000  0.80932  1.0000 0.6168988204
C   C30       1.0  0.89317  0.26000  0.80932  1.0000 0.6168988204
C   C31       1.0  0.89317  0.74000  0.19068  1.0000 0.6168988204
C   C32       1.0  0.10683  0.26000  0.19068  1.0000 0.6168988204
N   N1        1.0  0.70523  0.50000  0.50000  1.0000 -0.1479132243
N   N2        1.0  0.29477  0.50000  0.50000  1.0000 -0.1479132243
N   N3        1.0  0.20523  0.00000  0.50000  1.0000 -0.1479132243
N   N4        1.0  0.79477  0.00000  0.50000  1.0000 -0.1479132243
N   N5        1.0  0.50000  0.24003  0.50000  1.0000 -0.1761611992
N   N6        1.0  0.50000  0.75997  0.50000  1.0000 -0.1761611992
N   N7        1.0  0.00000  0.74003  0.50000  1.0000 -0.1761611992
N   N8        1.0  0.00000  0.25997  0.50000  1.0000 -0.1761611992
O   O1        1.0  0.66434  0.31542  0.28972  1.0000 -0.5524439657
O   O2        1.0  0.33566  0.68458  0.28972  1.0000 -0.5524439657
O   O3        1.0  0.33566  0.31542  0.71028  1.0000 -0.5524439657
O   O4        1.0  0.66434  0.68458  0.71028  1.0000 -0.5524439657
O   O5        1.0  0.16434  0.81542  0.28972  1.0000 -0.5524439657
O   O6        1.0  0.83566  0.18458  0.28972  1.0000 -0.5524439657
O   O7        1.0  0.83566  0.81542  0.71028  1.0000 -0.5524439657
O   O8        1.0  0.16434  0.18458  0.71028  1.0000 -0.5524439657
O   O9        1.0  0.80772  0.38779  0.34401  1.0000 -0.5381418684
O   O10       1.0  0.19228  0.61221  0.34401  1.0000 -0.5381418684
O   O11       1.0  0.19228  0.38779  0.65599  1.0000 -0.5381418684
O   O12       1.0  0.80772  0.61221  0.65599  1.0000 -0.5381418684
O   O13       1.0  0.30772  0.88779  0.34401  1.0000 -0.5381418684
O   O14       1.0  0.69228  0.11221  0.34401  1.0000 -0.5381418684
O   O15       1.0  0.69228  0.88779  0.65599  1.0000 -0.5381418684
O   O16       1.0  0.30772  0.11221  0.65599  1.0000 -0.5381418684
O   O17       1.0  0.64659  0.19871  0.95039  1.0000 -0.5728406836
O   O18       1.0  0.35341  0.80129  0.95039  1.0000 -0.5728406836
O   O19       1.0  0.35341  0.19871  0.04961  1.0000 -0.5728406836
O   O20       1.0  0.64659  0.80129  0.04961  1.0000 -0.5728406836
O   O21       1.0  0.14659  0.69871  0.95039  1.0000 -0.5728406836
O   O22       1.0  0.85341  0.30129  0.95039  1.0000 -0.5728406836
O   O23       1.0  0.85341  0.69871  0.04961  1.0000 -0.5728406836
O   O24       1.0  0.14659  0.30129  0.04961  1.0000 -0.5728406836
O   O25       1.0  0.61592  0.30927  0.78408  1.0000 -0.5728406836
O   O26       1.0  0.38408  0.69073  0.78408  1.0000 -0.5728406836
O   O27       1.0  0.38408  0.30927  0.21592  1.0000 -0.5752431595
O   O28       1.0  0.61592  0.69073  0.21592  1.0000 -0.5728406836
O   O29       1.0  0.11592  0.80927  0.78408  1.0000 -0.5728406836
O   O30       1.0  0.88408  0.19073  0.78408  1.0000 -0.5728406836
O   O31       1.0  0.88408  0.80927  0.21592  1.0000 -0.5728406836
O   O32       1.0  0.11592  0.19073  0.21592  1.0000 -0.5752431595
