# DDEC6 charges by PACMAN v1.1 (https://github.com/mtap-research/PACMAN-charge/)
data_2009[Yb][rtl]3[ASR]1
_chemical_formula_sum              "Yb4 H36 C36 O24"
_cell_length_a       8.5773
_cell_length_b       16.7281
_cell_length_c       14.4884
_cell_angle_alpha    90
_cell_angle_beta     123.205
_cell_angle_gamma    90

_symmetry_space_group_name_H-M    "P 1"
_symmetry_Int_Tables_number       1

loop_
  _symmetry_equiv_pos_as_xyz
  'x, y, z'

loop_
  _atom_site_type_symbol
  _atom_site_label
  _atom_site_symmetry_multiplicity
  _atom_site_fract_x
  _atom_site_fract_y
  _atom_site_fract_z
  _atom_site_occupancy
  _atom_site_charge
Yb  Yb1       1.0  0.58723  0.09803  0.06883  1.0000 2.0372739846
Yb  Yb2       1.0  0.41277  0.59803  0.43117  1.0000 2.0372739846
Yb  Yb3       1.0  0.41277  0.90197  0.93117  1.0000 2.0372739846
Yb  Yb4       1.0  0.58723  0.40197  0.56883  1.0000 2.0372739846
H   H1        1.0  0.96180  0.20680  0.81110  1.0000 0.1065360194
H   H2        1.0  0.03820  0.70680  0.68890  1.0000 0.1065360194
H   H3        1.0  0.03820  0.79320  0.18890  1.0000 0.1065360194
H   H4        1.0  0.96180  0.29320  0.31110  1.0000 0.1065360194
H   H5        1.0  0.97610  0.18130  0.71190  1.0000 0.1065360194
H   H6        1.0  0.02390  0.68130  0.78810  1.0000 0.1065360194
H   H7        1.0  0.02390  0.81870  0.28810  1.0000 0.1065360194
H   H8        1.0  0.97610  0.31870  0.21190  1.0000 0.1065360194
H   H9        1.0  0.98400  0.04700  0.75500  1.0000 0.1065360194
H   H10       1.0  0.01600  0.54700  0.74500  1.0000 0.1065360194
H   H11       1.0  0.01600  0.95300  0.24500  1.0000 0.1065360194
H   H12       1.0  0.98400  0.45300  0.25500  1.0000 0.1065360194
H   H13       1.0  0.96670  0.00570  0.90480  1.0000 0.10035018
H   H14       1.0  0.03330  0.50570  0.59520  1.0000 0.10035018
H   H15       1.0  0.03330  0.99430  0.09520  1.0000 0.10035018
H   H16       1.0  0.96670  0.49430  0.40480  1.0000 0.10035018
H   H17       1.0  0.95490  0.09470  0.93460  1.0000 0.1188201162
H   H18       1.0  0.04510  0.59470  0.56540  1.0000 0.1188201162
H   H19       1.0  0.04510  0.90530  0.06540  1.0000 0.1188201162
H   H20       1.0  0.95490  0.40530  0.43460  1.0000 0.1188201162
H   H21       1.0  0.66400  0.01400  0.74000  1.0000 0.1065360194
H   H22       1.0  0.33600  0.51400  0.76000  1.0000 0.1065360194
H   H23       1.0  0.33600  0.98600  0.26000  1.0000 0.1065360194
H   H24       1.0  0.66400  0.48600  0.24000  1.0000 0.1065360194
H   H25       1.0  0.49390  0.13310  0.69300  1.0000 0.1065360194
H   H26       1.0  0.50610  0.63310  0.80700  1.0000 0.1065360194
H   H27       1.0  0.50610  0.86690  0.30700  1.0000 0.1065360194
H   H28       1.0  0.49390  0.36690  0.19300  1.0000 0.1065360194
H   H29       1.0  0.65570  0.17520  0.79970  1.0000 0.1188201162
H   H30       1.0  0.34430  0.67520  0.70030  1.0000 0.1188201162
H   H31       1.0  0.34430  0.82480  0.20030  1.0000 0.1188201162
H   H32       1.0  0.65570  0.32480  0.29970  1.0000 0.1188201162
H   H33       1.0  0.67700  0.12700  0.61900  1.0000 0.10035018
H   H34       1.0  0.32300  0.62700  0.88100  1.0000 0.10035018
H   H35       1.0  0.32300  0.87300  0.38100  1.0000 0.10035018
H   H36       1.0  0.67700  0.37300  0.11900  1.0000 0.10035018
C   C1        1.0  0.92520  0.16630  0.75500  1.0000 -0.1846608257
C   C2        1.0  0.07480  0.66630  0.74500  1.0000 -0.1876072174
C   C3        1.0  0.07480  0.83370  0.24500  1.0000 -0.1876072174
C   C4        1.0  0.92520  0.33370  0.25500  1.0000 -0.1846608257
C   C5        1.0  0.00740  0.08660  0.81060  1.0000 -0.1079558914
C   C6        1.0  0.99260  0.58660  0.68940  1.0000 -0.1079558914
C   C7        1.0  0.99260  0.91340  0.18940  1.0000 -0.1079558914
C   C8        1.0  0.00740  0.41340  0.31060  1.0000 -0.1079558914
C   C9        1.0  0.91910  0.05830  0.87400  1.0000 -0.1964805869
C   C10       1.0  0.08090  0.55830  0.62600  1.0000 -0.1964805869
C   C11       1.0  0.08090  0.94170  0.12600  1.0000 -0.1964805869
C   C12       1.0  0.91910  0.44170  0.37400  1.0000 -0.1964805869
C   C13       1.0  0.70220  0.05490  0.79720  1.0000 -0.1188672471
C   C14       1.0  0.29780  0.55490  0.70280  1.0000 -0.1188672471
C   C15       1.0  0.29780  0.94510  0.20280  1.0000 -0.1188672471
C   C16       1.0  0.70220  0.44510  0.29720  1.0000 -0.1188672471
C   C17       1.0  0.62830  0.13620  0.74320  1.0000 -0.1876072174
C   C18       1.0  0.37170  0.63620  0.75680  1.0000 -0.1876072174
C   C19       1.0  0.37170  0.86380  0.25680  1.0000 -0.1876072174
C   C20       1.0  0.62830  0.36380  0.24320  1.0000 -0.1876072174
C   C21       1.0  0.71280  0.16420  0.67960  1.0000 -0.1188672471
C   C22       1.0  0.28720  0.66420  0.82040  1.0000 -0.1188672471
C   C23       1.0  0.28720  0.83580  0.32040  1.0000 -0.1188672471
C   C24       1.0  0.71280  0.33580  0.17960  1.0000 -0.1188672471
C   C25       1.0  0.21540  0.09230  0.89490  1.0000 0.6241413916
C   C26       1.0  0.78460  0.59230  0.60510  1.0000 0.6241413916
C   C27       1.0  0.78460  0.90770  0.10510  1.0000 0.6241413916
C   C28       1.0  0.21540  0.40770  0.39490  1.0000 0.6241413916
C   C29       1.0  0.62830  0.03330  0.86860  1.0000 0.6625430996
C   C30       1.0  0.37170  0.53330  0.63140  1.0000 0.6625430996
C   C31       1.0  0.37170  0.96670  0.13140  1.0000 0.6625430996
C   C32       1.0  0.62830  0.46670  0.36860  1.0000 0.6625430996
C   C33       1.0  0.64990  0.24790  0.63230  1.0000 0.5709661062
C   C34       1.0  0.35010  0.74790  0.86770  1.0000 0.5709661062
C   C35       1.0  0.35010  0.75210  0.36770  1.0000 0.5709661062
C   C36       1.0  0.64990  0.25210  0.13230  1.0000 0.5709661062
O   O1        1.0  0.28720  0.15370  0.94900  1.0000 -0.550936926
O   O2        1.0  0.71280  0.65370  0.55100  1.0000 -0.550936926
O   O3        1.0  0.71280  0.84630  0.05100  1.0000 -0.550936926
O   O4        1.0  0.28720  0.34630  0.44900  1.0000 -0.550936926
O   O5        1.0  0.31840  0.03100  0.91300  1.0000 -0.788277853
O   O6        1.0  0.68160  0.53100  0.58700  1.0000 -0.788277853
O   O7        1.0  0.68160  0.96900  0.08700  1.0000 -0.788277853
O   O8        1.0  0.31840  0.46900  0.41300  1.0000 -0.788277853
O   O9        1.0  0.65340  0.08400  0.93970  1.0000 -0.6792255824
O   O10       1.0  0.34660  0.58400  0.56030  1.0000 -0.6792255824
O   O11       1.0  0.34660  0.91600  0.06030  1.0000 -0.6792255824
O   O12       1.0  0.65340  0.41600  0.43970  1.0000 -0.6792255824
O   O13       1.0  0.55090  0.96570  0.85390  1.0000 -0.6691104507
O   O14       1.0  0.44910  0.46570  0.64610  1.0000 -0.6691104507
O   O15       1.0  0.44910  0.03430  0.14610  1.0000 -0.6691104507
O   O16       1.0  0.55090  0.53430  0.35390  1.0000 -0.6691104507
O   O17       1.0  0.65340  0.26790  0.55020  1.0000 -0.6255805676
O   O18       1.0  0.34660  0.76790  0.94980  1.0000 -0.6255805676
O   O19       1.0  0.34660  0.73210  0.44980  1.0000 -0.6255805676
O   O20       1.0  0.65340  0.23210  0.05020  1.0000 -0.6255805676
O   O21       1.0  0.60730  0.29790  0.68050  1.0000 -0.6369016802
O   O22       1.0  0.39270  0.79790  0.81950  1.0000 -0.6369016802
O   O23       1.0  0.39270  0.70210  0.31950  1.0000 -0.6369016802
O   O24       1.0  0.60730  0.20210  0.18050  1.0000 -0.6369016802
