# DDEC6 charges by PACMAN v1.1 (https://github.com/mtap-research/PACMAN-charge/)
data_2009[Cd][met]3[ASR]1
_chemical_formula_sum              "Cd6 H24 C24 N36"
_cell_length_a       13.1489
_cell_length_b       13.1489
_cell_length_c       13.1489
_cell_angle_alpha    60
_cell_angle_beta     60
_cell_angle_gamma    60

_symmetry_space_group_name_H-M    "P 1"
_symmetry_Int_Tables_number       1

loop_
  _symmetry_equiv_pos_as_xyz
  'x, y, z'

loop_
  _atom_site_type_symbol
  _atom_site_label
  _atom_site_symmetry_multiplicity
  _atom_site_fract_x
  _atom_site_fract_y
  _atom_site_fract_z
  _atom_site_occupancy
  _atom_site_charge
Cd  Cd1       1.0  0.12500  0.12500  0.12500  1.0000 0.611026343
Cd  Cd2       1.0  0.12500  0.12500  0.62500  1.0000 0.611026343
Cd  Cd3       1.0  0.12500  0.62500  0.12500  1.0000 0.611026343
Cd  Cd4       1.0  0.62500  0.12500  0.12500  1.0000 0.611026343
Cd  Cd5       1.0  0.25000  0.25000  0.25000  1.0000 0.568722751
Cd  Cd6       1.0  0.00000  0.00000  0.00000  1.0000 0.568722751
H   H1        1.0  0.97240  0.43480  0.97240  1.0000 0.125933703
H   H2        1.0  0.43480  0.97240  0.62040  1.0000 0.125933703
H   H3        1.0  0.97240  0.62040  0.97240  1.0000 0.125933703
H   H4        1.0  0.62040  0.97240  0.43480  1.0000 0.125933703
H   H5        1.0  0.97240  0.97240  0.43480  1.0000 0.125933703
H   H6        1.0  0.62040  0.43480  0.97240  1.0000 0.125933703
H   H7        1.0  0.97240  0.97240  0.62040  1.0000 0.125933703
H   H8        1.0  0.43480  0.62040  0.97240  1.0000 0.125933703
H   H9        1.0  0.43480  0.97240  0.97240  1.0000 0.125933703
H   H10       1.0  0.97240  0.62040  0.43480  1.0000 0.125933703
H   H11       1.0  0.62040  0.97240  0.97240  1.0000 0.125933703
H   H12       1.0  0.97240  0.43480  0.62040  1.0000 0.125933703
H   H13       1.0  0.27760  0.81520  0.62960  1.0000 0.125933703
H   H14       1.0  0.81520  0.27760  0.27760  1.0000 0.125933703
H   H15       1.0  0.27760  0.62960  0.81520  1.0000 0.125933703
H   H16       1.0  0.62960  0.27760  0.27760  1.0000 0.125933703
H   H17       1.0  0.27760  0.27760  0.62960  1.0000 0.125933703
H   H18       1.0  0.62960  0.81520  0.27760  1.0000 0.125933703
H   H19       1.0  0.27760  0.27760  0.81520  1.0000 0.125933703
H   H20       1.0  0.81520  0.62960  0.27760  1.0000 0.125933703
H   H21       1.0  0.81520  0.27760  0.62960  1.0000 0.125933703
H   H22       1.0  0.27760  0.62960  0.27760  1.0000 0.125933703
H   H23       1.0  0.62960  0.27760  0.81520  1.0000 0.125933703
H   H24       1.0  0.27760  0.81520  0.27760  1.0000 0.125933703
C   C1        1.0  0.01270  0.43630  0.01270  1.0000 -0.0856345091
C   C2        1.0  0.43630  0.01270  0.53830  1.0000 -0.0856345091
C   C3        1.0  0.01270  0.53830  0.01270  1.0000 -0.0856345091
C   C4        1.0  0.53830  0.01270  0.43630  1.0000 -0.0856345091
C   C5        1.0  0.01270  0.01270  0.43630  1.0000 -0.0856345091
C   C6        1.0  0.53830  0.43630  0.01270  1.0000 -0.0856345091
C   C7        1.0  0.01270  0.01270  0.53830  1.0000 -0.0856345091
C   C8        1.0  0.43630  0.53830  0.01270  1.0000 -0.0856345091
C   C9        1.0  0.43630  0.01270  0.01270  1.0000 -0.0856345091
C   C10       1.0  0.01270  0.53830  0.43630  1.0000 -0.0856345091
C   C11       1.0  0.53830  0.01270  0.01270  1.0000 -0.0856345091
C   C12       1.0  0.01270  0.43630  0.53830  1.0000 -0.0856345091
C   C13       1.0  0.23730  0.81370  0.71170  1.0000 -0.0856345091
C   C14       1.0  0.81370  0.23730  0.23730  1.0000 -0.0856345091
C   C15       1.0  0.23730  0.71170  0.81370  1.0000 -0.0856345091
C   C16       1.0  0.71170  0.23730  0.23730  1.0000 -0.0856345091
C   C17       1.0  0.23730  0.23730  0.71170  1.0000 -0.0856345091
C   C18       1.0  0.71170  0.81370  0.23730  1.0000 -0.0856345091
C   C19       1.0  0.23730  0.23730  0.81370  1.0000 -0.0856345091
C   C20       1.0  0.81370  0.71170  0.23730  1.0000 -0.0856345091
C   C21       1.0  0.81370  0.23730  0.71170  1.0000 -0.0856345091
C   C22       1.0  0.23730  0.71170  0.23730  1.0000 -0.0856345091
C   C23       1.0  0.71170  0.23730  0.81370  1.0000 -0.0856345091
C   C24       1.0  0.23730  0.81370  0.23730  1.0000 -0.0856345091
N   N1        1.0  0.08280  0.33460  0.08280  1.0000 -0.1658527292
N   N2        1.0  0.33460  0.08280  0.49980  1.0000 -0.1658527292
N   N3        1.0  0.08280  0.49980  0.08280  1.0000 -0.1658527292
N   N4        1.0  0.49980  0.08280  0.33460  1.0000 -0.1658527292
N   N5        1.0  0.08280  0.08280  0.33460  1.0000 -0.1658527292
N   N6        1.0  0.49980  0.33460  0.08280  1.0000 -0.1658527292
N   N7        1.0  0.08280  0.08280  0.49980  1.0000 -0.1658527292
N   N8        1.0  0.33460  0.49980  0.08280  1.0000 -0.1658527292
N   N9        1.0  0.33460  0.08280  0.08280  1.0000 -0.1658527292
N   N10       1.0  0.08280  0.49980  0.33460  1.0000 -0.1658527292
N   N11       1.0  0.49980  0.08280  0.08280  1.0000 -0.1658527292
N   N12       1.0  0.08280  0.33460  0.49980  1.0000 -0.1658527292
N   N13       1.0  0.16720  0.91540  0.75020  1.0000 -0.1658527292
N   N14       1.0  0.91540  0.16720  0.16720  1.0000 -0.1658527292
N   N15       1.0  0.16720  0.75020  0.91540  1.0000 -0.1658527292
N   N16       1.0  0.75020  0.16720  0.16720  1.0000 -0.1658527292
N   N17       1.0  0.16720  0.16720  0.75020  1.0000 -0.1658527292
N   N18       1.0  0.75020  0.91540  0.16720  1.0000 -0.1658527292
N   N19       1.0  0.16720  0.16720  0.91540  1.0000 -0.1658527292
N   N20       1.0  0.91540  0.75020  0.16720  1.0000 -0.1658527292
N   N21       1.0  0.91540  0.16720  0.75020  1.0000 -0.1658527292
N   N22       1.0  0.16720  0.75020  0.16720  1.0000 -0.1658527292
N   N23       1.0  0.75020  0.16720  0.91540  1.0000 -0.1658527292
N   N24       1.0  0.16720  0.91540  0.16720  1.0000 -0.1658527292
N   N25       1.0  0.12290  0.37710  0.12290  1.0000 -0.0473555022
N   N26       1.0  0.37710  0.12290  0.37710  1.0000 -0.0473555022
N   N27       1.0  0.12290  0.12290  0.37710  1.0000 -0.0473555022
N   N28       1.0  0.37710  0.37710  0.12290  1.0000 -0.0473555022
N   N29       1.0  0.37710  0.12290  0.12290  1.0000 -0.0473555022
N   N30       1.0  0.12290  0.37710  0.37710  1.0000 -0.0473555022
N   N31       1.0  0.12710  0.87290  0.87290  1.0000 -0.0473555022
N   N32       1.0  0.87290  0.12710  0.12710  1.0000 -0.0473555022
N   N33       1.0  0.12710  0.12710  0.87290  1.0000 -0.0473555022
N   N34       1.0  0.87290  0.87290  0.12710  1.0000 -0.0473555022
N   N35       1.0  0.87290  0.12710  0.87290  1.0000 -0.0473555022
N   N36       1.0  0.12710  0.87290  0.12710  1.0000 -0.0473555022
