# DDEC6 charges by PACMAN v1.1 (https://github.com/mtap-research/PACMAN-charge/)
data_2009[La][pcu]3[ASR]1
_chemical_formula_sum              "La2 H40 C50 N10 Cl6"
_cell_length_a       13.447
_cell_length_b       13.715
_cell_length_c       14.301
_cell_angle_alpha    79.48
_cell_angle_beta     63.9
_cell_angle_gamma    65.68

_symmetry_space_group_name_H-M    "P 1"
_symmetry_Int_Tables_number       1

loop_
  _symmetry_equiv_pos_as_xyz
  'x, y, z'

loop_
  _atom_site_type_symbol
  _atom_site_label
  _atom_site_symmetry_multiplicity
  _atom_site_fract_x
  _atom_site_fract_y
  _atom_site_fract_z
  _atom_site_occupancy
  _atom_site_charge
La  La1       1.0  0.52419  0.91954  0.65813  1.0000 1.469747637
La  La2       1.0  0.47581  0.08046  0.34187  1.0000 1.4637795431
H   H1        1.0  0.87490  0.54760  0.41950  1.0000 0.128979948
H   H2        1.0  0.12510  0.45240  0.58050  1.0000 0.128979948
H   H3        1.0  0.70650  0.69860  0.48190  1.0000 0.107939058
H   H4        1.0  0.29350  0.30140  0.51810  1.0000 0.107939058
H   H5        1.0  0.34140  0.84900  0.91130  1.0000 0.1023305857
H   H6        1.0  0.65860  0.15100  0.08870  1.0000 0.1023305857
H   H7        1.0  0.15220  0.86560  0.03060  1.0000 0.128979948
H   H8        1.0  0.84780  0.13440  0.96940  1.0000 0.128979948
H   H9        1.0  0.40710  0.34130  0.02100  1.0000 0.128979948
H   H10       1.0  0.59290  0.65870  0.97900  1.0000 0.128979948
H   H11       1.0  0.44720  0.05360  0.89160  1.0000 0.1023305857
H   H12       1.0  0.55280  0.94640  0.10840  1.0000 0.1023305857
H   H13       1.0  0.02070  0.12390  0.87150  1.0000 0.128979948
H   H14       1.0  0.97930  0.87610  0.12850  1.0000 0.128979948
H   H15       1.0  0.74020  0.02120  0.43820  1.0000 0.1023305857
H   H16       1.0  0.25980  0.97880  0.56180  1.0000 0.1023305857
H   H17       1.0  0.46610  0.34860  0.68200  1.0000 0.128979948
H   H18       1.0  0.53390  0.65140  0.31800  1.0000 0.128979948
H   H19       1.0  0.21400  0.10430  0.76160  1.0000 0.1023305857
H   H20       1.0  0.78600  0.89570  0.23840  1.0000 0.1023305857
H   H21       1.0  0.50130  0.19160  0.61580  1.0000 0.107939058
H   H22       1.0  0.49870  0.80840  0.38420  1.0000 0.107939058
H   H23       1.0  0.40620  0.49540  0.75060  1.0000 0.1214444084
H   H24       1.0  0.59380  0.50460  0.24940  1.0000 0.1214444084
H   H25       1.0  0.42110  0.20450  0.96170  1.0000 0.128979948
H   H26       1.0  0.57890  0.79550  0.03830  1.0000 0.128979948
H   H27       1.0  0.92330  0.03530  0.38090  1.0000 0.128979948
H   H28       1.0  0.07670  0.96470  0.61910  1.0000 0.128979948
H   H29       1.0  0.37460  0.64840  0.82240  1.0000 0.1023305857
H   H30       1.0  0.62540  0.35160  0.17760  1.0000 0.1023305857
H   H31       1.0  0.97100  0.58620  0.63510  1.0000 0.128979948
H   H32       1.0  0.02900  0.41380  0.36490  1.0000 0.128979948
H   H33       1.0  0.36180  0.50240  0.08650  1.0000 0.1023305857
H   H34       1.0  0.63820  0.49760  0.91350  1.0000 0.1023305857
H   H35       1.0  0.79800  0.73500  0.69330  1.0000 0.1023305857
H   H36       1.0  0.20200  0.26500  0.30670  1.0000 0.1023305857
H   H37       1.0  0.72950  0.94790  0.71720  1.0000 0.1023305857
H   H38       1.0  0.27050  0.05210  0.28280  1.0000 0.1023305857
H   H39       1.0  0.90970  0.96150  0.66920  1.0000 0.128979948
H   H40       1.0  0.09030  0.03850  0.33080  1.0000 0.128979948
C   C1        1.0  0.86180  0.58530  0.47600  1.0000 -0.1978279645
C   C2        1.0  0.13820  0.41470  0.52400  1.0000 -0.1978279645
C   C3        1.0  0.43760  0.29680  0.83120  1.0000 0.107939058
C   C4        1.0  0.56240  0.70320  0.16880  1.0000 0.107939058
C   C5        1.0  0.06260  0.99510  0.96370  1.0000 0.1023305857
C   C6        1.0  0.93740  0.00490  0.03630  1.0000 0.107939058
C   C7        1.0  0.94440  0.54930  0.51980  1.0000 0.107939058
C   C8        1.0  0.05560  0.45070  0.48020  1.0000 0.107939058
C   C9        1.0  0.76090  0.67580  0.51430  1.0000 0.0888564052
C   C10       1.0  0.23910  0.32420  0.48570  1.0000 0.0888564052
C   C11       1.0  0.27530  0.90600  0.90290  1.0000 0.0888564052
C   C12       1.0  0.72470  0.09400  0.09710  1.0000 0.0888564052
C   C13       1.0  0.41210  0.39780  0.87700  1.0000 0.1023305857
C   C14       1.0  0.58790  0.60220  0.12300  1.0000 0.1023305857
C   C15       1.0  0.16210  0.91470  0.97420  1.0000 -0.1902590988
C   C16       1.0  0.83790  0.08530  0.02580  1.0000 -0.1902590988
C   C17       1.0  0.39880  0.40350  0.97840  1.0000 -0.1902590988
C   C18       1.0  0.60120  0.59650  0.02160  1.0000 -0.1836412208
C   C19       1.0  0.45280  0.11380  0.84760  1.0000 0.0796372505
C   C20       1.0  0.54720  0.88620  0.15240  1.0000 0.0796372505
C   C21       1.0  0.08510  0.06630  0.88190  1.0000 -0.1978279645
C   C22       1.0  0.91490  0.93370  0.11810  1.0000 -0.1978279645
C   C23       1.0  0.77620  0.00650  0.48600  1.0000 0.0888564052
C   C24       1.0  0.22380  0.99350  0.51400  1.0000 0.0888564052
C   C25       1.0  0.46270  0.28860  0.72680  1.0000 -0.1978279645
C   C26       1.0  0.53730  0.71140  0.27320  1.0000 -0.1978279645
C   C27       1.0  0.20150  0.05310  0.81560  1.0000 0.0888564052
C   C28       1.0  0.79850  0.94690  0.18440  1.0000 0.0888564052
C   C29       1.0  0.94070  0.99680  0.51740  1.0000 0.1023305857
C   C30       1.0  0.05930  0.00320  0.48260  1.0000 0.1023305857
C   C31       1.0  0.48280  0.19440  0.68770  1.0000 0.0796372505
C   C32       1.0  0.51720  0.80560  0.31230  1.0000 0.0796372505
C   C33       1.0  0.39990  0.49370  0.81960  1.0000 -0.1902590988
C   C34       1.0  0.60010  0.50630  0.18040  1.0000 -0.1902590988
C   C35       1.0  0.43510  0.20470  0.89050  1.0000 -0.1902590988
C   C36       1.0  0.56490  0.79530  0.10950  1.0000 -0.1902590988
C   C37       1.0  0.88590  0.01570  0.45120  1.0000 -0.1902590988
C   C38       1.0  0.11410  0.98430  0.54880  1.0000 -0.1902590988
C   C39       1.0  0.37870  0.58570  0.86420  1.0000 0.0796372505
C   C40       1.0  0.62130  0.41430  0.13580  1.0000 0.0796372505
C   C41       1.0  0.91780  0.60750  0.60180  1.0000 -0.1902590988
C   C42       1.0  0.08220  0.39250  0.39820  1.0000 -0.1902590988
C   C43       1.0  0.37340  0.50040  0.01630  1.0000 0.0707288614
C   C44       1.0  0.62660  0.49960  0.98370  1.0000 0.0707288614
C   C45       1.0  0.81390  0.69690  0.63600  1.0000 0.0707288614
C   C46       1.0  0.18610  0.30310  0.36400  1.0000 0.0707288614
C   C47       1.0  0.77000  0.96450  0.64660  1.0000 0.0796372505
C   C48       1.0  0.23000  0.03550  0.35340  1.0000 0.0796372505
C   C49       1.0  0.87810  0.97260  0.61860  1.0000 -0.1978279645
C   C50       1.0  0.12190  0.02740  0.38140  1.0000 -0.1978279645
N   N1        1.0  0.29800  0.97300  0.82220  1.0000 -0.2701220981
N   N2        1.0  0.70200  0.02700  0.17780  1.0000 -0.2701220981
N   N3        1.0  0.47750  0.10540  0.74630  1.0000 -0.2982439505
N   N4        1.0  0.52250  0.89460  0.25370  1.0000 -0.2982439505
N   N5        1.0  0.73370  0.73370  0.59350  1.0000 -0.2701220981
N   N6        1.0  0.26630  0.26630  0.40650  1.0000 -0.2639321642
N   N7        1.0  0.71840  0.97810  0.58290  1.0000 -0.2701220981
N   N8        1.0  0.28160  0.02190  0.41710  1.0000 -0.2701220981
N   N9        1.0  0.36360  0.59250  0.96160  1.0000 -0.2701220981
N   N10       1.0  0.63640  0.40750  0.03840  1.0000 -0.2701220981
Cl  Cl1       1.0  0.37762  0.09439  0.57166  1.0000 -0.5879488247
Cl  Cl2       1.0  0.62238  0.90561  0.42834  1.0000 -0.5879488247
Cl  Cl3       1.0  0.57456  0.84105  0.83424  1.0000 -0.6191456871
Cl  Cl4       1.0  0.42544  0.15895  0.16576  1.0000 -0.6191456871
Cl  Cl5       1.0  0.42770  0.78323  0.64303  1.0000 -0.6123673873
Cl  Cl6       1.0  0.57230  0.21677  0.35697  1.0000 -0.6123673873
