# DDEC6 charges by PACMAN v1.1 (https://github.com/mtap-research/PACMAN-charge/)
data_2009[Cu][rho]3[ASR]1
_chemical_formula_sum              "Cu24 B24 H480 C384 N192"
_cell_length_a       26.8152
_cell_length_b       26.8152
_cell_length_c       26.8152
_cell_angle_alpha    90
_cell_angle_beta     90
_cell_angle_gamma    90

_symmetry_space_group_name_H-M    "P 1"
_symmetry_Int_Tables_number       1

loop_
  _symmetry_equiv_pos_as_xyz
  'x, y, z'

loop_
  _atom_site_type_symbol
  _atom_site_label
  _atom_site_symmetry_multiplicity
  _atom_site_fract_x
  _atom_site_fract_y
  _atom_site_fract_z
  _atom_site_occupancy
  _atom_site_charge
Cu  Cu1       1.0  0.24672  0.38951  0.10842  1.0000 0.2264441677
Cu  Cu2       1.0  0.75328  0.61049  0.10842  1.0000 0.2264441677
Cu  Cu3       1.0  0.75328  0.38951  0.89158  1.0000 0.2264441677
Cu  Cu4       1.0  0.24672  0.61049  0.89158  1.0000 0.2264441677
Cu  Cu5       1.0  0.10842  0.24672  0.38951  1.0000 0.2264441677
Cu  Cu6       1.0  0.10842  0.75328  0.61049  1.0000 0.2264441677
Cu  Cu7       1.0  0.89158  0.75328  0.38951  1.0000 0.2264441677
Cu  Cu8       1.0  0.89158  0.24672  0.61049  1.0000 0.2264441677
Cu  Cu9       1.0  0.38951  0.10842  0.24672  1.0000 0.2264441677
Cu  Cu10      1.0  0.61049  0.10842  0.75328  1.0000 0.2264441677
Cu  Cu11      1.0  0.38951  0.89158  0.75328  1.0000 0.2264441677
Cu  Cu12      1.0  0.61049  0.89158  0.24672  1.0000 0.2264441677
Cu  Cu13      1.0  0.38951  0.24672  0.89158  1.0000 0.2264441677
Cu  Cu14      1.0  0.61049  0.75328  0.89158  1.0000 0.2264441677
Cu  Cu15      1.0  0.38951  0.75328  0.10842  1.0000 0.2264441677
Cu  Cu16      1.0  0.61049  0.24672  0.10842  1.0000 0.2264441677
Cu  Cu17      1.0  0.24672  0.10842  0.61049  1.0000 0.2264441677
Cu  Cu18      1.0  0.75328  0.10842  0.38951  1.0000 0.2264441677
Cu  Cu19      1.0  0.75328  0.89158  0.61049  1.0000 0.2264441677
Cu  Cu20      1.0  0.24672  0.89158  0.38951  1.0000 0.2264441677
Cu  Cu21      1.0  0.10842  0.38951  0.75328  1.0000 0.2264441677
Cu  Cu22      1.0  0.10842  0.61049  0.24672  1.0000 0.2264441677
Cu  Cu23      1.0  0.89158  0.38951  0.24672  1.0000 0.2264441677
Cu  Cu24      1.0  0.89158  0.61049  0.75328  1.0000 0.2264441677
B   B1        1.0  0.09890  0.40114  0.24908  1.0000 0.4881298539
B   B2        1.0  0.90110  0.59886  0.24908  1.0000 0.4881298539
B   B3        1.0  0.90110  0.40114  0.75092  1.0000 0.4881298539
B   B4        1.0  0.09890  0.59886  0.75092  1.0000 0.4881298539
B   B5        1.0  0.24908  0.09890  0.40114  1.0000 0.4881298539
B   B6        1.0  0.24908  0.90110  0.59886  1.0000 0.4881298539
B   B7        1.0  0.75092  0.90110  0.40114  1.0000 0.4881298539
B   B8        1.0  0.75092  0.09890  0.59886  1.0000 0.4881298539
B   B9        1.0  0.40114  0.24908  0.09890  1.0000 0.4881298539
B   B10       1.0  0.59886  0.24908  0.90110  1.0000 0.4881298539
B   B11       1.0  0.40114  0.75092  0.90110  1.0000 0.4881298539
B   B12       1.0  0.59886  0.75092  0.09890  1.0000 0.4881298539
B   B13       1.0  0.40114  0.09890  0.75092  1.0000 0.4881298539
B   B14       1.0  0.59886  0.90110  0.75092  1.0000 0.4881298539
B   B15       1.0  0.40114  0.90110  0.24908  1.0000 0.4881298539
B   B16       1.0  0.59886  0.09890  0.24908  1.0000 0.4881298539
B   B17       1.0  0.09890  0.24908  0.59886  1.0000 0.4881298539
B   B18       1.0  0.90110  0.24908  0.40114  1.0000 0.4881298539
B   B19       1.0  0.90110  0.75092  0.59886  1.0000 0.4881298539
B   B20       1.0  0.09890  0.75092  0.40114  1.0000 0.4881298539
B   B21       1.0  0.24908  0.40114  0.90110  1.0000 0.4881298539
B   B22       1.0  0.24908  0.59886  0.09890  1.0000 0.4881298539
B   B23       1.0  0.75092  0.40114  0.09890  1.0000 0.4881298539
B   B24       1.0  0.75092  0.59886  0.90110  1.0000 0.4881298539
H   H1        1.0  0.18610  0.42680  0.19590  1.0000 0.1175559719
H   H2        1.0  0.81390  0.57320  0.19590  1.0000 0.1175559719
H   H3        1.0  0.81390  0.42680  0.80410  1.0000 0.1175559719
H   H4        1.0  0.18610  0.57320  0.80410  1.0000 0.1175559719
H   H5        1.0  0.19590  0.18610  0.42680  1.0000 0.1175559719
H   H6        1.0  0.19590  0.81390  0.57320  1.0000 0.1175559719
H   H7        1.0  0.80410  0.81390  0.42680  1.0000 0.1175559719
H   H8        1.0  0.80410  0.18610  0.57320  1.0000 0.1175559719
H   H9        1.0  0.42680  0.19590  0.18610  1.0000 0.1175559719
H   H10       1.0  0.57320  0.19590  0.81390  1.0000 0.1175559719
H   H11       1.0  0.42680  0.80410  0.81390  1.0000 0.1175559719
H   H12       1.0  0.57320  0.80410  0.18610  1.0000 0.1175559719
H   H13       1.0  0.42680  0.18610  0.80410  1.0000 0.1175559719
H   H14       1.0  0.57320  0.81390  0.80410  1.0000 0.1175559719
H   H15       1.0  0.42680  0.81390  0.19590  1.0000 0.1175559719
H   H16       1.0  0.57320  0.18610  0.19590  1.0000 0.1175559719
H   H17       1.0  0.18610  0.19590  0.57320  1.0000 0.1175559719
H   H18       1.0  0.81390  0.19590  0.42680  1.0000 0.1175559719
H   H19       1.0  0.81390  0.80410  0.57320  1.0000 0.1175559719
H   H20       1.0  0.18610  0.80410  0.42680  1.0000 0.1175559719
H   H21       1.0  0.19590  0.42680  0.81390  1.0000 0.1175559719
H   H22       1.0  0.19590  0.57320  0.18610  1.0000 0.1175559719
H   H23       1.0  0.80410  0.42680  0.18610  1.0000 0.1175559719
H   H24       1.0  0.80410  0.57320  0.81390  1.0000 0.1175559719
H   H25       1.0  0.10310  0.30410  0.19820  1.0000 0.1319678712
H   H26       1.0  0.89690  0.69590  0.19820  1.0000 0.1319678712
H   H27       1.0  0.89690  0.30410  0.80180  1.0000 0.1319678712
H   H28       1.0  0.10310  0.69590  0.80180  1.0000 0.1319678712
H   H29       1.0  0.19820  0.10310  0.30410  1.0000 0.1319678712
H   H30       1.0  0.19820  0.89690  0.69590  1.0000 0.1319678712
H   H31       1.0  0.80180  0.89690  0.30410  1.0000 0.1319678712
H   H32       1.0  0.80180  0.10310  0.69590  1.0000 0.1319678712
H   H33       1.0  0.30410  0.19820  0.10310  1.0000 0.1319678712
H   H34       1.0  0.69590  0.19820  0.89690  1.0000 0.1319678712
H   H35       1.0  0.30410  0.80180  0.89690  1.0000 0.1319678712
H   H36       1.0  0.69590  0.80180  0.10310  1.0000 0.1319678712
H   H37       1.0  0.30410  0.10310  0.80180  1.0000 0.1319678712
H   H38       1.0  0.69590  0.89690  0.80180  1.0000 0.1319678712
H   H39       1.0  0.30410  0.89690  0.19820  1.0000 0.1319678712
H   H40       1.0  0.69590  0.10310  0.19820  1.0000 0.1319678712
H   H41       1.0  0.10310  0.19820  0.69590  1.0000 0.1319678712
H   H42       1.0  0.89690  0.19820  0.30410  1.0000 0.1319678712
H   H43       1.0  0.89690  0.80180  0.69590  1.0000 0.1319678712
H   H44       1.0  0.10310  0.80180  0.30410  1.0000 0.1319678712
H   H45       1.0  0.19820  0.30410  0.89690  1.0000 0.1319678712
H   H46       1.0  0.19820  0.69590  0.10310  1.0000 0.1319678712
H   H47       1.0  0.80180  0.30410  0.10310  1.0000 0.1319678712
H   H48       1.0  0.80180  0.69590  0.89690  1.0000 0.1319678712
H   H49       1.0  0.16220  0.24730  0.13830  1.0000 0.1378905805
H   H50       1.0  0.83780  0.75270  0.13830  1.0000 0.1378905805
H   H51       1.0  0.83780  0.24730  0.86170  1.0000 0.1378905805
H   H52       1.0  0.16220  0.75270  0.86170  1.0000 0.1378905805
H   H53       1.0  0.13830  0.16220  0.24730  1.0000 0.1378905805
H   H54       1.0  0.13830  0.83780  0.75270  1.0000 0.1378905805
H   H55       1.0  0.86170  0.83780  0.24730  1.0000 0.1378905805
H   H56       1.0  0.86170  0.16220  0.75270  1.0000 0.1378905805
H   H57       1.0  0.24730  0.13830  0.16220  1.0000 0.1378905805
H   H58       1.0  0.75270  0.13830  0.83780  1.0000 0.1378905805
H   H59       1.0  0.24730  0.86170  0.83780  1.0000 0.1378905805
H   H60       1.0  0.75270  0.86170  0.16220  1.0000 0.1378905805
H   H61       1.0  0.24730  0.16220  0.86170  1.0000 0.1378905805
H   H62       1.0  0.75270  0.83780  0.86170  1.0000 0.1378905805
H   H63       1.0  0.24730  0.83780  0.13830  1.0000 0.1378905805
H   H64       1.0  0.75270  0.16220  0.13830  1.0000 0.1378905805
H   H65       1.0  0.16220  0.13830  0.75270  1.0000 0.1378905805
H   H66       1.0  0.83780  0.13830  0.24730  1.0000 0.1378905805
H   H67       1.0  0.83780  0.86170  0.75270  1.0000 0.1378905805
H   H68       1.0  0.16220  0.86170  0.24730  1.0000 0.1378905805
H   H69       1.0  0.13830  0.24730  0.83780  1.0000 0.1378905805
H   H70       1.0  0.13830  0.75270  0.16220  1.0000 0.1378905805
H   H71       1.0  0.86170  0.24730  0.16220  1.0000 0.1378905805
H   H72       1.0  0.86170  0.75270  0.83780  1.0000 0.1378905805
H   H73       1.0  0.21490  0.27200  0.12510  1.0000 0.1319678712
H   H74       1.0  0.78510  0.72800  0.12510  1.0000 0.1319678712
H   H75       1.0  0.78510  0.27200  0.87490  1.0000 0.1319678712
H   H76       1.0  0.21490  0.72800  0.87490  1.0000 0.1319678712
H   H77       1.0  0.12510  0.21490  0.27200  1.0000 0.1319678712
H   H78       1.0  0.12510  0.78510  0.72800  1.0000 0.1319678712
H   H79       1.0  0.87490  0.78510  0.27200  1.0000 0.1319678712
H   H80       1.0  0.87490  0.21490  0.72800  1.0000 0.1319678712
H   H81       1.0  0.27200  0.12510  0.21490  1.0000 0.1319678712
H   H82       1.0  0.72800  0.12510  0.78510  1.0000 0.1319678712
H   H83       1.0  0.27200  0.87490  0.78510  1.0000 0.1319678712
H   H84       1.0  0.72800  0.87490  0.21490  1.0000 0.1319678712
H   H85       1.0  0.27200  0.21490  0.87490  1.0000 0.1319678712
H   H86       1.0  0.72800  0.78510  0.87490  1.0000 0.1319678712
H   H87       1.0  0.27200  0.78510  0.12510  1.0000 0.1319678712
H   H88       1.0  0.72800  0.21490  0.12510  1.0000 0.1319678712
H   H89       1.0  0.21490  0.12510  0.72800  1.0000 0.1319678712
H   H90       1.0  0.78510  0.12510  0.27200  1.0000 0.1319678712
H   H91       1.0  0.78510  0.87490  0.72800  1.0000 0.1319678712
H   H92       1.0  0.21490  0.87490  0.27200  1.0000 0.1319678712
H   H93       1.0  0.12510  0.27200  0.78510  1.0000 0.1319678712
H   H94       1.0  0.12510  0.72800  0.21490  1.0000 0.1319678712
H   H95       1.0  0.87490  0.27200  0.21490  1.0000 0.1319678712
H   H96       1.0  0.87490  0.72800  0.78510  1.0000 0.1319678712
H   H97       1.0  0.16730  0.28300  0.09070  1.0000 0.1490462444
H   H98       1.0  0.83270  0.71700  0.09070  1.0000 0.1490462444
H   H99       1.0  0.83270  0.28300  0.90930  1.0000 0.1490462444
H   H100      1.0  0.16730  0.71700  0.90930  1.0000 0.1490462444
H   H101      1.0  0.09070  0.16730  0.28300  1.0000 0.1490462444
H   H102      1.0  0.09070  0.83270  0.71700  1.0000 0.1490462444
H   H103      1.0  0.90930  0.83270  0.28300  1.0000 0.1490462444
H   H104      1.0  0.90930  0.16730  0.71700  1.0000 0.1490462444
H   H105      1.0  0.28300  0.09070  0.16730  1.0000 0.1490462444
H   H106      1.0  0.71700  0.09070  0.83270  1.0000 0.1490462444
H   H107      1.0  0.28300  0.90930  0.83270  1.0000 0.1490462444
H   H108      1.0  0.71700  0.90930  0.16730  1.0000 0.1490462444
H   H109      1.0  0.28300  0.16730  0.90930  1.0000 0.1490462444
H   H110      1.0  0.71700  0.83270  0.90930  1.0000 0.1490462444
H   H111      1.0  0.28300  0.83270  0.09070  1.0000 0.1490462444
H   H112      1.0  0.71700  0.16730  0.09070  1.0000 0.1490462444
H   H113      1.0  0.16730  0.09070  0.71700  1.0000 0.1490462444
H   H114      1.0  0.83270  0.09070  0.28300  1.0000 0.1490462444
H   H115      1.0  0.83270  0.90930  0.71700  1.0000 0.1490462444
H   H116      1.0  0.16730  0.90930  0.28300  1.0000 0.1490462444
H   H117      1.0  0.09070  0.28300  0.83270  1.0000 0.1490462444
H   H118      1.0  0.09070  0.71700  0.16730  1.0000 0.1490462444
H   H119      1.0  0.90930  0.28300  0.16730  1.0000 0.1490462444
H   H120      1.0  0.90930  0.71700  0.83270  1.0000 0.1490462444
H   H121      1.0  0.07080  0.50100  0.22440  1.0000 0.1102878776
H   H122      1.0  0.92920  0.49900  0.22440  1.0000 0.1102878776
H   H123      1.0  0.92920  0.50100  0.77560  1.0000 0.1102878776
H   H124      1.0  0.07080  0.49900  0.77560  1.0000 0.1102878776
H   H125      1.0  0.22440  0.07080  0.50100  1.0000 0.1102878776
H   H126      1.0  0.22440  0.92920  0.49900  1.0000 0.1102878776
H   H127      1.0  0.77560  0.92920  0.50100  1.0000 0.1102878776
H   H128      1.0  0.77560  0.07080  0.49900  1.0000 0.1102878776
H   H129      1.0  0.50100  0.22440  0.07080  1.0000 0.1102878776
H   H130      1.0  0.49900  0.22440  0.92920  1.0000 0.1102878776
H   H131      1.0  0.50100  0.77560  0.92920  1.0000 0.1102878776
H   H132      1.0  0.49900  0.77560  0.07080  1.0000 0.1102878776
H   H133      1.0  0.50100  0.07080  0.77560  1.0000 0.1102878776
H   H134      1.0  0.49900  0.92920  0.77560  1.0000 0.1102878776
H   H135      1.0  0.50100  0.92920  0.22440  1.0000 0.1102878776
H   H136      1.0  0.49900  0.07080  0.22440  1.0000 0.1102878776
H   H137      1.0  0.07080  0.22440  0.49900  1.0000 0.1102878776
H   H138      1.0  0.92920  0.22440  0.50100  1.0000 0.1102878776
H   H139      1.0  0.92920  0.77560  0.49900  1.0000 0.1102878776
H   H140      1.0  0.07080  0.77560  0.50100  1.0000 0.1102878776
H   H141      1.0  0.22440  0.50100  0.92920  1.0000 0.1102878776
H   H142      1.0  0.22440  0.49900  0.07080  1.0000 0.1102878776
H   H143      1.0  0.77560  0.50100  0.07080  1.0000 0.1102878776
H   H144      1.0  0.77560  0.49900  0.92920  1.0000 0.1102878776
H   H145      1.0  0.18380  0.44270  0.30070  1.0000 0.1378905805
H   H146      1.0  0.81620  0.55730  0.30070  1.0000 0.1378905805
H   H147      1.0  0.81620  0.44270  0.69930  1.0000 0.1378905805
H   H148      1.0  0.18380  0.55730  0.69930  1.0000 0.1378905805
H   H149      1.0  0.30070  0.18380  0.44270  1.0000 0.1378905805
H   H150      1.0  0.30070  0.81620  0.55730  1.0000 0.1378905805
H   H151      1.0  0.69930  0.81620  0.44270  1.0000 0.1378905805
H   H152      1.0  0.69930  0.18380  0.55730  1.0000 0.1378905805
H   H153      1.0  0.44270  0.30070  0.18380  1.0000 0.1378905805
H   H154      1.0  0.55730  0.30070  0.81620  1.0000 0.1378905805
H   H155      1.0  0.44270  0.69930  0.81620  1.0000 0.1378905805
H   H156      1.0  0.55730  0.69930  0.18380  1.0000 0.1378905805
H   H157      1.0  0.44270  0.18380  0.69930  1.0000 0.1378905805
H   H158      1.0  0.55730  0.81620  0.69930  1.0000 0.1378905805
H   H159      1.0  0.44270  0.81620  0.30070  1.0000 0.1378905805
H   H160      1.0  0.55730  0.18380  0.30070  1.0000 0.1378905805
H   H161      1.0  0.18380  0.30070  0.55730  1.0000 0.1378905805
H   H162      1.0  0.81620  0.30070  0.44270  1.0000 0.1378905805
H   H163      1.0  0.81620  0.69930  0.55730  1.0000 0.1378905805
H   H164      1.0  0.18380  0.69930  0.44270  1.0000 0.1378905805
H   H165      1.0  0.30070  0.44270  0.81620  1.0000 0.1378905805
H   H166      1.0  0.30070  0.55730  0.18380  1.0000 0.1378905805
H   H167      1.0  0.69930  0.44270  0.18380  1.0000 0.1378905805
H   H168      1.0  0.69930  0.55730  0.81620  1.0000 0.1378905805
H   H169      1.0  0.23310  0.52600  0.31980  1.0000 0.1378905805
H   H170      1.0  0.76690  0.47400  0.31980  1.0000 0.1378905805
H   H171      1.0  0.76690  0.52600  0.68020  1.0000 0.1378905805
H   H172      1.0  0.23310  0.47400  0.68020  1.0000 0.1378905805
H   H173      1.0  0.31980  0.23310  0.52600  1.0000 0.1378905805
H   H174      1.0  0.31980  0.76690  0.47400  1.0000 0.1378905805
H   H175      1.0  0.68020  0.76690  0.52600  1.0000 0.1378905805
H   H176      1.0  0.68020  0.23310  0.47400  1.0000 0.1378905805
H   H177      1.0  0.52600  0.31980  0.23310  1.0000 0.1378905805
H   H178      1.0  0.47400  0.31980  0.76690  1.0000 0.1378905805
H   H179      1.0  0.52600  0.68020  0.76690  1.0000 0.1378905805
H   H180      1.0  0.47400  0.68020  0.23310  1.0000 0.1378905805
H   H181      1.0  0.52600  0.23310  0.68020  1.0000 0.1378905805
H   H182      1.0  0.47400  0.76690  0.68020  1.0000 0.1378905805
H   H183      1.0  0.52600  0.76690  0.31980  1.0000 0.1378905805
H   H184      1.0  0.47400  0.23310  0.31980  1.0000 0.1378905805
H   H185      1.0  0.23310  0.31980  0.47400  1.0000 0.1378905805
H   H186      1.0  0.76690  0.31980  0.52600  1.0000 0.1378905805
H   H187      1.0  0.76690  0.68020  0.47400  1.0000 0.1378905805
H   H188      1.0  0.23310  0.68020  0.52600  1.0000 0.1378905805
H   H189      1.0  0.31980  0.52600  0.76690  1.0000 0.1378905805
H   H190      1.0  0.31980  0.47400  0.23310  1.0000 0.1378905805
H   H191      1.0  0.68020  0.52600  0.23310  1.0000 0.1378905805
H   H192      1.0  0.68020  0.47400  0.76690  1.0000 0.1378905805
H   H193      1.0  0.19370  0.57020  0.32790  1.0000 0.1490462444
H   H194      1.0  0.80630  0.42980  0.32790  1.0000 0.1490462444
H   H195      1.0  0.80630  0.57020  0.67210  1.0000 0.1490462444
H   H196      1.0  0.19370  0.42980  0.67210  1.0000 0.1490462444
H   H197      1.0  0.32790  0.19370  0.57020  1.0000 0.1490462444
H   H198      1.0  0.32790  0.80630  0.42980  1.0000 0.1490462444
H   H199      1.0  0.67210  0.80630  0.57020  1.0000 0.1490462444
H   H200      1.0  0.67210  0.19370  0.42980  1.0000 0.1490462444
H   H201      1.0  0.57020  0.32790  0.19370  1.0000 0.1490462444
H   H202      1.0  0.42980  0.32790  0.80630  1.0000 0.1490462444
H   H203      1.0  0.57020  0.67210  0.80630  1.0000 0.1490462444
H   H204      1.0  0.42980  0.67210  0.19370  1.0000 0.1490462444
H   H205      1.0  0.57020  0.19370  0.67210  1.0000 0.1490462444
H   H206      1.0  0.42980  0.80630  0.67210  1.0000 0.1490462444
H   H207      1.0  0.57020  0.80630  0.32790  1.0000 0.1490462444
H   H208      1.0  0.42980  0.19370  0.32790  1.0000 0.1490462444
H   H209      1.0  0.19370  0.32790  0.42980  1.0000 0.1490462444
H   H210      1.0  0.80630  0.32790  0.57020  1.0000 0.1490462444
H   H211      1.0  0.80630  0.67210  0.42980  1.0000 0.1490462444
H   H212      1.0  0.19370  0.67210  0.57020  1.0000 0.1490462444
H   H213      1.0  0.32790  0.57020  0.80630  1.0000 0.1490462444
H   H214      1.0  0.32790  0.42980  0.19370  1.0000 0.1490462444
H   H215      1.0  0.67210  0.57020  0.19370  1.0000 0.1490462444
H   H216      1.0  0.67210  0.42980  0.80630  1.0000 0.1490462444
H   H217      1.0  0.22410  0.56630  0.27670  1.0000 0.1378905805
H   H218      1.0  0.77590  0.43370  0.27670  1.0000 0.1378905805
H   H219      1.0  0.77590  0.56630  0.72330  1.0000 0.1378905805
H   H220      1.0  0.22410  0.43370  0.72330  1.0000 0.1378905805
H   H221      1.0  0.27670  0.22410  0.56630  1.0000 0.1378905805
H   H222      1.0  0.27670  0.77590  0.43370  1.0000 0.1378905805
H   H223      1.0  0.72330  0.77590  0.56630  1.0000 0.1378905805
H   H224      1.0  0.72330  0.22410  0.43370  1.0000 0.1378905805
H   H225      1.0  0.56630  0.27670  0.22410  1.0000 0.1378905805
H   H226      1.0  0.43370  0.27670  0.77590  1.0000 0.1378905805
H   H227      1.0  0.56630  0.72330  0.77590  1.0000 0.1378905805
H   H228      1.0  0.43370  0.72330  0.22410  1.0000 0.1378905805
H   H229      1.0  0.56630  0.22410  0.72330  1.0000 0.1378905805
H   H230      1.0  0.43370  0.77590  0.72330  1.0000 0.1378905805
H   H231      1.0  0.56630  0.77590  0.27670  1.0000 0.1378905805
H   H232      1.0  0.43370  0.22410  0.27670  1.0000 0.1378905805
H   H233      1.0  0.22410  0.27670  0.43370  1.0000 0.1378905805
H   H234      1.0  0.77590  0.27670  0.56630  1.0000 0.1378905805
H   H235      1.0  0.77590  0.72330  0.43370  1.0000 0.1378905805
H   H236      1.0  0.22410  0.72330  0.56630  1.0000 0.1378905805
H   H237      1.0  0.27670  0.56630  0.77590  1.0000 0.1378905805
H   H238      1.0  0.27670  0.43370  0.22410  1.0000 0.1378905805
H   H239      1.0  0.72330  0.56630  0.22410  1.0000 0.1378905805
H   H240      1.0  0.72330  0.43370  0.77590  1.0000 0.1378905805
H   H241      1.0  0.12210  0.30290  0.28780  1.0000 0.1102878776
H   H242      1.0  0.87790  0.69710  0.28780  1.0000 0.1102878776
H   H243      1.0  0.87790  0.30290  0.71220  1.0000 0.1102878776
H   H244      1.0  0.12210  0.69710  0.71220  1.0000 0.1102878776
H   H245      1.0  0.28780  0.12210  0.30290  1.0000 0.1102878776
H   H246      1.0  0.28780  0.87790  0.69710  1.0000 0.1102878776
H   H247      1.0  0.71220  0.87790  0.30290  1.0000 0.1102878776
H   H248      1.0  0.71220  0.12210  0.69710  1.0000 0.1102878776
H   H249      1.0  0.30290  0.28780  0.12210  1.0000 0.1102878776
H   H250      1.0  0.69710  0.28780  0.87790  1.0000 0.1102878776
H   H251      1.0  0.30290  0.71220  0.87790  1.0000 0.1102878776
H   H252      1.0  0.69710  0.71220  0.12210  1.0000 0.1102878776
H   H253      1.0  0.30290  0.12210  0.71220  1.0000 0.1102878776
H   H254      1.0  0.69710  0.87790  0.71220  1.0000 0.1102878776
H   H255      1.0  0.30290  0.87790  0.28780  1.0000 0.1102878776
H   H256      1.0  0.69710  0.12210  0.28780  1.0000 0.1102878776
H   H257      1.0  0.12210  0.28780  0.69710  1.0000 0.1102878776
H   H258      1.0  0.87790  0.28780  0.30290  1.0000 0.1102878776
H   H259      1.0  0.87790  0.71220  0.69710  1.0000 0.1102878776
H   H260      1.0  0.12210  0.71220  0.30290  1.0000 0.1102878776
H   H261      1.0  0.28780  0.30290  0.87790  1.0000 0.1102878776
H   H262      1.0  0.28780  0.69710  0.12210  1.0000 0.1102878776
H   H263      1.0  0.71220  0.30290  0.12210  1.0000 0.1102878776
H   H264      1.0  0.71220  0.69710  0.87790  1.0000 0.1102878776
H   H265      1.0  0.06870  0.42710  0.34860  1.0000 0.1378905805
H   H266      1.0  0.93130  0.57290  0.34860  1.0000 0.1378905805
H   H267      1.0  0.93130  0.42710  0.65140  1.0000 0.1378905805
H   H268      1.0  0.06870  0.57290  0.65140  1.0000 0.1378905805
H   H269      1.0  0.34860  0.06870  0.42710  1.0000 0.1378905805
H   H270      1.0  0.34860  0.93130  0.57290  1.0000 0.1378905805
H   H271      1.0  0.65140  0.93130  0.42710  1.0000 0.1378905805
H   H272      1.0  0.65140  0.06870  0.57290  1.0000 0.1378905805
H   H273      1.0  0.42710  0.34860  0.06870  1.0000 0.1378905805
H   H274      1.0  0.57290  0.34860  0.93130  1.0000 0.1378905805
H   H275      1.0  0.42710  0.65140  0.93130  1.0000 0.1378905805
H   H276      1.0  0.57290  0.65140  0.06870  1.0000 0.1378905805
H   H277      1.0  0.42710  0.06870  0.65140  1.0000 0.1378905805
H   H278      1.0  0.57290  0.93130  0.65140  1.0000 0.1378905805
H   H279      1.0  0.42710  0.93130  0.34860  1.0000 0.1378905805
H   H280      1.0  0.57290  0.06870  0.34860  1.0000 0.1378905805
H   H281      1.0  0.06870  0.34860  0.57290  1.0000 0.1378905805
H   H282      1.0  0.93130  0.34860  0.42710  1.0000 0.1378905805
H   H283      1.0  0.93130  0.65140  0.57290  1.0000 0.1378905805
H   H284      1.0  0.06870  0.65140  0.42710  1.0000 0.1378905805
H   H285      1.0  0.34860  0.42710  0.93130  1.0000 0.1378905805
H   H286      1.0  0.34860  0.57290  0.06870  1.0000 0.1378905805
H   H287      1.0  0.65140  0.42710  0.06870  1.0000 0.1378905805
H   H288      1.0  0.65140  0.57290  0.93130  1.0000 0.1378905805
H   H289      1.0  0.05320  0.39580  0.43930  1.0000 0.1490462444
H   H290      1.0  0.94680  0.60420  0.43930  1.0000 0.1490462444
H   H291      1.0  0.94680  0.39580  0.56070  1.0000 0.1490462444
H   H292      1.0  0.05320  0.60420  0.56070  1.0000 0.1490462444
H   H293      1.0  0.43930  0.05320  0.39580  1.0000 0.1490462444
H   H294      1.0  0.43930  0.94680  0.60420  1.0000 0.1490462444
H   H295      1.0  0.56070  0.94680  0.39580  1.0000 0.1490462444
H   H296      1.0  0.56070  0.05320  0.60420  1.0000 0.1490462444
H   H297      1.0  0.39580  0.43930  0.05320  1.0000 0.1490462444
H   H298      1.0  0.60420  0.43930  0.94680  1.0000 0.1490462444
H   H299      1.0  0.39580  0.56070  0.94680  1.0000 0.1490462444
H   H300      1.0  0.60420  0.56070  0.05320  1.0000 0.1490462444
H   H301      1.0  0.39580  0.05320  0.56070  1.0000 0.1490462444
H   H302      1.0  0.60420  0.94680  0.56070  1.0000 0.1490462444
H   H303      1.0  0.39580  0.94680  0.43930  1.0000 0.1490462444
H   H304      1.0  0.60420  0.05320  0.43930  1.0000 0.1490462444
H   H305      1.0  0.05320  0.43930  0.60420  1.0000 0.1490462444
H   H306      1.0  0.94680  0.43930  0.39580  1.0000 0.1490462444
H   H307      1.0  0.94680  0.56070  0.60420  1.0000 0.1490462444
H   H308      1.0  0.05320  0.56070  0.39580  1.0000 0.1490462444
H   H309      1.0  0.43930  0.39580  0.94680  1.0000 0.1490462444
H   H310      1.0  0.43930  0.60420  0.05320  1.0000 0.1490462444
H   H311      1.0  0.56070  0.39580  0.05320  1.0000 0.1490462444
H   H312      1.0  0.56070  0.60420  0.94680  1.0000 0.1490462444
H   H313      1.0  0.09800  0.35920  0.45410  1.0000 0.1576225456
H   H314      1.0  0.90200  0.64080  0.45410  1.0000 0.1576225456
H   H315      1.0  0.90200  0.35920  0.54590  1.0000 0.1576225456
H   H316      1.0  0.09800  0.64080  0.54590  1.0000 0.1576225456
H   H317      1.0  0.45410  0.09800  0.35920  1.0000 0.1576225456
H   H318      1.0  0.45410  0.90200  0.64080  1.0000 0.1576225456
H   H319      1.0  0.54590  0.90200  0.35920  1.0000 0.1576225456
H   H320      1.0  0.54590  0.09800  0.64080  1.0000 0.1576225456
H   H321      1.0  0.35920  0.45410  0.09800  1.0000 0.1576225456
H   H322      1.0  0.64080  0.45410  0.90200  1.0000 0.1576225456
H   H323      1.0  0.35920  0.54590  0.90200  1.0000 0.1576225456
H   H324      1.0  0.64080  0.54590  0.09800  1.0000 0.1576225456
H   H325      1.0  0.35920  0.09800  0.54590  1.0000 0.1576225456
H   H326      1.0  0.64080  0.90200  0.54590  1.0000 0.1576225456
H   H327      1.0  0.35920  0.90200  0.45410  1.0000 0.1576225456
H   H328      1.0  0.64080  0.09800  0.45410  1.0000 0.1576225456
H   H329      1.0  0.09800  0.45410  0.64080  1.0000 0.1576225456
H   H330      1.0  0.90200  0.45410  0.35920  1.0000 0.1576225456
H   H331      1.0  0.90200  0.54590  0.64080  1.0000 0.1576225456
H   H332      1.0  0.09800  0.54590  0.35920  1.0000 0.1576225456
H   H333      1.0  0.45410  0.35920  0.90200  1.0000 0.1576225456
H   H334      1.0  0.45410  0.64080  0.09800  1.0000 0.1576225456
H   H335      1.0  0.54590  0.35920  0.09800  1.0000 0.1576225456
H   H336      1.0  0.54590  0.64080  0.90200  1.0000 0.1576225456
H   H337      1.0  0.04400  0.33690  0.44180  1.0000 0.1378905805
H   H338      1.0  0.95600  0.66310  0.44180  1.0000 0.1378905805
H   H339      1.0  0.95600  0.33690  0.55820  1.0000 0.1378905805
H   H340      1.0  0.04400  0.66310  0.55820  1.0000 0.1378905805
H   H341      1.0  0.44180  0.04400  0.33690  1.0000 0.1378905805
H   H342      1.0  0.44180  0.95600  0.66310  1.0000 0.1378905805
H   H343      1.0  0.55820  0.95600  0.33690  1.0000 0.1378905805
H   H344      1.0  0.55820  0.04400  0.66310  1.0000 0.1378905805
H   H345      1.0  0.33690  0.44180  0.04400  1.0000 0.1378905805
H   H346      1.0  0.66310  0.44180  0.95600  1.0000 0.1378905805
H   H347      1.0  0.33690  0.55820  0.95600  1.0000 0.1378905805
H   H348      1.0  0.66310  0.55820  0.04400  1.0000 0.1378905805
H   H349      1.0  0.33690  0.04400  0.55820  1.0000 0.1378905805
H   H350      1.0  0.66310  0.95600  0.55820  1.0000 0.1378905805
H   H351      1.0  0.33690  0.95600  0.44180  1.0000 0.1378905805
H   H352      1.0  0.66310  0.04400  0.44180  1.0000 0.1378905805
H   H353      1.0  0.04400  0.44180  0.66310  1.0000 0.1378905805
H   H354      1.0  0.95600  0.44180  0.33690  1.0000 0.1378905805
H   H355      1.0  0.95600  0.55820  0.66310  1.0000 0.1378905805
H   H356      1.0  0.04400  0.55820  0.33690  1.0000 0.1378905805
H   H357      1.0  0.44180  0.33690  0.95600  1.0000 0.1378905805
H   H358      1.0  0.44180  0.66310  0.04400  1.0000 0.1378905805
H   H359      1.0  0.55820  0.33690  0.04400  1.0000 0.1378905805
H   H360      1.0  0.55820  0.66310  0.95600  1.0000 0.1378905805
H   H361      1.0  0.00070  0.37970  0.28280  1.0000 0.1102878776
H   H362      1.0  0.99930  0.62030  0.28280  1.0000 0.1102878776
H   H363      1.0  0.99930  0.37970  0.71720  1.0000 0.1102878776
H   H364      1.0  0.00070  0.62030  0.71720  1.0000 0.1102878776
H   H365      1.0  0.28280  0.00070  0.37970  1.0000 0.1102878776
H   H366      1.0  0.28280  0.99930  0.62030  1.0000 0.1102878776
H   H367      1.0  0.71720  0.99930  0.37970  1.0000 0.1102878776
H   H368      1.0  0.71720  0.00070  0.62030  1.0000 0.1102878776
H   H369      1.0  0.37970  0.28280  0.00070  1.0000 0.1102878776
H   H370      1.0  0.62030  0.28280  0.99930  1.0000 0.1102878776
H   H371      1.0  0.37970  0.71720  0.99930  1.0000 0.1102878776
H   H372      1.0  0.62030  0.71720  0.00070  1.0000 0.1102878776
H   H373      1.0  0.37970  0.00070  0.71720  1.0000 0.1102878776
H   H374      1.0  0.62030  0.99930  0.71720  1.0000 0.1102878776
H   H375      1.0  0.37970  0.99930  0.28280  1.0000 0.1102878776
H   H376      1.0  0.62030  0.00070  0.28280  1.0000 0.1102878776
H   H377      1.0  0.00070  0.28280  0.62030  1.0000 0.1102878776
H   H378      1.0  0.99930  0.28280  0.37970  1.0000 0.1102878776
H   H379      1.0  0.99930  0.71720  0.62030  1.0000 0.1102878776
H   H380      1.0  0.00070  0.71720  0.37970  1.0000 0.1102878776
H   H381      1.0  0.28280  0.37970  0.99930  1.0000 0.1102878776
H   H382      1.0  0.28280  0.62030  0.00070  1.0000 0.1102878776
H   H383      1.0  0.71720  0.37970  0.00070  1.0000 0.1102878776
H   H384      1.0  0.71720  0.62030  0.99930  1.0000 0.1102878776
H   H385      1.0  0.05460  0.42570  0.15300  1.0000 0.1378905805
H   H386      1.0  0.94540  0.57430  0.15300  1.0000 0.1378905805
H   H387      1.0  0.94540  0.42570  0.84700  1.0000 0.1378905805
H   H388      1.0  0.05460  0.57430  0.84700  1.0000 0.1378905805
H   H389      1.0  0.15300  0.05460  0.42570  1.0000 0.1378905805
H   H390      1.0  0.15300  0.94540  0.57430  1.0000 0.1378905805
H   H391      1.0  0.84700  0.94540  0.42570  1.0000 0.1378905805
H   H392      1.0  0.84700  0.05460  0.57430  1.0000 0.1378905805
H   H393      1.0  0.42570  0.15300  0.05460  1.0000 0.1378905805
H   H394      1.0  0.57430  0.15300  0.94540  1.0000 0.1378905805
H   H395      1.0  0.42570  0.84700  0.94540  1.0000 0.1378905805
H   H396      1.0  0.57430  0.84700  0.05460  1.0000 0.1378905805
H   H397      1.0  0.42570  0.05460  0.84700  1.0000 0.1378905805
H   H398      1.0  0.57430  0.94540  0.84700  1.0000 0.1378905805
H   H399      1.0  0.42570  0.94540  0.15300  1.0000 0.1378905805
H   H400      1.0  0.57430  0.05460  0.15300  1.0000 0.1378905805
H   H401      1.0  0.05460  0.15300  0.57430  1.0000 0.1378905805
H   H402      1.0  0.94540  0.15300  0.42570  1.0000 0.1378905805
H   H403      1.0  0.94540  0.84700  0.57430  1.0000 0.1378905805
H   H404      1.0  0.05460  0.84700  0.42570  1.0000 0.1378905805
H   H405      1.0  0.15300  0.42570  0.94540  1.0000 0.1378905805
H   H406      1.0  0.15300  0.57430  0.05460  1.0000 0.1378905805
H   H407      1.0  0.84700  0.42570  0.05460  1.0000 0.1378905805
H   H408      1.0  0.84700  0.57430  0.94540  1.0000 0.1378905805
H   H409      1.0  0.92880  0.39380  0.12390  1.0000 0.1576225456
H   H410      1.0  0.07120  0.60620  0.12390  1.0000 0.1576225456
H   H411      1.0  0.07120  0.39380  0.87610  1.0000 0.1576225456
H   H412      1.0  0.92880  0.60620  0.87610  1.0000 0.1576225456
H   H413      1.0  0.12390  0.92880  0.39380  1.0000 0.1576225456
H   H414      1.0  0.12390  0.07120  0.60620  1.0000 0.1576225456
H   H415      1.0  0.87610  0.07120  0.39380  1.0000 0.1576225456
H   H416      1.0  0.87610  0.92880  0.60620  1.0000 0.1576225456
H   H417      1.0  0.39380  0.12390  0.92880  1.0000 0.1576225456
H   H418      1.0  0.60620  0.12390  0.07120  1.0000 0.1576225456
H   H419      1.0  0.39380  0.87610  0.07120  1.0000 0.1576225456
H   H420      1.0  0.60620  0.87610  0.92880  1.0000 0.1576225456
H   H421      1.0  0.39380  0.92880  0.87610  1.0000 0.1576225456
H   H422      1.0  0.60620  0.07120  0.87610  1.0000 0.1576225456
H   H423      1.0  0.39380  0.07120  0.12390  1.0000 0.1576225456
H   H424      1.0  0.60620  0.92880  0.12390  1.0000 0.1576225456
H   H425      1.0  0.92880  0.12390  0.60620  1.0000 0.1576225456
H   H426      1.0  0.07120  0.12390  0.39380  1.0000 0.1576225456
H   H427      1.0  0.07120  0.87610  0.60620  1.0000 0.1576225456
H   H428      1.0  0.92880  0.87610  0.39380  1.0000 0.1576225456
H   H429      1.0  0.12390  0.39380  0.07120  1.0000 0.1576225456
H   H430      1.0  0.12390  0.60620  0.92880  1.0000 0.1576225456
H   H431      1.0  0.87610  0.39380  0.92880  1.0000 0.1576225456
H   H432      1.0  0.87610  0.60620  0.07120  1.0000 0.1576225456
H   H433      1.0  0.96950  0.43150  0.10220  1.0000 0.1490462444
H   H434      1.0  0.03050  0.56850  0.10220  1.0000 0.1490462444
H   H435      1.0  0.03050  0.43150  0.89780  1.0000 0.1490462444
H   H436      1.0  0.96950  0.56850  0.89780  1.0000 0.1490462444
H   H437      1.0  0.10220  0.96950  0.43150  1.0000 0.1490462444
H   H438      1.0  0.10220  0.03050  0.56850  1.0000 0.1490462444
H   H439      1.0  0.89780  0.03050  0.43150  1.0000 0.1490462444
H   H440      1.0  0.89780  0.96950  0.56850  1.0000 0.1490462444
H   H441      1.0  0.43150  0.10220  0.96950  1.0000 0.1490462444
H   H442      1.0  0.56850  0.10220  0.03050  1.0000 0.1490462444
H   H443      1.0  0.43150  0.89780  0.03050  1.0000 0.1490462444
H   H444      1.0  0.56850  0.89780  0.96950  1.0000 0.1490462444
H   H445      1.0  0.43150  0.96950  0.89780  1.0000 0.1490462444
H   H446      1.0  0.56850  0.03050  0.89780  1.0000 0.1490462444
H   H447      1.0  0.43150  0.03050  0.10220  1.0000 0.1490462444
H   H448      1.0  0.56850  0.96950  0.10220  1.0000 0.1490462444
H   H449      1.0  0.96950  0.10220  0.56850  1.0000 0.1490462444
H   H450      1.0  0.03050  0.10220  0.43150  1.0000 0.1490462444
H   H451      1.0  0.03050  0.89780  0.56850  1.0000 0.1490462444
H   H452      1.0  0.96950  0.89780  0.43150  1.0000 0.1490462444
H   H453      1.0  0.10220  0.43150  0.03050  1.0000 0.1490462444
H   H454      1.0  0.10220  0.56850  0.96950  1.0000 0.1490462444
H   H455      1.0  0.89780  0.43150  0.96950  1.0000 0.1490462444
H   H456      1.0  0.89780  0.56850  0.03050  1.0000 0.1490462444
H   H457      1.0  0.92720  0.45140  0.13920  1.0000 0.1378905805
H   H458      1.0  0.07280  0.54860  0.13920  1.0000 0.1378905805
H   H459      1.0  0.07280  0.45140  0.86080  1.0000 0.1378905805
H   H460      1.0  0.92720  0.54860  0.86080  1.0000 0.1378905805
H   H461      1.0  0.13920  0.92720  0.45140  1.0000 0.1378905805
H   H462      1.0  0.13920  0.07280  0.54860  1.0000 0.1378905805
H   H463      1.0  0.86080  0.07280  0.45140  1.0000 0.1378905805
H   H464      1.0  0.86080  0.92720  0.54860  1.0000 0.1378905805
H   H465      1.0  0.45140  0.13920  0.92720  1.0000 0.1378905805
H   H466      1.0  0.54860  0.13920  0.07280  1.0000 0.1378905805
H   H467      1.0  0.45140  0.86080  0.07280  1.0000 0.1378905805
H   H468      1.0  0.54860  0.86080  0.92720  1.0000 0.1378905805
H   H469      1.0  0.45140  0.92720  0.86080  1.0000 0.1378905805
H   H470      1.0  0.54860  0.07280  0.86080  1.0000 0.1378905805
H   H471      1.0  0.45140  0.07280  0.13920  1.0000 0.1378905805
H   H472      1.0  0.54860  0.92720  0.13920  1.0000 0.1378905805
H   H473      1.0  0.92720  0.13920  0.54860  1.0000 0.1378905805
H   H474      1.0  0.07280  0.13920  0.45140  1.0000 0.1378905805
H   H475      1.0  0.07280  0.86080  0.54860  1.0000 0.1378905805
H   H476      1.0  0.92720  0.86080  0.45140  1.0000 0.1378905805
H   H477      1.0  0.13920  0.45140  0.07280  1.0000 0.1378905805
H   H478      1.0  0.13920  0.54860  0.92720  1.0000 0.1378905805
H   H479      1.0  0.86080  0.45140  0.92720  1.0000 0.1378905805
H   H480      1.0  0.86080  0.54860  0.07280  1.0000 0.1378905805
C   C1        1.0  0.17377  0.39438  0.18869  1.0000 0.1102878776
C   C2        1.0  0.82623  0.60562  0.18869  1.0000 0.1102878776
C   C3        1.0  0.82623  0.39438  0.81131  1.0000 0.1102878776
C   C4        1.0  0.17377  0.60562  0.81131  1.0000 0.1102878776
C   C5        1.0  0.18869  0.17377  0.39438  1.0000 0.1102878776
C   C6        1.0  0.18869  0.82623  0.60562  1.0000 0.1102878776
C   C7        1.0  0.81131  0.82623  0.39438  1.0000 0.1102878776
C   C8        1.0  0.81131  0.17377  0.60562  1.0000 0.1102878776
C   C9        1.0  0.39438  0.18869  0.17377  1.0000 0.1102878776
C   C10       1.0  0.60562  0.18869  0.82623  1.0000 0.1102878776
C   C11       1.0  0.39438  0.81131  0.82623  1.0000 0.1102878776
C   C12       1.0  0.60562  0.81131  0.17377  1.0000 0.1102878776
C   C13       1.0  0.39438  0.17377  0.81131  1.0000 0.1102878776
C   C14       1.0  0.60562  0.82623  0.81131  1.0000 0.1102878776
C   C15       1.0  0.39438  0.82623  0.18869  1.0000 0.1102878776
C   C16       1.0  0.60562  0.17377  0.18869  1.0000 0.1102878776
C   C17       1.0  0.17377  0.18869  0.60562  1.0000 0.1102878776
C   C18       1.0  0.82623  0.18869  0.39438  1.0000 0.1102878776
C   C19       1.0  0.82623  0.81131  0.60562  1.0000 0.1102878776
C   C20       1.0  0.17377  0.81131  0.39438  1.0000 0.1102878776
C   C21       1.0  0.18869  0.39438  0.82623  1.0000 0.1102878776
C   C22       1.0  0.18869  0.60562  0.17377  1.0000 0.1102878776
C   C23       1.0  0.81131  0.39438  0.17377  1.0000 0.1102878776
C   C24       1.0  0.81131  0.60562  0.82623  1.0000 0.1102878776
C   C25       1.0  0.16586  0.32145  0.15681  1.0000 0.2144608594
C   C26       1.0  0.83414  0.67855  0.15681  1.0000 0.2144608594
C   C27       1.0  0.83414  0.32145  0.84319  1.0000 0.2144608594
C   C28       1.0  0.16586  0.67855  0.84319  1.0000 0.2144608594
C   C29       1.0  0.15681  0.16586  0.32145  1.0000 0.2144608594
C   C30       1.0  0.15681  0.83414  0.67855  1.0000 0.2144608594
C   C31       1.0  0.84319  0.83414  0.32145  1.0000 0.2144608594
C   C32       1.0  0.84319  0.16586  0.67855  1.0000 0.2144608594
C   C33       1.0  0.32145  0.15681  0.16586  1.0000 0.2144608594
C   C34       1.0  0.67855  0.15681  0.83414  1.0000 0.2144608594
C   C35       1.0  0.32145  0.84319  0.83414  1.0000 0.2144608594
C   C36       1.0  0.67855  0.84319  0.16586  1.0000 0.2144608594
C   C37       1.0  0.32145  0.16586  0.84319  1.0000 0.2144608594
C   C38       1.0  0.67855  0.83414  0.84319  1.0000 0.2144608594
C   C39       1.0  0.32145  0.83414  0.15681  1.0000 0.2144608594
C   C40       1.0  0.67855  0.16586  0.15681  1.0000 0.2144608594
C   C41       1.0  0.16586  0.15681  0.67855  1.0000 0.2144608594
C   C42       1.0  0.83414  0.15681  0.32145  1.0000 0.2144608594
C   C43       1.0  0.83414  0.84319  0.67855  1.0000 0.2144608594
C   C44       1.0  0.16586  0.84319  0.32145  1.0000 0.2144608594
C   C45       1.0  0.15681  0.32145  0.83414  1.0000 0.2144608594
C   C46       1.0  0.15681  0.67855  0.16586  1.0000 0.2144608594
C   C47       1.0  0.84319  0.32145  0.16586  1.0000 0.2144608594
C   C48       1.0  0.84319  0.67855  0.83414  1.0000 0.2144608594
C   C49       1.0  0.12837  0.32771  0.19056  1.0000 -0.171594185
C   C50       1.0  0.87163  0.67229  0.19056  1.0000 -0.171594185
C   C51       1.0  0.87163  0.32771  0.80944  1.0000 -0.171594185
C   C52       1.0  0.12837  0.67229  0.80944  1.0000 -0.171594185
C   C53       1.0  0.19056  0.12837  0.32771  1.0000 -0.171594185
C   C54       1.0  0.19056  0.87163  0.67229  1.0000 -0.171594185
C   C55       1.0  0.80944  0.87163  0.32771  1.0000 -0.171594185
C   C56       1.0  0.80944  0.12837  0.67229  1.0000 -0.171594185
C   C57       1.0  0.32771  0.19056  0.12837  1.0000 -0.171594185
C   C58       1.0  0.67229  0.19056  0.87163  1.0000 -0.171594185
C   C59       1.0  0.32771  0.80944  0.87163  1.0000 -0.171594185
C   C60       1.0  0.67229  0.80944  0.12837  1.0000 -0.171594185
C   C61       1.0  0.32771  0.12837  0.80944  1.0000 -0.171594185
C   C62       1.0  0.67229  0.87163  0.80944  1.0000 -0.171594185
C   C63       1.0  0.32771  0.87163  0.19056  1.0000 -0.171594185
C   C64       1.0  0.67229  0.12837  0.19056  1.0000 -0.171594185
C   C65       1.0  0.12837  0.19056  0.67229  1.0000 -0.171594185
C   C66       1.0  0.87163  0.19056  0.32771  1.0000 -0.171594185
C   C67       1.0  0.87163  0.80944  0.67229  1.0000 -0.171594185
C   C68       1.0  0.12837  0.80944  0.32771  1.0000 -0.171594185
C   C69       1.0  0.19056  0.32771  0.87163  1.0000 -0.171594185
C   C70       1.0  0.19056  0.67229  0.12837  1.0000 -0.171594185
C   C71       1.0  0.80944  0.32771  0.12837  1.0000 -0.171594185
C   C72       1.0  0.80944  0.67229  0.87163  1.0000 -0.171594185
C   C73       1.0  0.17870  0.27710  0.12490  1.0000 -0.468060446
C   C74       1.0  0.82130  0.72290  0.12490  1.0000 -0.468060446
C   C75       1.0  0.82130  0.27710  0.87510  1.0000 -0.468060446
C   C76       1.0  0.17870  0.72290  0.87510  1.0000 -0.468060446
C   C77       1.0  0.12490  0.17870  0.27710  1.0000 -0.468060446
C   C78       1.0  0.12490  0.82130  0.72290  1.0000 -0.468060446
C   C79       1.0  0.87510  0.82130  0.27710  1.0000 -0.468060446
C   C80       1.0  0.87510  0.17870  0.72290  1.0000 -0.468060446
C   C81       1.0  0.27710  0.12490  0.17870  1.0000 -0.468060446
C   C82       1.0  0.72290  0.12490  0.82130  1.0000 -0.468060446
C   C83       1.0  0.27710  0.87510  0.82130  1.0000 -0.468060446
C   C84       1.0  0.72290  0.87510  0.17870  1.0000 -0.468060446
C   C85       1.0  0.27710  0.17870  0.87510  1.0000 -0.468060446
C   C86       1.0  0.72290  0.82130  0.87510  1.0000 -0.468060446
C   C87       1.0  0.27710  0.82130  0.12490  1.0000 -0.468060446
C   C88       1.0  0.72290  0.17870  0.12490  1.0000 -0.468060446
C   C89       1.0  0.17870  0.12490  0.72290  1.0000 -0.468060446
C   C90       1.0  0.82130  0.12490  0.27710  1.0000 -0.468060446
C   C91       1.0  0.82130  0.87510  0.72290  1.0000 -0.468060446
C   C92       1.0  0.17870  0.87510  0.27710  1.0000 -0.468060446
C   C93       1.0  0.12490  0.27710  0.82130  1.0000 -0.468060446
C   C94       1.0  0.12490  0.72290  0.17870  1.0000 -0.468060446
C   C95       1.0  0.87510  0.27710  0.17870  1.0000 -0.468060446
C   C96       1.0  0.87510  0.72290  0.82130  1.0000 -0.468060446
C   C97       1.0  0.10088  0.49775  0.24294  1.0000 0.1175559719
C   C98       1.0  0.89912  0.50225  0.24294  1.0000 0.1175559719
C   C99       1.0  0.89912  0.49775  0.75706  1.0000 0.1175559719
C   C100      1.0  0.10088  0.50225  0.75706  1.0000 0.1175559719
C   C101      1.0  0.24294  0.10088  0.49775  1.0000 0.1175559719
C   C102      1.0  0.24294  0.89912  0.50225  1.0000 0.1175559719
C   C103      1.0  0.75706  0.89912  0.49775  1.0000 0.1175559719
C   C104      1.0  0.75706  0.10088  0.50225  1.0000 0.1175559719
C   C105      1.0  0.49775  0.24294  0.10088  1.0000 0.1175559719
C   C106      1.0  0.50225  0.24294  0.89912  1.0000 0.1175559719
C   C107      1.0  0.49775  0.75706  0.89912  1.0000 0.1175559719
C   C108      1.0  0.50225  0.75706  0.10088  1.0000 0.1175559719
C   C109      1.0  0.49775  0.10088  0.75706  1.0000 0.1175559719
C   C110      1.0  0.50225  0.89912  0.75706  1.0000 0.1175559719
C   C111      1.0  0.49775  0.89912  0.24294  1.0000 0.1175559719
C   C112      1.0  0.50225  0.10088  0.24294  1.0000 0.1175559719
C   C113      1.0  0.10088  0.24294  0.50225  1.0000 0.1175559719
C   C114      1.0  0.89912  0.24294  0.49775  1.0000 0.1175559719
C   C115      1.0  0.89912  0.75706  0.50225  1.0000 0.1175559719
C   C116      1.0  0.10088  0.75706  0.49775  1.0000 0.1175559719
C   C117      1.0  0.24294  0.49775  0.89912  1.0000 0.1175559719
C   C118      1.0  0.24294  0.50225  0.10088  1.0000 0.1175559719
C   C119      1.0  0.75706  0.49775  0.10088  1.0000 0.1175559719
C   C120      1.0  0.75706  0.50225  0.89912  1.0000 0.1175559719
C   C121      1.0  0.16803  0.51529  0.28199  1.0000 0.2015216893
C   C122      1.0  0.83197  0.48471  0.28199  1.0000 0.2015216893
C   C123      1.0  0.83197  0.51529  0.71801  1.0000 0.2015216893
C   C124      1.0  0.16803  0.48471  0.71801  1.0000 0.2015216893
C   C125      1.0  0.28199  0.16803  0.51529  1.0000 0.2015216893
C   C126      1.0  0.28199  0.83197  0.48471  1.0000 0.2015216893
C   C127      1.0  0.71801  0.83197  0.51529  1.0000 0.2015216893
C   C128      1.0  0.71801  0.16803  0.48471  1.0000 0.2015216893
C   C129      1.0  0.51529  0.28199  0.16803  1.0000 0.2015216893
C   C130      1.0  0.48471  0.28199  0.83197  1.0000 0.2015216893
C   C131      1.0  0.51529  0.71801  0.83197  1.0000 0.2015216893
C   C132      1.0  0.48471  0.71801  0.16803  1.0000 0.2015216893
C   C133      1.0  0.51529  0.16803  0.71801  1.0000 0.2015216893
C   C134      1.0  0.48471  0.83197  0.71801  1.0000 0.2015216893
C   C135      1.0  0.51529  0.83197  0.28199  1.0000 0.2015216893
C   C136      1.0  0.48471  0.16803  0.28199  1.0000 0.2015216893
C   C137      1.0  0.16803  0.28199  0.48471  1.0000 0.2015216893
C   C138      1.0  0.83197  0.28199  0.51529  1.0000 0.2015216893
C   C139      1.0  0.83197  0.71801  0.48471  1.0000 0.2015216893
C   C140      1.0  0.16803  0.71801  0.51529  1.0000 0.2015216893
C   C141      1.0  0.28199  0.51529  0.83197  1.0000 0.2015216893
C   C142      1.0  0.28199  0.48471  0.16803  1.0000 0.2015216893
C   C143      1.0  0.71801  0.51529  0.16803  1.0000 0.2015216893
C   C144      1.0  0.71801  0.48471  0.83197  1.0000 0.2015216893
C   C145      1.0  0.16221  0.46558  0.28440  1.0000 -0.171594185
C   C146      1.0  0.83779  0.53442  0.28440  1.0000 -0.171594185
C   C147      1.0  0.83779  0.46558  0.71560  1.0000 -0.171594185
C   C148      1.0  0.16221  0.53442  0.71560  1.0000 -0.171594185
C   C149      1.0  0.28440  0.16221  0.46558  1.0000 -0.171594185
C   C150      1.0  0.28440  0.83779  0.53442  1.0000 -0.171594185
C   C151      1.0  0.71560  0.83779  0.46558  1.0000 -0.171594185
C   C152      1.0  0.71560  0.16221  0.53442  1.0000 -0.171594185
C   C153      1.0  0.46558  0.28440  0.16221  1.0000 -0.171594185
C   C154      1.0  0.53442  0.28440  0.83779  1.0000 -0.171594185
C   C155      1.0  0.46558  0.71560  0.83779  1.0000 -0.171594185
C   C156      1.0  0.53442  0.71560  0.16221  1.0000 -0.171594185
C   C157      1.0  0.46558  0.16221  0.71560  1.0000 -0.171594185
C   C158      1.0  0.53442  0.83779  0.71560  1.0000 -0.171594185
C   C159      1.0  0.46558  0.83779  0.28440  1.0000 -0.171594185
C   C160      1.0  0.53442  0.16221  0.28440  1.0000 -0.171594185
C   C161      1.0  0.16221  0.28440  0.53442  1.0000 -0.171594185
C   C162      1.0  0.83779  0.28440  0.46558  1.0000 -0.171594185
C   C163      1.0  0.83779  0.71560  0.53442  1.0000 -0.171594185
C   C164      1.0  0.16221  0.71560  0.46558  1.0000 -0.171594185
C   C165      1.0  0.28440  0.46558  0.83779  1.0000 -0.171594185
C   C166      1.0  0.28440  0.53442  0.16221  1.0000 -0.171594185
C   C167      1.0  0.71560  0.46558  0.16221  1.0000 -0.171594185
C   C168      1.0  0.71560  0.53442  0.83779  1.0000 -0.171594185
C   C169      1.0  0.20820  0.54720  0.30340  1.0000 -0.468060446
C   C170      1.0  0.79180  0.45280  0.30340  1.0000 -0.468060446
C   C171      1.0  0.79180  0.54720  0.69660  1.0000 -0.468060446
C   C172      1.0  0.20820  0.45280  0.69660  1.0000 -0.468060446
C   C173      1.0  0.30340  0.20820  0.54720  1.0000 -0.468060446
C   C174      1.0  0.30340  0.79180  0.45280  1.0000 -0.468060446
C   C175      1.0  0.69660  0.79180  0.54720  1.0000 -0.468060446
C   C176      1.0  0.69660  0.20820  0.45280  1.0000 -0.468060446
C   C177      1.0  0.54720  0.30340  0.20820  1.0000 -0.468060446
C   C178      1.0  0.45280  0.30340  0.79180  1.0000 -0.468060446
C   C179      1.0  0.54720  0.69660  0.79180  1.0000 -0.468060446
C   C180      1.0  0.45280  0.69660  0.20820  1.0000 -0.468060446
C   C181      1.0  0.54720  0.20820  0.69660  1.0000 -0.468060446
C   C182      1.0  0.45280  0.79180  0.69660  1.0000 -0.468060446
C   C183      1.0  0.54720  0.79180  0.30340  1.0000 -0.468060446
C   C184      1.0  0.45280  0.20820  0.30340  1.0000 -0.468060446
C   C185      1.0  0.20820  0.30340  0.45280  1.0000 -0.468060446
C   C186      1.0  0.79180  0.30340  0.54720  1.0000 -0.468060446
C   C187      1.0  0.79180  0.69660  0.45280  1.0000 -0.468060446
C   C188      1.0  0.20820  0.69660  0.54720  1.0000 -0.468060446
C   C189      1.0  0.30340  0.54720  0.79180  1.0000 -0.468060446
C   C190      1.0  0.30340  0.45280  0.20820  1.0000 -0.468060446
C   C191      1.0  0.69660  0.54720  0.20820  1.0000 -0.468060446
C   C192      1.0  0.69660  0.45280  0.79180  1.0000 -0.468060446
C   C193      1.0  0.10918  0.32598  0.31136  1.0000 0.1175559719
C   C194      1.0  0.89082  0.67402  0.31136  1.0000 0.1175559719
C   C195      1.0  0.89082  0.32598  0.68864  1.0000 0.1175559719
C   C196      1.0  0.10918  0.67402  0.68864  1.0000 0.1175559719
C   C197      1.0  0.31136  0.10918  0.32598  1.0000 0.1175559719
C   C198      1.0  0.31136  0.89082  0.67402  1.0000 0.1175559719
C   C199      1.0  0.68864  0.89082  0.32598  1.0000 0.1175559719
C   C200      1.0  0.68864  0.10918  0.67402  1.0000 0.1175559719
C   C201      1.0  0.32598  0.31136  0.10918  1.0000 0.1175559719
C   C202      1.0  0.67402  0.31136  0.89082  1.0000 0.1175559719
C   C203      1.0  0.32598  0.68864  0.89082  1.0000 0.1175559719
C   C204      1.0  0.67402  0.68864  0.10918  1.0000 0.1175559719
C   C205      1.0  0.32598  0.10918  0.68864  1.0000 0.1175559719
C   C206      1.0  0.67402  0.89082  0.68864  1.0000 0.1175559719
C   C207      1.0  0.32598  0.89082  0.31136  1.0000 0.1175559719
C   C208      1.0  0.67402  0.10918  0.31136  1.0000 0.1175559719
C   C209      1.0  0.10918  0.31136  0.67402  1.0000 0.1175559719
C   C210      1.0  0.89082  0.31136  0.32598  1.0000 0.1175559719
C   C211      1.0  0.89082  0.68864  0.67402  1.0000 0.1175559719
C   C212      1.0  0.10918  0.68864  0.32598  1.0000 0.1175559719
C   C213      1.0  0.31136  0.32598  0.89082  1.0000 0.1175559719
C   C214      1.0  0.31136  0.67402  0.10918  1.0000 0.1175559719
C   C215      1.0  0.68864  0.32598  0.10918  1.0000 0.1175559719
C   C216      1.0  0.68864  0.67402  0.89082  1.0000 0.1175559719
C   C217      1.0  0.08232  0.35836  0.37921  1.0000 0.2015216893
C   C218      1.0  0.91768  0.64164  0.37921  1.0000 0.2015216893
C   C219      1.0  0.91768  0.35836  0.62079  1.0000 0.2015216893
C   C220      1.0  0.08232  0.64164  0.62079  1.0000 0.2015216893
C   C221      1.0  0.37921  0.08232  0.35836  1.0000 0.2015216893
C   C222      1.0  0.37921  0.91768  0.64164  1.0000 0.2015216893
C   C223      1.0  0.62079  0.91768  0.35836  1.0000 0.2015216893
C   C224      1.0  0.62079  0.08232  0.64164  1.0000 0.2015216893
C   C225      1.0  0.35836  0.37921  0.08232  1.0000 0.2015216893
C   C226      1.0  0.64164  0.37921  0.91768  1.0000 0.2015216893
C   C227      1.0  0.35836  0.62079  0.91768  1.0000 0.2015216893
C   C228      1.0  0.64164  0.62079  0.08232  1.0000 0.2015216893
C   C229      1.0  0.35836  0.08232  0.62079  1.0000 0.2015216893
C   C230      1.0  0.64164  0.91768  0.62079  1.0000 0.2015216893
C   C231      1.0  0.35836  0.91768  0.37921  1.0000 0.2015216893
C   C232      1.0  0.64164  0.08232  0.37921  1.0000 0.2015216893
C   C233      1.0  0.08232  0.37921  0.64164  1.0000 0.2015216893
C   C234      1.0  0.91768  0.37921  0.35836  1.0000 0.2015216893
C   C235      1.0  0.91768  0.62079  0.64164  1.0000 0.2015216893
C   C236      1.0  0.08232  0.62079  0.35836  1.0000 0.2015216893
C   C237      1.0  0.37921  0.35836  0.91768  1.0000 0.2015216893
C   C238      1.0  0.37921  0.64164  0.08232  1.0000 0.2015216893
C   C239      1.0  0.62079  0.35836  0.08232  1.0000 0.2015216893
C   C240      1.0  0.62079  0.64164  0.91768  1.0000 0.2015216893
C   C241      1.0  0.08015  0.39385  0.34400  1.0000 -0.171594185
C   C242      1.0  0.91985  0.60615  0.34400  1.0000 -0.171594185
C   C243      1.0  0.91985  0.39385  0.65600  1.0000 -0.171594185
C   C244      1.0  0.08015  0.60615  0.65600  1.0000 -0.171594185
C   C245      1.0  0.34400  0.08015  0.39385  1.0000 -0.171594185
C   C246      1.0  0.34400  0.91985  0.60615  1.0000 -0.171594185
C   C247      1.0  0.65600  0.91985  0.39385  1.0000 -0.171594185
C   C248      1.0  0.65600  0.08015  0.60615  1.0000 -0.171594185
C   C249      1.0  0.39385  0.34400  0.08015  1.0000 -0.171594185
C   C250      1.0  0.60615  0.34400  0.91985  1.0000 -0.171594185
C   C251      1.0  0.39385  0.65600  0.91985  1.0000 -0.171594185
C   C252      1.0  0.60615  0.65600  0.08015  1.0000 -0.171594185
C   C253      1.0  0.39385  0.08015  0.65600  1.0000 -0.171594185
C   C254      1.0  0.60615  0.91985  0.65600  1.0000 -0.171594185
C   C255      1.0  0.39385  0.91985  0.34400  1.0000 -0.171594185
C   C256      1.0  0.60615  0.08015  0.34400  1.0000 -0.171594185
C   C257      1.0  0.08015  0.34400  0.60615  1.0000 -0.171594185
C   C258      1.0  0.91985  0.34400  0.39385  1.0000 -0.171594185
C   C259      1.0  0.91985  0.65600  0.60615  1.0000 -0.171594185
C   C260      1.0  0.08015  0.65600  0.39385  1.0000 -0.171594185
C   C261      1.0  0.34400  0.39385  0.91985  1.0000 -0.171594185
C   C262      1.0  0.34400  0.60615  0.08015  1.0000 -0.171594185
C   C263      1.0  0.65600  0.39385  0.08015  1.0000 -0.171594185
C   C264      1.0  0.65600  0.60615  0.91985  1.0000 -0.171594185
C   C265      1.0  0.06810  0.36300  0.43332  1.0000 -0.4899536797
C   C266      1.0  0.93190  0.63700  0.43332  1.0000 -0.4899536797
C   C267      1.0  0.93190  0.36300  0.56668  1.0000 -0.4899536797
C   C268      1.0  0.06810  0.63700  0.56668  1.0000 -0.4899536797
C   C269      1.0  0.43332  0.06810  0.36300  1.0000 -0.4899536797
C   C270      1.0  0.43332  0.93190  0.63700  1.0000 -0.4899536797
C   C271      1.0  0.56668  0.93190  0.36300  1.0000 -0.4899536797
C   C272      1.0  0.56668  0.06810  0.63700  1.0000 -0.4899536797
C   C273      1.0  0.36300  0.43332  0.06810  1.0000 -0.4899536797
C   C274      1.0  0.63700  0.43332  0.93190  1.0000 -0.4899536797
C   C275      1.0  0.36300  0.56668  0.93190  1.0000 -0.4899536797
C   C276      1.0  0.63700  0.56668  0.06810  1.0000 -0.4899536797
C   C277      1.0  0.36300  0.06810  0.56668  1.0000 -0.4899536797
C   C278      1.0  0.63700  0.93190  0.56668  1.0000 -0.4899536797
C   C279      1.0  0.36300  0.93190  0.43332  1.0000 -0.4899536797
C   C280      1.0  0.63700  0.06810  0.43332  1.0000 -0.4899536797
C   C281      1.0  0.06810  0.43332  0.63700  1.0000 -0.4899536797
C   C282      1.0  0.93190  0.43332  0.36300  1.0000 -0.4899536797
C   C283      1.0  0.93190  0.56668  0.63700  1.0000 -0.4899536797
C   C284      1.0  0.06810  0.56668  0.36300  1.0000 -0.4899536797
C   C285      1.0  0.43332  0.36300  0.93190  1.0000 -0.4899536797
C   C286      1.0  0.43332  0.63700  0.06810  1.0000 -0.4899536797
C   C287      1.0  0.56668  0.36300  0.06810  1.0000 -0.4899536797
C   C288      1.0  0.56668  0.63700  0.93190  1.0000 -0.4899536797
C   C289      1.0  0.00287  0.39088  0.24921  1.0000 0.1319678712
C   C290      1.0  0.99713  0.60912  0.24921  1.0000 0.1319678712
C   C291      1.0  0.99713  0.39088  0.75079  1.0000 0.1319678712
C   C292      1.0  0.00287  0.60912  0.75079  1.0000 0.1319678712
C   C293      1.0  0.24921  0.00287  0.39088  1.0000 0.1319678712
C   C294      1.0  0.24921  0.99713  0.60912  1.0000 0.1319678712
C   C295      1.0  0.75079  0.99713  0.39088  1.0000 0.1319678712
C   C296      1.0  0.75079  0.00287  0.60912  1.0000 0.1319678712
C   C297      1.0  0.39088  0.24921  0.00287  1.0000 0.1319678712
C   C298      1.0  0.60912  0.24921  0.99713  1.0000 0.1319678712
C   C299      1.0  0.39088  0.75079  0.99713  1.0000 0.1319678712
C   C300      1.0  0.60912  0.75079  0.00287  1.0000 0.1319678712
C   C301      1.0  0.39088  0.00287  0.75079  1.0000 0.1319678712
C   C302      1.0  0.60912  0.99713  0.75079  1.0000 0.1319678712
C   C303      1.0  0.39088  0.99713  0.24921  1.0000 0.1319678712
C   C304      1.0  0.60912  0.00287  0.24921  1.0000 0.1319678712
C   C305      1.0  0.00287  0.24921  0.60912  1.0000 0.1319678712
C   C306      1.0  0.99713  0.24921  0.39088  1.0000 0.1319678712
C   C307      1.0  0.99713  0.75079  0.60912  1.0000 0.1319678712
C   C308      1.0  0.00287  0.75079  0.39088  1.0000 0.1319678712
C   C309      1.0  0.24921  0.39088  0.99713  1.0000 0.1319678712
C   C310      1.0  0.24921  0.60912  0.00287  1.0000 0.1319678712
C   C311      1.0  0.75079  0.39088  0.00287  1.0000 0.1319678712
C   C312      1.0  0.75079  0.60912  0.99713  1.0000 0.1319678712
C   C313      1.0  0.98259  0.41247  0.17540  1.0000 0.2144608594
C   C314      1.0  0.01741  0.58753  0.17540  1.0000 0.2144608594
C   C315      1.0  0.01741  0.41247  0.82460  1.0000 0.2144608594
C   C316      1.0  0.98259  0.58753  0.82460  1.0000 0.2144608594
C   C317      1.0  0.17540  0.98259  0.41247  1.0000 0.2144608594
C   C318      1.0  0.17540  0.01741  0.58753  1.0000 0.2144608594
C   C319      1.0  0.82460  0.01741  0.41247  1.0000 0.2144608594
C   C320      1.0  0.82460  0.98259  0.58753  1.0000 0.2144608594
C   C321      1.0  0.41247  0.17540  0.98259  1.0000 0.2144608594
C   C322      1.0  0.58753  0.17540  0.01741  1.0000 0.2144608594
C   C323      1.0  0.41247  0.82460  0.01741  1.0000 0.2144608594
C   C324      1.0  0.58753  0.82460  0.98259  1.0000 0.2144608594
C   C325      1.0  0.41247  0.98259  0.82460  1.0000 0.2144608594
C   C326      1.0  0.58753  0.01741  0.82460  1.0000 0.2144608594
C   C327      1.0  0.41247  0.01741  0.17540  1.0000 0.2144608594
C   C328      1.0  0.58753  0.98259  0.17540  1.0000 0.2144608594
C   C329      1.0  0.98259  0.17540  0.58753  1.0000 0.2144608594
C   C330      1.0  0.01741  0.17540  0.41247  1.0000 0.2144608594
C   C331      1.0  0.01741  0.82460  0.58753  1.0000 0.2144608594
C   C332      1.0  0.98259  0.82460  0.41247  1.0000 0.2144608594
C   C333      1.0  0.17540  0.41247  0.01741  1.0000 0.2144608594
C   C334      1.0  0.17540  0.58753  0.98259  1.0000 0.2144608594
C   C335      1.0  0.82460  0.41247  0.98259  1.0000 0.2144608594
C   C336      1.0  0.82460  0.58753  0.01741  1.0000 0.2144608594
C   C337      1.0  0.03249  0.41584  0.17886  1.0000 -0.171594185
C   C338      1.0  0.96751  0.58416  0.17886  1.0000 -0.171594185
C   C339      1.0  0.96751  0.41584  0.82114  1.0000 -0.171594185
C   C340      1.0  0.03249  0.58416  0.82114  1.0000 -0.171594185
C   C341      1.0  0.17886  0.03249  0.41584  1.0000 -0.171594185
C   C342      1.0  0.17886  0.96751  0.58416  1.0000 -0.171594185
C   C343      1.0  0.82114  0.96751  0.41584  1.0000 -0.171594185
C   C344      1.0  0.82114  0.03249  0.58416  1.0000 -0.171594185
C   C345      1.0  0.41584  0.17886  0.03249  1.0000 -0.171594185
C   C346      1.0  0.58416  0.17886  0.96751  1.0000 -0.171594185
C   C347      1.0  0.41584  0.82114  0.96751  1.0000 -0.171594185
C   C348      1.0  0.58416  0.82114  0.03249  1.0000 -0.171594185
C   C349      1.0  0.41584  0.03249  0.82114  1.0000 -0.171594185
C   C350      1.0  0.58416  0.96751  0.82114  1.0000 -0.171594185
C   C351      1.0  0.41584  0.96751  0.17886  1.0000 -0.171594185
C   C352      1.0  0.58416  0.03249  0.17886  1.0000 -0.171594185
C   C353      1.0  0.03249  0.17886  0.58416  1.0000 -0.171594185
C   C354      1.0  0.96751  0.17886  0.41584  1.0000 -0.171594185
C   C355      1.0  0.96751  0.82114  0.58416  1.0000 -0.171594185
C   C356      1.0  0.03249  0.82114  0.41584  1.0000 -0.171594185
C   C357      1.0  0.17886  0.41584  0.96751  1.0000 -0.171594185
C   C358      1.0  0.17886  0.58416  0.03249  1.0000 -0.171594185
C   C359      1.0  0.82114  0.41584  0.03249  1.0000 -0.171594185
C   C360      1.0  0.82114  0.58416  0.96751  1.0000 -0.171594185
C   C361      1.0  0.94910  0.42320  0.13130  1.0000 -0.4899536797
C   C362      1.0  0.05090  0.57680  0.13130  1.0000 -0.4899536797
C   C363      1.0  0.05090  0.42320  0.86870  1.0000 -0.4899536797
C   C364      1.0  0.94910  0.57680  0.86870  1.0000 -0.4899536797
C   C365      1.0  0.13130  0.94910  0.42320  1.0000 -0.4899536797
C   C366      1.0  0.13130  0.05090  0.57680  1.0000 -0.4899536797
C   C367      1.0  0.86870  0.05090  0.42320  1.0000 -0.4899536797
C   C368      1.0  0.86870  0.94910  0.57680  1.0000 -0.4899536797
C   C369      1.0  0.42320  0.13130  0.94910  1.0000 -0.4899536797
C   C370      1.0  0.57680  0.13130  0.05090  1.0000 -0.4899536797
C   C371      1.0  0.42320  0.86870  0.05090  1.0000 -0.4899536797
C   C372      1.0  0.57680  0.86870  0.94910  1.0000 -0.4899536797
C   C373      1.0  0.42320  0.94910  0.86870  1.0000 -0.4899536797
C   C374      1.0  0.57680  0.05090  0.86870  1.0000 -0.4899536797
C   C375      1.0  0.42320  0.05090  0.13130  1.0000 -0.4899536797
C   C376      1.0  0.57680  0.94910  0.13130  1.0000 -0.4899536797
C   C377      1.0  0.94910  0.13130  0.57680  1.0000 -0.4899536797
C   C378      1.0  0.05090  0.13130  0.42320  1.0000 -0.4899536797
C   C379      1.0  0.05090  0.86870  0.57680  1.0000 -0.4899536797
C   C380      1.0  0.94910  0.86870  0.42320  1.0000 -0.4899536797
C   C381      1.0  0.13130  0.42320  0.05090  1.0000 -0.4899536797
C   C382      1.0  0.13130  0.57680  0.94910  1.0000 -0.4899536797
C   C383      1.0  0.86870  0.42320  0.94910  1.0000 -0.4899536797
C   C384      1.0  0.86870  0.57680  0.05090  1.0000 -0.4899536797
N   N1        1.0  0.13353  0.37414  0.21157  1.0000 -0.1886343711
N   N2        1.0  0.86647  0.62586  0.21157  1.0000 -0.1886343711
N   N3        1.0  0.86647  0.37414  0.78843  1.0000 -0.1886343711
N   N4        1.0  0.13353  0.62586  0.78843  1.0000 -0.1886343711
N   N5        1.0  0.21157  0.13353  0.37414  1.0000 -0.1886343711
N   N6        1.0  0.21157  0.86647  0.62586  1.0000 -0.1886343711
N   N7        1.0  0.78843  0.86647  0.37414  1.0000 -0.1886343711
N   N8        1.0  0.78843  0.13353  0.62586  1.0000 -0.1886343711
N   N9        1.0  0.37414  0.21157  0.13353  1.0000 -0.1886343711
N   N10       1.0  0.62586  0.21157  0.86647  1.0000 -0.1886343711
N   N11       1.0  0.37414  0.78843  0.86647  1.0000 -0.1886343711
N   N12       1.0  0.62586  0.78843  0.13353  1.0000 -0.1886343711
N   N13       1.0  0.37414  0.13353  0.78843  1.0000 -0.1886343711
N   N14       1.0  0.62586  0.86647  0.78843  1.0000 -0.1886343711
N   N15       1.0  0.37414  0.86647  0.21157  1.0000 -0.1886343711
N   N16       1.0  0.62586  0.13353  0.21157  1.0000 -0.1886343711
N   N17       1.0  0.13353  0.21157  0.62586  1.0000 -0.1886343711
N   N18       1.0  0.86647  0.21157  0.37414  1.0000 -0.1886343711
N   N19       1.0  0.86647  0.78843  0.62586  1.0000 -0.1886343711
N   N20       1.0  0.13353  0.78843  0.37414  1.0000 -0.1886343711
N   N21       1.0  0.21157  0.37414  0.86647  1.0000 -0.1886343711
N   N22       1.0  0.21157  0.62586  0.13353  1.0000 -0.1886343711
N   N23       1.0  0.78843  0.37414  0.13353  1.0000 -0.1886343711
N   N24       1.0  0.78843  0.62586  0.86647  1.0000 -0.1886343711
N   N25       1.0  0.19411  0.36425  0.15523  1.0000 -0.3302803916
N   N26       1.0  0.80589  0.63575  0.15523  1.0000 -0.3302803916
N   N27       1.0  0.80589  0.36425  0.84477  1.0000 -0.3302803916
N   N28       1.0  0.19411  0.63575  0.84477  1.0000 -0.3302803916
N   N29       1.0  0.15523  0.19411  0.36425  1.0000 -0.3302803916
N   N30       1.0  0.15523  0.80589  0.63575  1.0000 -0.3302803916
N   N31       1.0  0.84477  0.80589  0.36425  1.0000 -0.3302803916
N   N32       1.0  0.84477  0.19411  0.63575  1.0000 -0.3302803916
N   N33       1.0  0.36425  0.15523  0.19411  1.0000 -0.3302803916
N   N34       1.0  0.63575  0.15523  0.80589  1.0000 -0.3302803916
N   N35       1.0  0.36425  0.84477  0.80589  1.0000 -0.3302803916
N   N36       1.0  0.63575  0.84477  0.19411  1.0000 -0.3302803916
N   N37       1.0  0.36425  0.19411  0.84477  1.0000 -0.3302803916
N   N38       1.0  0.63575  0.80589  0.84477  1.0000 -0.3302803916
N   N39       1.0  0.36425  0.80589  0.15523  1.0000 -0.3302803916
N   N40       1.0  0.63575  0.19411  0.15523  1.0000 -0.3302803916
N   N41       1.0  0.19411  0.15523  0.63575  1.0000 -0.3302803916
N   N42       1.0  0.80589  0.15523  0.36425  1.0000 -0.3302803916
N   N43       1.0  0.80589  0.84477  0.63575  1.0000 -0.3302803916
N   N44       1.0  0.19411  0.84477  0.36425  1.0000 -0.3302803916
N   N45       1.0  0.15523  0.36425  0.80589  1.0000 -0.3302803916
N   N46       1.0  0.15523  0.63575  0.19411  1.0000 -0.3302803916
N   N47       1.0  0.84477  0.36425  0.19411  1.0000 -0.3302803916
N   N48       1.0  0.84477  0.63575  0.80589  1.0000 -0.3302803916
N   N49       1.0  0.11889  0.45375  0.25879  1.0000 -0.2244005151
N   N50       1.0  0.88111  0.54625  0.25879  1.0000 -0.2244005151
N   N51       1.0  0.88111  0.45375  0.74121  1.0000 -0.2244005151
N   N52       1.0  0.11889  0.54625  0.74121  1.0000 -0.2244005151
N   N53       1.0  0.25879  0.11889  0.45375  1.0000 -0.2244005151
N   N54       1.0  0.25879  0.88111  0.54625  1.0000 -0.2244005151
N   N55       1.0  0.74121  0.88111  0.45375  1.0000 -0.2244005151
N   N56       1.0  0.74121  0.11889  0.54625  1.0000 -0.2244005151
N   N57       1.0  0.45375  0.25879  0.11889  1.0000 -0.2244005151
N   N58       1.0  0.54625  0.25879  0.88111  1.0000 -0.2244005151
N   N59       1.0  0.45375  0.74121  0.88111  1.0000 -0.2244005151
N   N60       1.0  0.54625  0.74121  0.11889  1.0000 -0.2244005151
N   N61       1.0  0.45375  0.11889  0.74121  1.0000 -0.2244005151
N   N62       1.0  0.54625  0.88111  0.74121  1.0000 -0.2244005151
N   N63       1.0  0.45375  0.88111  0.25879  1.0000 -0.2244005151
N   N64       1.0  0.54625  0.11889  0.25879  1.0000 -0.2244005151
N   N65       1.0  0.11889  0.25879  0.54625  1.0000 -0.2244005151
N   N66       1.0  0.88111  0.25879  0.45375  1.0000 -0.2244005151
N   N67       1.0  0.88111  0.74121  0.54625  1.0000 -0.2244005151
N   N68       1.0  0.11889  0.74121  0.45375  1.0000 -0.2244005151
N   N69       1.0  0.25879  0.45375  0.88111  1.0000 -0.2244005151
N   N70       1.0  0.25879  0.54625  0.11889  1.0000 -0.2244005151
N   N71       1.0  0.74121  0.45375  0.11889  1.0000 -0.2244005151
N   N72       1.0  0.74121  0.54625  0.88111  1.0000 -0.2244005151
N   N73       1.0  0.12889  0.53578  0.25553  1.0000 -0.3363227227
N   N74       1.0  0.87111  0.46422  0.25553  1.0000 -0.3363227227
N   N75       1.0  0.87111  0.53578  0.74447  1.0000 -0.3363227227
N   N76       1.0  0.12889  0.46422  0.74447  1.0000 -0.3363227227
N   N77       1.0  0.25553  0.12889  0.53578  1.0000 -0.3363227227
N   N78       1.0  0.25553  0.87111  0.46422  1.0000 -0.3363227227
N   N79       1.0  0.74447  0.87111  0.53578  1.0000 -0.3363227227
N   N80       1.0  0.74447  0.12889  0.46422  1.0000 -0.3363227227
N   N81       1.0  0.53578  0.25553  0.12889  1.0000 -0.3363227227
N   N82       1.0  0.46422  0.25553  0.87111  1.0000 -0.3363227227
N   N83       1.0  0.53578  0.74447  0.87111  1.0000 -0.3363227227
N   N84       1.0  0.46422  0.74447  0.12889  1.0000 -0.3363227227
N   N85       1.0  0.53578  0.12889  0.74447  1.0000 -0.3363227227
N   N86       1.0  0.46422  0.87111  0.74447  1.0000 -0.3363227227
N   N87       1.0  0.53578  0.87111  0.25553  1.0000 -0.3363227227
N   N88       1.0  0.46422  0.12889  0.25553  1.0000 -0.3363227227
N   N89       1.0  0.12889  0.25553  0.46422  1.0000 -0.3363227227
N   N90       1.0  0.87111  0.25553  0.53578  1.0000 -0.3363227227
N   N91       1.0  0.87111  0.74447  0.46422  1.0000 -0.3363227227
N   N92       1.0  0.12889  0.74447  0.53578  1.0000 -0.3363227227
N   N93       1.0  0.25553  0.53578  0.87111  1.0000 -0.3363227227
N   N94       1.0  0.25553  0.46422  0.12889  1.0000 -0.3363227227
N   N95       1.0  0.74447  0.53578  0.12889  1.0000 -0.3363227227
N   N96       1.0  0.74447  0.46422  0.87111  1.0000 -0.3363227227
N   N97       1.0  0.09758  0.37363  0.29994  1.0000 -0.2069835641
N   N98       1.0  0.90242  0.62637  0.29994  1.0000 -0.2069835641
N   N99       1.0  0.90242  0.37363  0.70006  1.0000 -0.2069835641
N   N100      1.0  0.09758  0.62637  0.70006  1.0000 -0.2069835641
N   N101      1.0  0.29994  0.09758  0.37363  1.0000 -0.2069835641
N   N102      1.0  0.29994  0.90242  0.62637  1.0000 -0.2069835641
N   N103      1.0  0.70006  0.90242  0.37363  1.0000 -0.2069835641
N   N104      1.0  0.70006  0.09758  0.62637  1.0000 -0.2069835641
N   N105      1.0  0.37363  0.29994  0.09758  1.0000 -0.2069835641
N   N106      1.0  0.62637  0.29994  0.90242  1.0000 -0.2069835641
N   N107      1.0  0.37363  0.70006  0.90242  1.0000 -0.2069835641
N   N108      1.0  0.62637  0.70006  0.09758  1.0000 -0.2069835641
N   N109      1.0  0.37363  0.09758  0.70006  1.0000 -0.2069835641
N   N110      1.0  0.62637  0.90242  0.70006  1.0000 -0.2069835641
N   N111      1.0  0.37363  0.90242  0.29994  1.0000 -0.2069835641
N   N112      1.0  0.62637  0.09758  0.29994  1.0000 -0.2069835641
N   N113      1.0  0.09758  0.29994  0.62637  1.0000 -0.2069835641
N   N114      1.0  0.90242  0.29994  0.37363  1.0000 -0.2069835641
N   N115      1.0  0.90242  0.70006  0.62637  1.0000 -0.2069835641
N   N116      1.0  0.09758  0.70006  0.37363  1.0000 -0.2069835641
N   N117      1.0  0.29994  0.37363  0.90242  1.0000 -0.2069835641
N   N118      1.0  0.29994  0.62637  0.09758  1.0000 -0.2069835641
N   N119      1.0  0.70006  0.37363  0.09758  1.0000 -0.2069835641
N   N120      1.0  0.70006  0.62637  0.90242  1.0000 -0.2069835641
N   N121      1.0  0.10087  0.31487  0.35821  1.0000 -0.3302803916
N   N122      1.0  0.89913  0.68513  0.35821  1.0000 -0.3302803916
N   N123      1.0  0.89913  0.31487  0.64179  1.0000 -0.3302803916
N   N124      1.0  0.10087  0.68513  0.64179  1.0000 -0.3302803916
N   N125      1.0  0.35821  0.10087  0.31487  1.0000 -0.3302803916
N   N126      1.0  0.35821  0.89913  0.68513  1.0000 -0.3302803916
N   N127      1.0  0.64179  0.89913  0.31487  1.0000 -0.3302803916
N   N128      1.0  0.64179  0.10087  0.68513  1.0000 -0.3302803916
N   N129      1.0  0.31487  0.35821  0.10087  1.0000 -0.3302803916
N   N130      1.0  0.68513  0.35821  0.89913  1.0000 -0.3302803916
N   N131      1.0  0.31487  0.64179  0.89913  1.0000 -0.3302803916
N   N132      1.0  0.68513  0.64179  0.10087  1.0000 -0.3302803916
N   N133      1.0  0.31487  0.10087  0.64179  1.0000 -0.3302803916
N   N134      1.0  0.68513  0.89913  0.64179  1.0000 -0.3302803916
N   N135      1.0  0.31487  0.89913  0.35821  1.0000 -0.3302803916
N   N136      1.0  0.68513  0.10087  0.35821  1.0000 -0.3302803916
N   N137      1.0  0.10087  0.35821  0.68513  1.0000 -0.3302803916
N   N138      1.0  0.89913  0.35821  0.31487  1.0000 -0.3302803916
N   N139      1.0  0.89913  0.64179  0.68513  1.0000 -0.3302803916
N   N140      1.0  0.10087  0.64179  0.31487  1.0000 -0.3302803916
N   N141      1.0  0.35821  0.31487  0.89913  1.0000 -0.3302803916
N   N142      1.0  0.35821  0.68513  0.10087  1.0000 -0.3302803916
N   N143      1.0  0.64179  0.31487  0.10087  1.0000 -0.3302803916
N   N144      1.0  0.64179  0.68513  0.89913  1.0000 -0.3302803916
N   N145      1.0  0.04594  0.40230  0.22687  1.0000 -0.2012295323
N   N146      1.0  0.95406  0.59770  0.22687  1.0000 -0.2012295323
N   N147      1.0  0.95406  0.40230  0.77313  1.0000 -0.2012295323
N   N148      1.0  0.04594  0.59770  0.77313  1.0000 -0.2012295323
N   N149      1.0  0.22687  0.04594  0.40230  1.0000 -0.2012295323
N   N150      1.0  0.22687  0.95406  0.59770  1.0000 -0.2012295323
N   N151      1.0  0.77313  0.95406  0.40230  1.0000 -0.2012295323
N   N152      1.0  0.77313  0.04594  0.59770  1.0000 -0.2012295323
N   N153      1.0  0.40230  0.22687  0.04594  1.0000 -0.2012295323
N   N154      1.0  0.59770  0.22687  0.95406  1.0000 -0.2012295323
N   N155      1.0  0.40230  0.77313  0.95406  1.0000 -0.2012295323
N   N156      1.0  0.59770  0.77313  0.04594  1.0000 -0.2012295323
N   N157      1.0  0.40230  0.04594  0.77313  1.0000 -0.2012295323
N   N158      1.0  0.59770  0.95406  0.77313  1.0000 -0.2012295323
N   N159      1.0  0.40230  0.95406  0.22687  1.0000 -0.2012295323
N   N160      1.0  0.59770  0.04594  0.22687  1.0000 -0.2012295323
N   N161      1.0  0.04594  0.22687  0.59770  1.0000 -0.2012295323
N   N162      1.0  0.95406  0.22687  0.40230  1.0000 -0.2012295323
N   N163      1.0  0.95406  0.77313  0.59770  1.0000 -0.2012295323
N   N164      1.0  0.04594  0.77313  0.40230  1.0000 -0.2012295323
N   N165      1.0  0.22687  0.40230  0.95406  1.0000 -0.2012295323
N   N166      1.0  0.22687  0.59770  0.04594  1.0000 -0.2012295323
N   N167      1.0  0.77313  0.40230  0.04594  1.0000 -0.2012295323
N   N168      1.0  0.77313  0.59770  0.95406  1.0000 -0.2012295323
N   N169      1.0  0.96391  0.39660  0.22018  1.0000 -0.3302803916
N   N170      1.0  0.03609  0.60340  0.22018  1.0000 -0.3302803916
N   N171      1.0  0.03609  0.39660  0.77982  1.0000 -0.3302803916
N   N172      1.0  0.96391  0.60340  0.77982  1.0000 -0.3302803916
N   N173      1.0  0.22018  0.96391  0.39660  1.0000 -0.3302803916
N   N174      1.0  0.22018  0.03609  0.60340  1.0000 -0.3302803916
N   N175      1.0  0.77982  0.03609  0.39660  1.0000 -0.3302803916
N   N176      1.0  0.77982  0.96391  0.60340  1.0000 -0.3302803916
N   N177      1.0  0.39660  0.22018  0.96391  1.0000 -0.3302803916
N   N178      1.0  0.60340  0.22018  0.03609  1.0000 -0.3302803916
N   N179      1.0  0.39660  0.77982  0.03609  1.0000 -0.3302803916
N   N180      1.0  0.60340  0.77982  0.96391  1.0000 -0.3302803916
N   N181      1.0  0.39660  0.96391  0.77982  1.0000 -0.3302803916
N   N182      1.0  0.60340  0.03609  0.77982  1.0000 -0.3302803916
N   N183      1.0  0.39660  0.03609  0.22018  1.0000 -0.3302803916
N   N184      1.0  0.60340  0.96391  0.22018  1.0000 -0.3302803916
N   N185      1.0  0.96391  0.22018  0.60340  1.0000 -0.3302803916
N   N186      1.0  0.03609  0.22018  0.39660  1.0000 -0.3302803916
N   N187      1.0  0.03609  0.77982  0.60340  1.0000 -0.3302803916
N   N188      1.0  0.96391  0.77982  0.39660  1.0000 -0.3302803916
N   N189      1.0  0.22018  0.39660  0.03609  1.0000 -0.3302803916
N   N190      1.0  0.22018  0.60340  0.96391  1.0000 -0.3302803916
N   N191      1.0  0.77982  0.39660  0.96391  1.0000 -0.3302803916
N   N192      1.0  0.77982  0.60340  0.03609  1.0000 -0.3302803916
