# DDEC6 charges by PACMAN v1.1 (https://github.com/mtap-research/PACMAN-charge/)
data_2009[Mg][nan]3[ASR]1
_chemical_formula_sum              "Mg9 H42 C90 O36"
_cell_length_a       18.9293
_cell_length_b       18.9293
_cell_length_c       18.9293
_cell_angle_alpha    113.398
_cell_angle_beta     113.398
_cell_angle_gamma    113.398

_symmetry_space_group_name_H-M    "P 1"
_symmetry_Int_Tables_number       1

loop_
  _symmetry_equiv_pos_as_xyz
  'x, y, z'

loop_
  _atom_site_type_symbol
  _atom_site_label
  _atom_site_symmetry_multiplicity
  _atom_site_fract_x
  _atom_site_fract_y
  _atom_site_fract_z
  _atom_site_occupancy
  _atom_site_charge
Mg  Mg1       1.0  0.00000  0.50000  0.50000  1.0000 1.375686752
Mg  Mg2       1.0  0.50000  0.50000  0.00000  1.0000 1.375686752
Mg  Mg3       1.0  0.50000  0.00000  0.50000  1.0000 1.375686752
Mg  Mg4       1.0  0.90123  0.57546  0.61625  1.0000 1.370801456
Mg  Mg5       1.0  0.57546  0.61625  0.90123  1.0000 1.370801456
Mg  Mg6       1.0  0.61625  0.90123  0.57546  1.0000 1.370801456
Mg  Mg7       1.0  0.09877  0.42454  0.38375  1.0000 1.370801456
Mg  Mg8       1.0  0.42454  0.38375  0.09877  1.0000 1.370801456
Mg  Mg9       1.0  0.38375  0.09877  0.42454  1.0000 1.370801456
H   H1        1.0  0.71610  0.52580  0.33510  1.0000 0.129831798
H   H2        1.0  0.52580  0.33510  0.71610  1.0000 0.129831798
H   H3        1.0  0.33510  0.71610  0.52580  1.0000 0.129831798
H   H4        1.0  0.28390  0.47420  0.66490  1.0000 0.129831798
H   H5        1.0  0.47420  0.66490  0.28390  1.0000 0.129831798
H   H6        1.0  0.66490  0.28390  0.47420  1.0000 0.129831798
H   H7        1.0  0.81110  0.62870  0.21220  1.0000 0.117734864
H   H8        1.0  0.62870  0.21220  0.81110  1.0000 0.117734864
H   H9        1.0  0.21220  0.81110  0.62870  1.0000 0.117734864
H   H10       1.0  0.18890  0.37130  0.78780  1.0000 0.117734864
H   H11       1.0  0.37130  0.78780  0.18890  1.0000 0.117734864
H   H12       1.0  0.78780  0.18890  0.37130  1.0000 0.117734864
H   H13       1.0  0.99590  0.65110  0.44840  1.0000 0.129831798
H   H14       1.0  0.65110  0.44840  0.99590  1.0000 0.129831798
H   H15       1.0  0.44840  0.99590  0.65110  1.0000 0.129831798
H   H16       1.0  0.00410  0.34890  0.55160  1.0000 0.129831798
H   H17       1.0  0.34890  0.55160  0.00410  1.0000 0.129831798
H   H18       1.0  0.55160  0.00410  0.34890  1.0000 0.129831798
H   H19       1.0  0.97220  0.78230  0.31090  1.0000 0.117734864
H   H20       1.0  0.78230  0.31090  0.97220  1.0000 0.117734864
H   H21       1.0  0.31090  0.97220  0.78230  1.0000 0.117734864
H   H22       1.0  0.02780  0.21770  0.68910  1.0000 0.117734864
H   H23       1.0  0.21770  0.68910  0.02780  1.0000 0.117734864
H   H24       1.0  0.68910  0.02780  0.21770  1.0000 0.117734864
H   H25       1.0  0.12750  0.90490  0.36960  1.0000 0.117734864
H   H26       1.0  0.90490  0.36960  0.12750  1.0000 0.117734864
H   H27       1.0  0.36960  0.12750  0.90490  1.0000 0.117734864
H   H28       1.0  0.87250  0.09510  0.63040  1.0000 0.117734864
H   H29       1.0  0.09510  0.63040  0.87250  1.0000 0.117734864
H   H30       1.0  0.63040  0.87250  0.09510  1.0000 0.117734864
H   H31       1.0  0.22050  0.76090  0.40410  1.0000 0.1134088259
H   H32       1.0  0.76090  0.40410  0.22050  1.0000 0.1134088259
H   H33       1.0  0.40410  0.22050  0.76090  1.0000 0.1134088259
H   H34       1.0  0.77950  0.23910  0.59590  1.0000 0.1134088259
H   H35       1.0  0.23910  0.59590  0.77950  1.0000 0.1134088259
H   H36       1.0  0.59590  0.77950  0.23910  1.0000 0.1134088259
H   H37       1.0  0.06770  0.66010  0.35920  1.0000 0.129831798
H   H38       1.0  0.66010  0.35920  0.06770  1.0000 0.129831798
H   H39       1.0  0.35920  0.06770  0.66010  1.0000 0.129831798
H   H40       1.0  0.93230  0.33990  0.64080  1.0000 0.129831798
H   H41       1.0  0.33990  0.64080  0.93230  1.0000 0.129831798
H   H42       1.0  0.64080  0.93230  0.33990  1.0000 0.129831798
C   C1        1.0  0.85851  0.59029  0.40276  1.0000 -0.0243933576
C   C2        1.0  0.59029  0.40276  0.85851  1.0000 -0.0243933576
C   C3        1.0  0.40276  0.85851  0.59029  1.0000 -0.0243933576
C   C4        1.0  0.14149  0.40971  0.59724  1.0000 -0.0243933576
C   C5        1.0  0.40971  0.59724  0.14149  1.0000 -0.0243933576
C   C6        1.0  0.59724  0.14149  0.40971  1.0000 -0.0243933576
C   C7        1.0  0.76442  0.55820  0.33310  1.0000 -0.1103944242
C   C8        1.0  0.55820  0.33310  0.76442  1.0000 -0.1103944242
C   C9        1.0  0.33310  0.76442  0.55820  1.0000 -0.1103944242
C   C10       1.0  0.23558  0.44180  0.66690  1.0000 -0.1103944242
C   C11       1.0  0.44180  0.66690  0.23558  1.0000 -0.1103944242
C   C12       1.0  0.66690  0.23558  0.44180  1.0000 -0.1103944242
C   C13       1.0  0.74698  0.57080  0.26246  1.0000 -0.0243933576
C   C14       1.0  0.57080  0.26246  0.74698  1.0000 -0.0243933576
C   C15       1.0  0.26246  0.74698  0.57080  1.0000 -0.0243933576
C   C16       1.0  0.25302  0.42920  0.73754  1.0000 -0.0243933576
C   C17       1.0  0.42920  0.73754  0.25302  1.0000 -0.0243933576
C   C18       1.0  0.73754  0.25302  0.42920  1.0000 -0.0243933576
C   C19       1.0  0.82639  0.62017  0.26517  1.0000 -0.1645302925
C   C20       1.0  0.62017  0.26517  0.82639  1.0000 -0.1645302925
C   C21       1.0  0.26517  0.82639  0.62017  1.0000 -0.1645302925
C   C22       1.0  0.17361  0.37983  0.73483  1.0000 -0.1645302925
C   C23       1.0  0.37983  0.73483  0.17361  1.0000 -0.1645302925
C   C24       1.0  0.73483  0.17361  0.37983  1.0000 -0.1645302925
C   C25       1.0  0.92199  0.65401  0.33583  1.0000 0.0666226518
C   C26       1.0  0.65401  0.33583  0.92199  1.0000 0.0666226518
C   C27       1.0  0.33583  0.92199  0.65401  1.0000 0.0666226518
C   C28       1.0  0.07801  0.34599  0.66417  1.0000 0.0666226518
C   C29       1.0  0.34599  0.66417  0.07801  1.0000 0.0666226518
C   C30       1.0  0.66417  0.07801  0.34599  1.0000 0.0666226518
C   C31       1.0  0.93635  0.63538  0.40226  1.0000 -0.1445552765
C   C32       1.0  0.63538  0.40226  0.93635  1.0000 -0.1445552765
C   C33       1.0  0.40226  0.93635  0.63538  1.0000 -0.1445552765
C   C34       1.0  0.06365  0.36462  0.59774  1.0000 -0.1445552765
C   C35       1.0  0.36462  0.59774  0.06365  1.0000 -0.1445552765
C   C36       1.0  0.59774  0.06365  0.36462  1.0000 -0.1445552765
C   C37       1.0  0.87489  0.57812  0.47964  1.0000 0.6069847417
C   C38       1.0  0.57812  0.47964  0.87489  1.0000 0.6069847417
C   C39       1.0  0.47964  0.87489  0.57812  1.0000 0.6069847417
C   C40       1.0  0.12511  0.42188  0.52036  1.0000 0.6069847417
C   C41       1.0  0.42188  0.52036  0.12511  1.0000 0.6069847417
C   C42       1.0  0.52036  0.12511  0.42188  1.0000 0.6069847417
C   C43       1.0  0.64165  0.52874  0.18419  1.0000 0.6207061779
C   C44       1.0  0.52874  0.18419  0.64165  1.0000 0.6207061779
C   C45       1.0  0.18419  0.64165  0.52874  1.0000 0.6207061779
C   C46       1.0  0.35835  0.47126  0.81581  1.0000 0.6207061779
C   C47       1.0  0.47126  0.81581  0.35835  1.0000 0.6207061779
C   C48       1.0  0.81581  0.35835  0.47126  1.0000 0.6207061779
C   C49       1.0  0.00964  0.71396  0.34447  1.0000 0.0546524571
C   C50       1.0  0.71396  0.34447  0.00964  1.0000 0.0546524571
C   C51       1.0  0.34447  0.00964  0.71396  1.0000 0.0546524571
C   C52       1.0  0.99036  0.28604  0.65553  1.0000 0.0546524571
C   C53       1.0  0.28604  0.65553  0.99036  1.0000 0.0546524571
C   C54       1.0  0.65553  0.99036  0.28604  1.0000 0.0546524571
C   C55       1.0  0.02534  0.78867  0.33959  1.0000 -0.1445552765
C   C56       1.0  0.78867  0.33959  0.02534  1.0000 -0.1445552765
C   C57       1.0  0.33959  0.02534  0.78867  1.0000 -0.1453823823
C   C58       1.0  0.97466  0.21133  0.66041  1.0000 -0.1453823823
C   C59       1.0  0.21133  0.66041  0.97466  1.0000 -0.1453823823
C   C60       1.0  0.66041  0.97466  0.21133  1.0000 -0.1445552765
C   C61       1.0  0.11251  0.85340  0.35929  1.0000 -0.0951302353
C   C62       1.0  0.85340  0.35929  0.11251  1.0000 -0.0951302353
C   C63       1.0  0.35929  0.11251  0.85340  1.0000 -0.0951302353
C   C64       1.0  0.88749  0.14660  0.64071  1.0000 -0.0951302353
C   C65       1.0  0.14660  0.64071  0.88749  1.0000 -0.0951302353
C   C66       1.0  0.64071  0.88749  0.14660  1.0000 -0.0951302353
C   C67       1.0  0.18552  0.84419  0.38327  1.0000 -0.0352808017
C   C68       1.0  0.84419  0.38327  0.18552  1.0000 -0.0352808017
C   C69       1.0  0.38327  0.18552  0.84419  1.0000 -0.0352808017
C   C70       1.0  0.81448  0.15581  0.61673  1.0000 -0.0352808017
C   C71       1.0  0.15581  0.61673  0.81448  1.0000 -0.0352808017
C   C72       1.0  0.61673  0.81448  0.15581  1.0000 -0.0352808017
C   C73       1.0  0.16789  0.76701  0.38415  1.0000 -0.1103944242
C   C74       1.0  0.76701  0.38415  0.16789  1.0000 -0.1103944242
C   C75       1.0  0.38415  0.16789  0.76701  1.0000 -0.1103944242
C   C76       1.0  0.83211  0.23299  0.61585  1.0000 -0.1103944242
C   C77       1.0  0.23299  0.61585  0.83211  1.0000 -0.1103944242
C   C78       1.0  0.61585  0.83211  0.23299  1.0000 -0.1103944242
C   C79       1.0  0.08051  0.70187  0.36447  1.0000 -0.1445552765
C   C80       1.0  0.70187  0.36447  0.08051  1.0000 -0.1445552765
C   C81       1.0  0.36447  0.08051  0.70187  1.0000 -0.1445552765
C   C82       1.0  0.91949  0.29813  0.63553  1.0000 -0.1445552765
C   C83       1.0  0.29813  0.63553  0.91949  1.0000 -0.1445552765
C   C84       1.0  0.63553  0.91949  0.29813  1.0000 -0.1445552765
C   C85       1.0  0.28198  0.91886  0.40927  1.0000 0.6207061779
C   C86       1.0  0.91886  0.40927  0.28198  1.0000 0.6207061779
C   C87       1.0  0.40927  0.28198  0.91886  1.0000 0.6207061779
C   C88       1.0  0.71802  0.08114  0.59073  1.0000 0.6207061779
C   C89       1.0  0.08114  0.59073  0.71802  1.0000 0.6207061779
C   C90       1.0  0.59073  0.71802  0.08114  1.0000 0.6207061779
O   O1        1.0  0.94701  0.58086  0.52670  1.0000 -0.67014344
O   O2        1.0  0.58086  0.52670  0.94701  1.0000 -0.67014344
O   O3        1.0  0.52670  0.94701  0.58086  1.0000 -0.67014344
O   O4        1.0  0.05299  0.41914  0.47330  1.0000 -0.67014344
O   O5        1.0  0.41914  0.47330  0.05299  1.0000 -0.67014344
O   O6        1.0  0.47330  0.05299  0.41914  1.0000 -0.6753170419
O   O7        1.0  0.81819  0.57101  0.50040  1.0000 -0.6255279708
O   O8        1.0  0.57101  0.50040  0.81819  1.0000 -0.6219914214
O   O9        1.0  0.50040  0.81819  0.57101  1.0000 -0.6219914214
O   O10       1.0  0.18181  0.42899  0.49960  1.0000 -0.6219914214
O   O11       1.0  0.42899  0.49960  0.18181  1.0000 -0.6219914214
O   O12       1.0  0.49960  0.18181  0.42899  1.0000 -0.6219914214
O   O13       1.0  0.62677  0.54187  0.12180  1.0000 -0.6219914214
O   O14       1.0  0.54187  0.12180  0.62677  1.0000 -0.6219914214
O   O15       1.0  0.12180  0.62677  0.54187  1.0000 -0.6219914214
O   O16       1.0  0.37323  0.45813  0.87820  1.0000 -0.6219914214
O   O17       1.0  0.45813  0.87820  0.37323  1.0000 -0.6219914214
O   O18       1.0  0.87820  0.37323  0.45813  1.0000 -0.6219914214
O   O19       1.0  0.57678  0.48333  0.18953  1.0000 -0.67014344
O   O20       1.0  0.48333  0.18953  0.57678  1.0000 -0.67014344
O   O21       1.0  0.18953  0.57678  0.48333  1.0000 -0.67014344
O   O22       1.0  0.42322  0.51667  0.81047  1.0000 -0.67014344
O   O23       1.0  0.51667  0.81047  0.42322  1.0000 -0.67014344
O   O24       1.0  0.81047  0.42322  0.51667  1.0000 -0.67014344
O   O25       1.0  0.34742  0.91044  0.43190  1.0000 -0.6072170862
O   O26       1.0  0.91044  0.43190  0.34742  1.0000 -0.6072170862
O   O27       1.0  0.43190  0.34742  0.91044  1.0000 -0.6072170862
O   O28       1.0  0.65258  0.08956  0.56810  1.0000 -0.6072170862
O   O29       1.0  0.08956  0.56810  0.65258  1.0000 -0.6072170862
O   O30       1.0  0.56810  0.65258  0.08956  1.0000 -0.6072170862
O   O31       1.0  0.28773  0.98546  0.40607  1.0000 -0.6928910741
O   O32       1.0  0.98546  0.40607  0.28773  1.0000 -0.6928910741
O   O33       1.0  0.40607  0.28773  0.98546  1.0000 -0.6928910741
O   O34       1.0  0.71227  0.01454  0.59393  1.0000 -0.6928910741
O   O35       1.0  0.01454  0.59393  0.71227  1.0000 -0.6928910741
O   O36       1.0  0.59393  0.71227  0.01454  1.0000 -0.6928910741
