# DDEC6 charges by PACMAN v1.1 (https://github.com/mtap-research/PACMAN-charge/)
data_2009[Cu][tbo]3[ASR]4
_chemical_formula_sum              "Cu12 H24 C72 O48"
_cell_length_a       18.6103
_cell_length_b       18.6103
_cell_length_c       18.6103
_cell_angle_alpha    60
_cell_angle_beta     60
_cell_angle_gamma    60

_symmetry_space_group_name_H-M    "P 1"
_symmetry_Int_Tables_number       1

loop_
  _symmetry_equiv_pos_as_xyz
  'x, y, z'

loop_
  _atom_site_type_symbol
  _atom_site_label
  _atom_site_symmetry_multiplicity
  _atom_site_fract_x
  _atom_site_fract_y
  _atom_site_fract_z
  _atom_site_occupancy
  _atom_site_charge
Cu  Cu1       1.0  0.50000  0.07040  0.92960  1.0000 0.8630475147
Cu  Cu2       1.0  0.07040  0.50000  0.50000  1.0000 0.8630475147
Cu  Cu3       1.0  0.92960  0.50000  0.50000  1.0000 0.8630475147
Cu  Cu4       1.0  0.50000  0.92960  0.07040  1.0000 0.8630475147
Cu  Cu5       1.0  0.50000  0.92960  0.50000  1.0000 0.8630475147
Cu  Cu6       1.0  0.07040  0.50000  0.92960  1.0000 0.8630475147
Cu  Cu7       1.0  0.92960  0.50000  0.07040  1.0000 0.8630475147
Cu  Cu8       1.0  0.50000  0.07040  0.50000  1.0000 0.8630475147
Cu  Cu9       1.0  0.50000  0.50000  0.07040  1.0000 0.8630475147
Cu  Cu10      1.0  0.07040  0.92960  0.50000  1.0000 0.8630475147
Cu  Cu11      1.0  0.92960  0.07040  0.50000  1.0000 0.8630475147
Cu  Cu12      1.0  0.50000  0.50000  0.92960  1.0000 0.8630475147
H   H1        1.0  0.46580  0.98940  0.77240  1.0000 0.136494916
H   H2        1.0  0.98940  0.46580  0.77240  1.0000 0.136494916
H   H3        1.0  0.77240  0.77240  0.46580  1.0000 0.136494916
H   H4        1.0  0.77240  0.77240  0.98940  1.0000 0.136494916
H   H5        1.0  0.46580  0.77240  0.77240  1.0000 0.136494916
H   H6        1.0  0.98940  0.77240  0.77240  1.0000 0.136494916
H   H7        1.0  0.77240  0.46580  0.98940  1.0000 0.136494916
H   H8        1.0  0.77240  0.98940  0.46580  1.0000 0.136494916
H   H9        1.0  0.46580  0.77240  0.98940  1.0000 0.136494916
H   H10       1.0  0.98940  0.77240  0.46580  1.0000 0.136494916
H   H11       1.0  0.77240  0.98940  0.77240  1.0000 0.136494916
H   H12       1.0  0.77240  0.46580  0.77240  1.0000 0.136494916
H   H13       1.0  0.01060  0.53420  0.22760  1.0000 0.136494916
H   H14       1.0  0.53420  0.01060  0.22760  1.0000 0.136494916
H   H15       1.0  0.22760  0.22760  0.53420  1.0000 0.136494916
H   H16       1.0  0.22760  0.22760  0.01060  1.0000 0.136494916
H   H17       1.0  0.22760  0.53420  0.22760  1.0000 0.136494916
H   H18       1.0  0.22760  0.01060  0.22760  1.0000 0.136494916
H   H19       1.0  0.53420  0.22760  0.01060  1.0000 0.136494916
H   H20       1.0  0.01060  0.22760  0.53420  1.0000 0.136494916
H   H21       1.0  0.22760  0.53420  0.01060  1.0000 0.136494916
H   H22       1.0  0.22760  0.01060  0.53420  1.0000 0.136494916
H   H23       1.0  0.01060  0.22760  0.22760  1.0000 0.136494916
H   H24       1.0  0.53420  0.22760  0.22760  1.0000 0.136494916
C   C1        1.0  0.46550  0.93190  0.80130  1.0000 -0.0691954276
C   C2        1.0  0.93190  0.46550  0.80130  1.0000 -0.0691954276
C   C3        1.0  0.80130  0.80130  0.46550  1.0000 -0.0691954276
C   C4        1.0  0.80130  0.80130  0.93190  1.0000 -0.0691954276
C   C5        1.0  0.46550  0.80130  0.80130  1.0000 -0.0691954276
C   C6        1.0  0.93190  0.80130  0.80130  1.0000 -0.0691954276
C   C7        1.0  0.80130  0.46550  0.93190  1.0000 -0.0691954276
C   C8        1.0  0.80130  0.93190  0.46550  1.0000 -0.0691954276
C   C9        1.0  0.46550  0.80130  0.93190  1.0000 -0.0691954276
C   C10       1.0  0.93190  0.80130  0.46550  1.0000 -0.0691954276
C   C11       1.0  0.80130  0.93190  0.80130  1.0000 -0.0691954276
C   C12       1.0  0.80130  0.46550  0.80130  1.0000 -0.0691954276
C   C13       1.0  0.06810  0.53450  0.19870  1.0000 -0.0691954276
C   C14       1.0  0.53450  0.06810  0.19870  1.0000 -0.0691954276
C   C15       1.0  0.19870  0.19870  0.53450  1.0000 -0.0691954276
C   C16       1.0  0.19870  0.19870  0.06810  1.0000 -0.0691954276
C   C17       1.0  0.19870  0.53450  0.19870  1.0000 -0.0691954276
C   C18       1.0  0.19870  0.06810  0.19870  1.0000 -0.0691954276
C   C19       1.0  0.53450  0.19870  0.06810  1.0000 -0.0691954276
C   C20       1.0  0.06810  0.19870  0.53450  1.0000 -0.0691954276
C   C21       1.0  0.19870  0.53450  0.06810  1.0000 -0.0691954276
C   C22       1.0  0.19870  0.06810  0.53450  1.0000 -0.0691954276
C   C23       1.0  0.06810  0.19870  0.19870  1.0000 -0.0691954276
C   C24       1.0  0.53450  0.19870  0.19870  1.0000 -0.0691954276
C   C25       1.0  0.47340  0.93140  0.93140  1.0000 0.5812536199
C   C26       1.0  0.46530  0.88850  0.88850  1.0000 -0.044778359
C   C27       1.0  0.93140  0.47340  0.66380  1.0000 0.5812536199
C   C28       1.0  0.88850  0.46530  0.75770  1.0000 -0.044778359
C   C29       1.0  0.93140  0.66380  0.47340  1.0000 0.5812536199
C   C30       1.0  0.88850  0.75770  0.46530  1.0000 -0.044778359
C   C31       1.0  0.66380  0.93140  0.93140  1.0000 0.5812536199
C   C32       1.0  0.75770  0.88850  0.88850  1.0000 -0.044778359
C   C33       1.0  0.47340  0.93140  0.66380  1.0000 0.5812536199
C   C34       1.0  0.46530  0.88850  0.75770  1.0000 -0.044778359
C   C35       1.0  0.93140  0.66380  0.93140  1.0000 0.5812536199
C   C36       1.0  0.88850  0.75770  0.88850  1.0000 -0.044778359
C   C37       1.0  0.93140  0.47340  0.93140  1.0000 0.5812536199
C   C38       1.0  0.88850  0.46530  0.88850  1.0000 -0.044778359
C   C39       1.0  0.66380  0.93140  0.47340  1.0000 0.5812536199
C   C40       1.0  0.75770  0.88850  0.46530  1.0000 -0.0461698416
C   C41       1.0  0.47340  0.66380  0.93140  1.0000 0.5812536199
C   C42       1.0  0.46530  0.75770  0.88850  1.0000 -0.044778359
C   C43       1.0  0.93140  0.93140  0.47340  1.0000 0.5812536199
C   C44       1.0  0.88850  0.88850  0.46530  1.0000 -0.0461698416
C   C45       1.0  0.93140  0.93140  0.66380  1.0000 0.5812536199
C   C46       1.0  0.88850  0.88850  0.75770  1.0000 -0.044778359
C   C47       1.0  0.66380  0.47340  0.93140  1.0000 0.5812536199
C   C48       1.0  0.75770  0.46530  0.88850  1.0000 -0.044778359
C   C49       1.0  0.06860  0.52660  0.06860  1.0000 0.5812536199
C   C50       1.0  0.11150  0.53470  0.11150  1.0000 -0.044778359
C   C51       1.0  0.52660  0.06860  0.33620  1.0000 0.5812536199
C   C52       1.0  0.53470  0.11150  0.24230  1.0000 -0.044778359
C   C53       1.0  0.33620  0.06860  0.52660  1.0000 0.5812536199
C   C54       1.0  0.24230  0.11150  0.53470  1.0000 -0.044778359
C   C55       1.0  0.06860  0.33620  0.06860  1.0000 0.5812536199
C   C56       1.0  0.11150  0.24230  0.11150  1.0000 -0.044778359
C   C57       1.0  0.06860  0.52660  0.33620  1.0000 0.5812536199
C   C58       1.0  0.11150  0.53470  0.24230  1.0000 -0.044778359
C   C59       1.0  0.33620  0.06860  0.06860  1.0000 0.5812536199
C   C60       1.0  0.24230  0.11150  0.11150  1.0000 -0.044778359
C   C61       1.0  0.52660  0.06860  0.06860  1.0000 0.5812536199
C   C62       1.0  0.53470  0.11150  0.11150  1.0000 -0.044778359
C   C63       1.0  0.06860  0.33620  0.52660  1.0000 0.5812536199
C   C64       1.0  0.11150  0.24230  0.53470  1.0000 -0.0461698416
C   C65       1.0  0.33620  0.52660  0.06860  1.0000 0.5812536199
C   C66       1.0  0.24230  0.53470  0.11150  1.0000 -0.044778359
C   C67       1.0  0.06860  0.06860  0.52660  1.0000 0.5812536199
C   C68       1.0  0.11150  0.11150  0.53470  1.0000 -0.044778359
C   C69       1.0  0.06860  0.06860  0.33620  1.0000 0.5812536199
C   C70       1.0  0.11150  0.11150  0.24230  1.0000 -0.044778359
C   C71       1.0  0.52660  0.33620  0.06860  1.0000 0.5812536199
C   C72       1.0  0.53470  0.24230  0.11150  1.0000 -0.044778359
O   O1        1.0  0.47940  0.00760  0.88700  1.0000 -0.5175622857
O   O2        1.0  0.00760  0.47940  0.62600  1.0000 -0.5175622857
O   O3        1.0  0.88700  0.62600  0.47940  1.0000 -0.5175622857
O   O4        1.0  0.62600  0.88700  0.00760  1.0000 -0.5175622857
O   O5        1.0  0.47940  0.88700  0.62600  1.0000 -0.5175622857
O   O6        1.0  0.00760  0.62600  0.88700  1.0000 -0.5175622857
O   O7        1.0  0.88700  0.47940  0.00760  1.0000 -0.5175622857
O   O8        1.0  0.62600  0.00760  0.47940  1.0000 -0.5175622857
O   O9        1.0  0.47940  0.62600  0.00760  1.0000 -0.5175622857
O   O10       1.0  0.00760  0.88700  0.47940  1.0000 -0.5175622857
O   O11       1.0  0.88700  0.00760  0.62600  1.0000 -0.5175622857
O   O12       1.0  0.62600  0.47940  0.88700  1.0000 -0.5175622857
O   O13       1.0  0.99240  0.52060  0.11300  1.0000 -0.5175622857
O   O14       1.0  0.52060  0.99240  0.37400  1.0000 -0.5175622857
O   O15       1.0  0.37400  0.11300  0.52060  1.0000 -0.5175622857
O   O16       1.0  0.11300  0.37400  0.99240  1.0000 -0.5175622857
O   O17       1.0  0.11300  0.52060  0.37400  1.0000 -0.5175622857
O   O18       1.0  0.37400  0.99240  0.11300  1.0000 -0.5175622857
O   O19       1.0  0.52060  0.11300  0.99240  1.0000 -0.5175622857
O   O20       1.0  0.99240  0.37400  0.52060  1.0000 -0.5175622857
O   O21       1.0  0.37400  0.52060  0.99240  1.0000 -0.5175622857
O   O22       1.0  0.11300  0.99240  0.52060  1.0000 -0.5175622857
O   O23       1.0  0.99240  0.11300  0.37400  1.0000 -0.5175622857
O   O24       1.0  0.52060  0.37400  0.11300  1.0000 -0.5175622857
O   O25       1.0  0.52060  0.99240  0.11300  1.0000 -0.5175622857
O   O26       1.0  0.99240  0.52060  0.37400  1.0000 -0.5175622857
O   O27       1.0  0.11300  0.37400  0.52060  1.0000 -0.5175622857
O   O28       1.0  0.37400  0.11300  0.99240  1.0000 -0.5175622857
O   O29       1.0  0.52060  0.11300  0.37400  1.0000 -0.5175622857
O   O30       1.0  0.99240  0.37400  0.11300  1.0000 -0.5175622857
O   O31       1.0  0.11300  0.52060  0.99240  1.0000 -0.5175622857
O   O32       1.0  0.37400  0.99240  0.52060  1.0000 -0.5175622857
O   O33       1.0  0.52060  0.37400  0.99240  1.0000 -0.5175622857
O   O34       1.0  0.99240  0.11300  0.52060  1.0000 -0.5175622857
O   O35       1.0  0.11300  0.99240  0.37400  1.0000 -0.5175622857
O   O36       1.0  0.37400  0.52060  0.11300  1.0000 -0.5175622857
O   O37       1.0  0.00760  0.47940  0.88700  1.0000 -0.5175622857
O   O38       1.0  0.47940  0.00760  0.62600  1.0000 -0.5175622857
O   O39       1.0  0.62600  0.88700  0.47940  1.0000 -0.5175622857
O   O40       1.0  0.88700  0.62600  0.00760  1.0000 -0.5175622857
O   O41       1.0  0.88700  0.47940  0.62600  1.0000 -0.5175622857
O   O42       1.0  0.62600  0.00760  0.88700  1.0000 -0.5175622857
O   O43       1.0  0.47940  0.88700  0.00760  1.0000 -0.5175622857
O   O44       1.0  0.00760  0.62600  0.47940  1.0000 -0.5175622857
O   O45       1.0  0.62600  0.47940  0.00760  1.0000 -0.5175622857
O   O46       1.0  0.88700  0.00760  0.47940  1.0000 -0.5175622857
O   O47       1.0  0.00760  0.88700  0.62600  1.0000 -0.5175622857
O   O48       1.0  0.47940  0.62600  0.88700  1.0000 -0.5175622857
