# DDEC6 charges by PACMAN v1.1 (https://github.com/mtap-research/PACMAN-charge/)
data_2009[Zn][pcu]3[ASR]3
_chemical_formula_sum              "Zn4 H48 C96 N8 O24"
_cell_length_a       12.975
_cell_length_b       13.06
_cell_length_c       22.382
_cell_angle_alpha    95.776
_cell_angle_beta     92.004
_cell_angle_gamma    112.678

_symmetry_space_group_name_H-M    "P 1"
_symmetry_Int_Tables_number       1

loop_
  _symmetry_equiv_pos_as_xyz
  'x, y, z'

loop_
  _atom_site_type_symbol
  _atom_site_label
  _atom_site_symmetry_multiplicity
  _atom_site_fract_x
  _atom_site_fract_y
  _atom_site_fract_z
  _atom_site_occupancy
  _atom_site_charge
Zn  Zn1       1.0  0.13998  0.23918  0.70051  1.0000 0.8326611981
Zn  Zn2       1.0  0.14634  0.28428  0.83278  1.0000 0.8326611981
Zn  Zn3       1.0  0.86002  0.76082  0.29949  1.0000 0.8326611981
Zn  Zn4       1.0  0.85366  0.71572  0.16722  1.0000 0.8326611981
H   H1        1.0  0.28360  0.36340  0.61050  1.0000 0.1212973183
H   H2        1.0  0.28940  0.36540  0.50660  1.0000 0.1433035709
H   H3        1.0  0.98780  0.10400  0.48610  1.0000 0.1433035709
H   H4        1.0  0.99450  0.10530  0.59000  1.0000 0.1212973183
H   H5        1.0  0.15960  0.00220  0.29990  1.0000 0.1286313936
H   H6        1.0  0.15840  0.00640  0.19480  1.0000 0.1286313936
H   H7        1.0  0.12860  0.49460  0.23170  1.0000 0.1286313936
H   H8        1.0  0.12230  0.48630  0.33600  1.0000 0.1286313936
H   H9        1.0  0.80160  0.20300  0.66060  1.0000 0.1286313936
H   H10       1.0  0.63010  0.21800  0.64940  1.0000 0.1212973183
H   H11       1.0  0.47220  0.25270  0.69570  1.0000 0.1286313936
H   H12       1.0  0.50020  0.35530  0.87500  1.0000 0.1212973183
H   H13       1.0  0.67490  0.34990  0.88470  1.0000 0.1212973183
H   H14       1.0  0.82530  0.29820  0.83970  1.0000 0.1286313936
H   H15       1.0  0.13720  0.89940  0.68730  1.0000 0.1286313936
H   H16       1.0  0.16040  0.72550  0.64720  1.0000 0.1212973183
H   H17       1.0  0.17620  0.55950  0.66370  1.0000 0.1286313936
H   H18       1.0  0.15960  0.62620  0.84310  1.0000 0.1286313936
H   H19       1.0  0.14100  0.80290  0.88320  1.0000 0.1212973183
H   H20       1.0  0.12240  0.96700  0.86680  1.0000 0.1212973183
H   H21       1.0  0.29030  0.40070  0.94530  1.0000 0.1212973183
H   H22       1.0  0.29460  0.39160  0.04810  1.0000 0.1477235012
H   H23       1.0  0.99310  0.13250  0.02130  1.0000 0.1477235012
H   H24       1.0  0.99730  0.14810  0.91850  1.0000 0.1212973183
H   H25       1.0  0.71640  0.63660  0.38950  1.0000 0.1212973183
H   H26       1.0  0.71060  0.63460  0.49340  1.0000 0.1433035709
H   H27       1.0  0.01220  0.89600  0.51390  1.0000 0.1433035709
H   H28       1.0  0.00550  0.89470  0.41000  1.0000 0.1212973183
H   H29       1.0  0.84040  0.99780  0.70010  1.0000 0.1286313936
H   H30       1.0  0.84160  0.99360  0.80520  1.0000 0.1286313936
H   H31       1.0  0.87140  0.50540  0.76830  1.0000 0.1286313936
H   H32       1.0  0.87770  0.51370  0.66400  1.0000 0.1286313936
H   H33       1.0  0.19840  0.79700  0.33940  1.0000 0.1286313936
H   H34       1.0  0.36990  0.78200  0.35060  1.0000 0.1212973183
H   H35       1.0  0.52780  0.74730  0.30430  1.0000 0.1286313936
H   H36       1.0  0.49980  0.64470  0.12500  1.0000 0.1212973183
H   H37       1.0  0.32510  0.65010  0.11530  1.0000 0.1212973183
H   H38       1.0  0.17470  0.70180  0.16030  1.0000 0.1286313936
H   H39       1.0  0.86280  0.10060  0.31270  1.0000 0.1286313936
H   H40       1.0  0.83960  0.27450  0.35280  1.0000 0.1212973183
H   H41       1.0  0.82380  0.44050  0.33630  1.0000 0.1286313936
H   H42       1.0  0.84040  0.37380  0.15690  1.0000 0.1286313936
H   H43       1.0  0.85900  0.19710  0.11680  1.0000 0.1212973183
H   H44       1.0  0.87760  0.03300  0.13320  1.0000 0.1212973183
H   H45       1.0  0.70970  0.59930  0.05470  1.0000 0.1212973183
H   H46       1.0  0.70540  0.60840  0.95190  1.0000 0.1477235012
H   H47       1.0  0.00690  0.86750  0.97870  1.0000 0.1477235012
H   H48       1.0  0.00270  0.85190  0.08150  1.0000 0.1212973183
C   C1        1.0  0.11850  0.05660  0.76437  1.0000 0.5790434793
C   C2        1.0  0.93760  0.23430  0.75884  1.0000 0.5790434793
C   C3        1.0  0.17290  0.46670  0.76530  1.0000 0.5880156621
C   C4        1.0  0.35170  0.29860  0.77831  1.0000 0.5880156621
C   C5        1.0  0.22350  0.30950  0.58461  1.0000 0.1060817927
C   C6        1.0  0.22740  0.31210  0.52285  1.0000 -0.2017573252
C   C7        1.0  0.13820  0.23450  0.48570  1.0000 0.2220671937
C   C8        1.0  0.05000  0.15740  0.51088  1.0000 -0.2017573252
C   C9        1.0  0.05420  0.15940  0.57273  1.0000 0.1060817927
C   C10       1.0  0.14820  0.14650  0.38626  1.0000 0.4390531793
C   C11       1.0  0.14920  0.15190  0.32062  1.0000 -0.0615615718
C   C12       1.0  0.15520  0.06470  0.28329  1.0000 -0.0695800841
C   C13       1.0  0.15480  0.06730  0.22047  1.0000 -0.0796638663
C   C14       1.0  0.14930  0.15860  0.19626  1.0000 -0.0695800841
C   C15       1.0  0.14670  0.15890  0.13026  1.0000 0.4329204426
C   C16       1.0  0.13660  0.34820  0.14461  1.0000 0.4390531793
C   C17       1.0  0.13740  0.34340  0.21063  1.0000 -0.0519499335
C   C18       1.0  0.13120  0.43130  0.24808  1.0000 -0.0796638663
C   C19       1.0  0.12850  0.42670  0.31029  1.0000 -0.0796638663
C   C20       1.0  0.13490  0.33550  0.33433  1.0000 -0.0615615718
C   C21       1.0  0.12990  0.33140  0.39983  1.0000 0.4329204426
C   C22       1.0  0.14310  0.24620  0.29681  1.0000 0.0319604553
C   C23       1.0  0.14410  0.24970  0.23401  1.0000 0.0319604553
C   C24       1.0  0.82700  0.24560  0.75231  1.0000 -0.0254632853
C   C25       1.0  0.76980  0.22400  0.69490  1.0000 -0.1123236701
C   C26       1.0  0.66840  0.23340  0.68830  1.0000 -0.1509441391
C   C27       1.0  0.62010  0.26560  0.73891  1.0000 0.0724246759
C   C28       1.0  0.51340  0.27100  0.73391  1.0000 -0.1578551342
C   C29       1.0  0.46880  0.30240  0.78373  1.0000 -0.0180223007
C   C30       1.0  0.53080  0.33240  0.84070  1.0000 -0.1163825824
C   C31       1.0  0.63370  0.32850  0.84640  1.0000 -0.1509441391
C   C32       1.0  0.68110  0.29280  0.79600  1.0000 0.0761312448
C   C33       1.0  0.78460  0.28110  0.80144  1.0000 -0.1509441391
C   C34       1.0  0.12830  0.94810  0.77395  1.0000 -0.0180223007
C   C35       1.0  0.13800  0.87930  0.72687  1.0000 -0.1578551342
C   C36       1.0  0.14920  0.77770  0.73552  1.0000 0.0761312448
C   C37       1.0  0.15990  0.70590  0.68700  1.0000 -0.1509441391
C   C38       1.0  0.16940  0.60770  0.69670  1.0000 -0.1163825824
C   C39       1.0  0.16920  0.57800  0.75620  1.0000 -0.0180223007
C   C40       1.0  0.15980  0.64710  0.80360  1.0000 -0.1509441391
C   C41       1.0  0.15040  0.74940  0.79537  1.0000 0.0724246759
C   C42       1.0  0.14020  0.82180  0.84330  1.0000 -0.1578551342
C   C43       1.0  0.12930  0.91900  0.83377  1.0000 -0.1273747593
C   C44       1.0  0.22910  0.34560  0.96106  1.0000 0.1000328936
C   C45       1.0  0.23260  0.34090  0.02211  1.0000 -0.2086897329
C   C46       1.0  0.14320  0.26030  0.04475  1.0000 0.2220671937
C   C47       1.0  0.05510  0.18820  0.00646  1.0000 -0.2017573252
C   C48       1.0  0.05810  0.19830  0.94543  1.0000 0.1212973183
C   C49       1.0  0.88150  0.94340  0.23563  1.0000 0.5790434793
C   C50       1.0  0.06240  0.76570  0.24116  1.0000 0.5790434793
C   C51       1.0  0.82710  0.53330  0.23470  1.0000 0.5880156621
C   C52       1.0  0.64830  0.70140  0.22169  1.0000 0.5880156621
C   C53       1.0  0.77650  0.69050  0.41539  1.0000 0.1060817927
C   C54       1.0  0.77260  0.68790  0.47715  1.0000 -0.2017573252
C   C55       1.0  0.86180  0.76550  0.51430  1.0000 0.2220671937
C   C56       1.0  0.95000  0.84260  0.48912  1.0000 -0.2086897329
C   C57       1.0  0.94580  0.84060  0.42727  1.0000 0.1060817927
C   C58       1.0  0.85180  0.85350  0.61374  1.0000 0.4390531793
C   C59       1.0  0.85080  0.84810  0.67938  1.0000 -0.0615615718
C   C60       1.0  0.84480  0.93530  0.71671  1.0000 -0.0695800841
C   C61       1.0  0.84520  0.93270  0.77953  1.0000 -0.0796638663
C   C62       1.0  0.85070  0.84140  0.80374  1.0000 -0.0695800841
C   C63       1.0  0.85330  0.84110  0.86974  1.0000 0.4329204426
C   C64       1.0  0.86340  0.65180  0.85539  1.0000 0.4390531793
C   C65       1.0  0.86260  0.65660  0.78937  1.0000 -0.0519499335
C   C66       1.0  0.86880  0.56870  0.75192  1.0000 -0.0796638663
C   C67       1.0  0.87150  0.57330  0.68971  1.0000 -0.0796638663
C   C68       1.0  0.86510  0.66450  0.66567  1.0000 -0.0615615718
C   C69       1.0  0.87010  0.66860  0.60017  1.0000 0.4329204426
C   C70       1.0  0.85690  0.75380  0.70319  1.0000 0.0319604553
C   C71       1.0  0.85590  0.75030  0.76599  1.0000 0.0319604553
C   C72       1.0  0.17300  0.75440  0.24769  1.0000 -0.0254632853
C   C73       1.0  0.23020  0.77600  0.30510  1.0000 -0.1123236701
C   C74       1.0  0.33160  0.76660  0.31170  1.0000 -0.1509441391
C   C75       1.0  0.37990  0.73440  0.26109  1.0000 0.0724246759
C   C76       1.0  0.48660  0.72900  0.26609  1.0000 -0.1578551342
C   C77       1.0  0.53120  0.69760  0.21627  1.0000 -0.0180223007
C   C78       1.0  0.46920  0.66760  0.15930  1.0000 -0.1163825824
C   C79       1.0  0.36630  0.67150  0.15360  1.0000 -0.1509441391
C   C80       1.0  0.31890  0.70720  0.20400  1.0000 0.0761312448
C   C81       1.0  0.21540  0.71890  0.19856  1.0000 -0.1509441391
C   C82       1.0  0.87170  0.05190  0.22605  1.0000 -0.0180223007
C   C83       1.0  0.86200  0.12070  0.27313  1.0000 -0.1578551342
C   C84       1.0  0.85080  0.22230  0.26448  1.0000 0.0761312448
C   C85       1.0  0.84010  0.29410  0.31300  1.0000 -0.1509441391
C   C86       1.0  0.83060  0.39230  0.30330  1.0000 -0.1163825824
C   C87       1.0  0.83080  0.42200  0.24380  1.0000 -0.0180223007
C   C88       1.0  0.84020  0.35290  0.19640  1.0000 -0.1509441391
C   C89       1.0  0.84960  0.25060  0.20463  1.0000 0.0724246759
C   C90       1.0  0.85980  0.17820  0.15670  1.0000 -0.1578551342
C   C91       1.0  0.87070  0.08100  0.16623  1.0000 -0.1273747593
C   C92       1.0  0.77090  0.65440  0.03894  1.0000 0.1000328936
C   C93       1.0  0.76740  0.65910  0.97789  1.0000 -0.2086897329
C   C94       1.0  0.85680  0.73970  0.95525  1.0000 0.2220671937
C   C95       1.0  0.94490  0.81180  0.99354  1.0000 -0.2086897329
C   C96       1.0  0.94190  0.80170  0.05457  1.0000 0.1212973183
N   N1        1.0  0.13900  0.23460  0.60920  1.0000 -0.2086897329
N   N2        1.0  0.13700  0.23640  0.42160  1.0000 -0.2363763287
N   N3        1.0  0.14280  0.25580  0.10903  1.0000 -0.2363763287
N   N4        1.0  0.14370  0.27630  0.92303  1.0000 -0.2086897329
N   N5        1.0  0.86100  0.76540  0.39080  1.0000 -0.2086897329
N   N6        1.0  0.86300  0.76360  0.57840  1.0000 -0.2363763287
N   N7        1.0  0.85720  0.74420  0.89097  1.0000 -0.2363763287
N   N8        1.0  0.85630  0.72370  0.07697  1.0000 -0.2086897329
O   O1        1.0  0.11120  0.07730  0.71073  1.0000 -0.5405854598
O   O2        1.0  0.11930  0.11930  0.81020  1.0000 -0.5495932683
O   O3        1.0  0.97780  0.21370  0.71126  1.0000 -0.5405854598
O   O4        1.0  0.98150  0.24680  0.81146  1.0000 -0.5405854598
O   O5        1.0  0.17420  0.40560  0.71867  1.0000 -0.5495932683
O   O6        1.0  0.17220  0.44230  0.81808  1.0000 -0.5328951016
O   O7        1.0  0.30210  0.27350  0.72631  1.0000 -0.5405854598
O   O8        1.0  0.31130  0.31810  0.82626  1.0000 -0.5405854598
O   O9        1.0  0.15560  0.06990  0.40984  1.0000 -0.4310087397
O   O10       1.0  0.14750  0.08220  0.09536  1.0000 -0.4310087397
O   O11       1.0  0.12980  0.42510  0.12129  1.0000 -0.4042067662
O   O12       1.0  0.11740  0.40260  0.43425  1.0000 -0.4176259771
O   O13       1.0  0.88880  0.92270  0.28927  1.0000 -0.5405854598
O   O14       1.0  0.88070  0.88070  0.18980  1.0000 -0.5495932683
O   O15       1.0  0.02220  0.78630  0.28874  1.0000 -0.5405854598
O   O16       1.0  0.01850  0.75320  0.18854  1.0000 -0.5405854598
O   O17       1.0  0.82580  0.59440  0.28133  1.0000 -0.5495932683
O   O18       1.0  0.82780  0.55770  0.18192  1.0000 -0.5328951016
O   O19       1.0  0.69790  0.72650  0.27369  1.0000 -0.5405854598
O   O20       1.0  0.68870  0.68190  0.17374  1.0000 -0.5405854598
O   O21       1.0  0.84440  0.93010  0.59016  1.0000 -0.4310087397
O   O22       1.0  0.85250  0.91780  0.90464  1.0000 -0.4310087397
O   O23       1.0  0.87020  0.57490  0.87871  1.0000 -0.4042067662
O   O24       1.0  0.88260  0.59740  0.56575  1.0000 -0.4176259771
