# DDEC6 charges by PACMAN v1.1 (https://github.com/mtap-research/PACMAN-charge/)
data_2009[NdAg][nan]3[ASR]1
_chemical_formula_sum              "Nd4 Ag4 H32 C56 N8 O32"
_cell_length_a       9.205
_cell_length_b       22.4015
_cell_length_c       9.7441
_cell_angle_alpha    90
_cell_angle_beta     116.992
_cell_angle_gamma    90

_symmetry_space_group_name_H-M    "P 1"
_symmetry_Int_Tables_number       1

loop_
  _symmetry_equiv_pos_as_xyz
  'x, y, z'

loop_
  _atom_site_type_symbol
  _atom_site_label
  _atom_site_symmetry_multiplicity
  _atom_site_fract_x
  _atom_site_fract_y
  _atom_site_fract_z
  _atom_site_occupancy
  _atom_site_charge
Nd  Nd1       1.0  0.38289  0.00887  0.14173  1.0000 2.0659937304
Nd  Nd2       1.0  0.11711  0.50887  0.85827  1.0000 2.0659937304
Nd  Nd3       1.0  0.61711  0.99113  0.85827  1.0000 2.0659937304
Nd  Nd4       1.0  0.88289  0.49113  0.14173  1.0000 2.0659937304
Ag  Ag1       1.0  0.98122  0.85263  0.82112  1.0000 0.336919744
Ag  Ag2       1.0  0.51878  0.35263  0.17888  1.0000 0.336919744
Ag  Ag3       1.0  0.01878  0.14737  0.17888  1.0000 0.336919744
Ag  Ag4       1.0  0.48122  0.64737  0.82112  1.0000 0.336919744
H   H1        1.0  0.81720  0.93290  0.52860  1.0000 0.1294769723
H   H2        1.0  0.68280  0.43290  0.47140  1.0000 0.1294769723
H   H3        1.0  0.18280  0.06710  0.47140  1.0000 0.1294769723
H   H4        1.0  0.31720  0.56710  0.52860  1.0000 0.1294769723
H   H5        1.0  0.21940  0.84030  0.68040  1.0000 0.0973657038
H   H6        1.0  0.28060  0.34030  0.31960  1.0000 0.0973657038
H   H7        1.0  0.78060  0.15970  0.31960  1.0000 0.0973657038
H   H8        1.0  0.71940  0.65970  0.68040  1.0000 0.0973657038
H   H9        1.0  0.25970  0.86900  0.47450  1.0000 0.1441641789
H   H10       1.0  0.24030  0.36900  0.52550  1.0000 0.1441641789
H   H11       1.0  0.74030  0.13100  0.52550  1.0000 0.1441641789
H   H12       1.0  0.75970  0.63100  0.47450  1.0000 0.1441641789
H   H13       1.0  0.06330  0.92640  0.28380  1.0000 0.1294769723
H   H14       1.0  0.43670  0.42640  0.71620  1.0000 0.1294769723
H   H15       1.0  0.93670  0.07360  0.71620  1.0000 0.1294769723
H   H16       1.0  0.56330  0.57360  0.28380  1.0000 0.1294769723
H   H17       1.0  0.00870  0.71960  0.85860  1.0000 0.1068278965
H   H18       1.0  0.49130  0.21960  0.14140  1.0000 0.1068278965
H   H19       1.0  0.99130  0.28040  0.14140  1.0000 0.1068278965
H   H20       1.0  0.50870  0.78040  0.85860  1.0000 0.1068278965
H   H21       1.0  0.88690  0.83130  0.09350  1.0000 0.1156815481
H   H22       1.0  0.61310  0.33130  0.90650  1.0000 0.1156815481
H   H23       1.0  0.11310  0.16870  0.90650  1.0000 0.1156815481
H   H24       1.0  0.38690  0.66870  0.09350  1.0000 0.1156815481
H   H25       1.0  0.85450  0.75590  0.23420  1.0000 0.1294769723
H   H26       1.0  0.64550  0.25590  0.76580  1.0000 0.1294769723
H   H27       1.0  0.14550  0.24410  0.76580  1.0000 0.1294769723
H   H28       1.0  0.35450  0.74410  0.23420  1.0000 0.1294769723
H   H29       1.0  0.89830  0.65810  0.18440  1.0000 0.1491804909
H   H30       1.0  0.60170  0.15810  0.81560  1.0000 0.1491804909
H   H31       1.0  0.10170  0.34190  0.81560  1.0000 0.1491804909
H   H32       1.0  0.39830  0.84190  0.18440  1.0000 0.1491804909
C   C1        1.0  0.91710  0.93540  0.38580  1.0000 -0.0688555823
C   C2        1.0  0.58290  0.43540  0.61420  1.0000 -0.0688555823
C   C3        1.0  0.08290  0.06460  0.61420  1.0000 -0.0688555823
C   C4        1.0  0.41710  0.56460  0.38580  1.0000 -0.0688555823
C   C5        1.0  0.90550  0.91910  0.51590  1.0000 0.0485991049
C   C6        1.0  0.59450  0.41910  0.48410  1.0000 0.0485991049
C   C7        1.0  0.09450  0.08090  0.48410  1.0000 0.0485991049
C   C8        1.0  0.40550  0.58090  0.51590  1.0000 0.0485991049
C   C9        1.0  0.14340  0.86530  0.60650  1.0000 0.0616938402
C   C10       1.0  0.35660  0.36530  0.39350  1.0000 0.0616938402
C   C11       1.0  0.85660  0.13470  0.39350  1.0000 0.0616938402
C   C12       1.0  0.64340  0.63470  0.60650  1.0000 0.0616938402
C   C13       1.0  0.16730  0.88130  0.48240  1.0000 -0.1162092048
C   C14       1.0  0.33270  0.38130  0.51760  1.0000 -0.1162092048
C   C15       1.0  0.83270  0.11870  0.51760  1.0000 -0.1162092048
C   C16       1.0  0.66730  0.61870  0.48240  1.0000 -0.1162092048
C   C17       1.0  0.05150  0.91590  0.37060  1.0000 -0.0564874444
C   C18       1.0  0.44850  0.41590  0.62940  1.0000 -0.0564874444
C   C19       1.0  0.94850  0.08410  0.62940  1.0000 -0.0564874444
C   C20       1.0  0.55150  0.58410  0.37060  1.0000 -0.0564874444
C   C21       1.0  0.78320  0.97120  0.26000  1.0000 0.6275897812
C   C22       1.0  0.71680  0.47120  0.74000  1.0000 0.6275897812
C   C23       1.0  0.21680  0.02880  0.74000  1.0000 0.6275897812
C   C24       1.0  0.28320  0.52880  0.26000  1.0000 0.6275897812
C   C25       1.0  0.95990  0.67840  0.01460  1.0000 -0.0688555823
C   C26       1.0  0.54010  0.17840  0.98540  1.0000 -0.0688555823
C   C27       1.0  0.04010  0.32160  0.98540  1.0000 -0.0688555823
C   C28       1.0  0.45990  0.82160  0.01460  1.0000 -0.0688555823
C   C29       1.0  0.97760  0.72670  0.93550  1.0000 0.0233442042
C   C30       1.0  0.52240  0.22670  0.06450  1.0000 0.0233442042
C   C31       1.0  0.02240  0.27330  0.06450  1.0000 0.0233442042
C   C32       1.0  0.47760  0.77330  0.93550  1.0000 0.0233442042
C   C33       1.0  0.90620  0.79230  0.07350  1.0000 0.067416985
C   C34       1.0  0.59380  0.29230  0.92650  1.0000 0.067416985
C   C35       1.0  0.09380  0.20770  0.92650  1.0000 0.067416985
C   C36       1.0  0.40620  0.70770  0.07350  1.0000 0.067416985
C   C37       1.0  0.88580  0.74740  0.15800  1.0000 -0.1458458412
C   C38       1.0  0.61420  0.24740  0.84200  1.0000 -0.1458458412
C   C39       1.0  0.11420  0.25260  0.84200  1.0000 -0.1458458412
C   C40       1.0  0.38580  0.75260  0.15800  1.0000 -0.1458458412
C   C41       1.0  0.91220  0.68950  0.12880  1.0000 -0.051753759
C   C42       1.0  0.58780  0.18950  0.87120  1.0000 -0.051753759
C   C43       1.0  0.08780  0.31050  0.87120  1.0000 -0.051753759
C   C44       1.0  0.41220  0.81050  0.12880  1.0000 -0.051753759
C   C45       1.0  0.99420  0.61710  0.97430  1.0000 0.5975043815
C   C46       1.0  0.50580  0.11710  0.02570  1.0000 0.5975043815
C   C47       1.0  0.00580  0.38290  0.02570  1.0000 0.5975043815
C   C48       1.0  0.49420  0.88290  0.97430  1.0000 0.5975043815
C   C49       1.0  0.00290  0.96710  0.97930  1.0000 0.4810977508
C   C50       1.0  0.49710  0.46710  0.02070  1.0000 0.4810977508
C   C51       1.0  0.99710  0.03290  0.02070  1.0000 0.4810977508
C   C52       1.0  0.50290  0.53290  0.97930  1.0000 0.4810977508
C   C53       1.0  0.50900  0.03490  0.50760  1.0000 0.4810977508
C   C54       1.0  0.99100  0.53490  0.49240  1.0000 0.4810977508
C   C55       1.0  0.49100  0.96510  0.49240  1.0000 0.4810977508
C   C56       1.0  0.00900  0.46510  0.50760  1.0000 0.4810977508
N   N1        1.0  0.01560  0.88390  0.62640  1.0000 -0.1826173771
N   N2        1.0  0.48440  0.38390  0.37360  1.0000 -0.1826173771
N   N3        1.0  0.98440  0.11610  0.37360  1.0000 -0.1826173771
N   N4        1.0  0.51560  0.61610  0.62640  1.0000 -0.1826173771
N   N5        1.0  0.95260  0.78320  0.96360  1.0000 -0.1860180456
N   N6        1.0  0.54740  0.28320  0.03640  1.0000 -0.1860180456
N   N7        1.0  0.04740  0.21680  0.03640  1.0000 -0.1860180456
N   N8        1.0  0.45260  0.71680  0.96360  1.0000 -0.1860180456
O   O1        1.0  0.67790  0.99527  0.29140  1.0000 -0.6600473482
O   O2        1.0  0.82210  0.49527  0.70860  1.0000 -0.6600473482
O   O3        1.0  0.32210  0.00473  0.70860  1.0000 -0.6600473482
O   O4        1.0  0.17790  0.50473  0.29140  1.0000 -0.6600473482
O   O5        1.0  0.78710  0.97272  0.13370  1.0000 -0.6502715009
O   O6        1.0  0.71290  0.47272  0.86630  1.0000 -0.6502715009
O   O7        1.0  0.21290  0.02728  0.86630  1.0000 -0.6502715009
O   O8        1.0  0.28710  0.52728  0.13370  1.0000 -0.6502715009
O   O9        1.0  0.05910  0.61362  0.88660  1.0000 -0.6019948084
O   O10       1.0  0.44090  0.11362  0.11340  1.0000 -0.6019948084
O   O11       1.0  0.94090  0.38638  0.11340  1.0000 -0.6019948084
O   O12       1.0  0.55910  0.88638  0.88660  1.0000 -0.6019948084
O   O13       1.0  0.95710  0.57248  0.02820  1.0000 -0.6861202377
O   O14       1.0  0.54290  0.07248  0.97180  1.0000 -0.6861202377
O   O15       1.0  0.04290  0.42752  0.97180  1.0000 -0.6861202377
O   O16       1.0  0.45710  0.92752  0.02820  1.0000 -0.6861202377
O   O17       1.0  0.87040  0.94454  0.88310  1.0000 -0.5696911249
O   O18       1.0  0.62960  0.44454  0.11690  1.0000 -0.5696911249
O   O19       1.0  0.12960  0.05546  0.11690  1.0000 -0.5696911249
O   O20       1.0  0.37040  0.55546  0.88310  1.0000 -0.5696911249
O   O21       1.0  0.13700  0.94104  0.04010  1.0000 -0.5696911249
O   O22       1.0  0.36300  0.44104  0.95990  1.0000 -0.5696911249
O   O23       1.0  0.86300  0.05896  0.95990  1.0000 -0.5696911249
O   O24       1.0  0.63700  0.55896  0.04010  1.0000 -0.5696911249
O   O25       1.0  0.44970  0.06386  0.38530  1.0000 -0.5764542181
O   O26       1.0  0.05030  0.56386  0.61470  1.0000 -0.5764542181
O   O27       1.0  0.55030  0.93614  0.61470  1.0000 -0.5764542181
O   O28       1.0  0.94970  0.43614  0.38530  1.0000 -0.5764542181
O   O29       1.0  0.57880  0.05526  0.64160  1.0000 -0.6019948084
O   O30       1.0  0.92120  0.55526  0.35840  1.0000 -0.6019948084
O   O31       1.0  0.42120  0.94474  0.35840  1.0000 -0.6019948084
O   O32       1.0  0.07880  0.44474  0.64160  1.0000 -0.6019948084
