# DDEC6 charges by PACMAN v1.1 (https://github.com/mtap-research/PACMAN-charge/)
data_2009[Yb][nan]3[ASR]1
_chemical_formula_sum              "Yb8 H240 C312 O72"
_cell_length_a       47.2497
_cell_length_b       41.2282
_cell_length_c       25.7827
_cell_angle_alpha    86.4407
_cell_angle_beta     60.5608
_cell_angle_gamma    32.9985

_symmetry_space_group_name_H-M    "P 1"
_symmetry_Int_Tables_number       1

loop_
  _symmetry_equiv_pos_as_xyz
  'x, y, z'

loop_
  _atom_site_type_symbol
  _atom_site_label
  _atom_site_symmetry_multiplicity
  _atom_site_fract_x
  _atom_site_fract_y
  _atom_site_fract_z
  _atom_site_occupancy
  _atom_site_charge
Yb  Yb1       1.0  0.25532  0.25532  0.74468  1.0000 2.0379822051
Yb  Yb2       1.0  0.74468  0.74468  0.25532  1.0000 2.0379822051
Yb  Yb3       1.0  0.99468  0.99468  0.50532  1.0000 2.0379822051
Yb  Yb4       1.0  0.50532  0.50532  0.99468  1.0000 2.0379822051
Yb  Yb5       1.0  0.03470  0.46530  0.03470  1.0000 2.0860163565
Yb  Yb6       1.0  0.46530  0.03470  0.46530  1.0000 2.0860163565
Yb  Yb7       1.0  0.21530  0.78470  0.21530  1.0000 2.0843573605
Yb  Yb8       1.0  0.78470  0.21530  0.78470  1.0000 2.0860163565
H   H1        1.0  0.95810  0.61790  0.00010  1.0000 0.1301837807
H   H2        1.0  0.61790  0.95810  0.42390  1.0000 0.1301837807
H   H3        1.0  0.00010  0.42390  0.95810  1.0000 0.1301837807
H   H4        1.0  0.42390  0.00010  0.61790  1.0000 0.1301837807
H   H5        1.0  0.29190  0.63210  0.24990  1.0000 0.1301837807
H   H6        1.0  0.63210  0.29190  0.82610  1.0000 0.1301837807
H   H7        1.0  0.24990  0.82610  0.29190  1.0000 0.1301837807
H   H8        1.0  0.82610  0.24990  0.63210  1.0000 0.1301837807
H   H9        1.0  0.92380  0.69820  0.98160  1.0000 0.1132207316
H   H10       1.0  0.69820  0.92380  0.39640  1.0000 0.1132207316
H   H11       1.0  0.98160  0.39640  0.92380  1.0000 0.1132207316
H   H12       1.0  0.39640  0.98160  0.69820  1.0000 0.1132207316
H   H13       1.0  0.32620  0.55180  0.26840  1.0000 0.1132207316
H   H14       1.0  0.55180  0.32620  0.85360  1.0000 0.1132207316
H   H15       1.0  0.26840  0.85360  0.32620  1.0000 0.1132207316
H   H16       1.0  0.85360  0.26840  0.55180  1.0000 0.1132207316
H   H17       1.0  0.09090  0.52010  0.73330  1.0000 0.1196076277
H   H18       1.0  0.52010  0.09090  0.65570  1.0000 0.1196076277
H   H19       1.0  0.73330  0.65570  0.09090  1.0000 0.1196076277
H   H20       1.0  0.65570  0.73330  0.52010  1.0000 0.1196076277
H   H21       1.0  0.15910  0.72990  0.51670  1.0000 0.1196076277
H   H22       1.0  0.72990  0.15910  0.59430  1.0000 0.1196076277
H   H23       1.0  0.51670  0.59430  0.15910  1.0000 0.1196076277
H   H24       1.0  0.59430  0.51670  0.72990  1.0000 0.1196076277
H   H25       1.0  0.12520  0.43980  0.75180  1.0000 0.1196076277
H   H26       1.0  0.43980  0.12520  0.68320  1.0000 0.1196076277
H   H27       1.0  0.75180  0.68320  0.12520  1.0000 0.1196076277
H   H28       1.0  0.68320  0.75180  0.43980  1.0000 0.1196076277
H   H29       1.0  0.12480  0.81020  0.49820  1.0000 0.1196076277
H   H30       1.0  0.81020  0.12480  0.56680  1.0000 0.1196076277
H   H31       1.0  0.49820  0.56680  0.12480  1.0000 0.1196076277
H   H32       1.0  0.56680  0.49820  0.81020  1.0000 0.1196076277
H   H33       1.0  0.94380  0.71600  0.89680  1.0000 0.1196076277
H   H34       1.0  0.71600  0.94380  0.44340  1.0000 0.1196076277
H   H35       1.0  0.89680  0.44340  0.94380  1.0000 0.1196076277
H   H36       1.0  0.44340  0.89680  0.71600  1.0000 0.1196076277
H   H37       1.0  0.30620  0.53400  0.35320  1.0000 0.1196076277
H   H38       1.0  0.53400  0.30620  0.80660  1.0000 0.1132207316
H   H39       1.0  0.35320  0.80660  0.30620  1.0000 0.1132207316
H   H40       1.0  0.80660  0.35320  0.53400  1.0000 0.1196076277
H   H41       1.0  0.05840  0.60640  0.72640  1.0000 0.1408979441
H   H42       1.0  0.60640  0.05840  0.60880  1.0000 0.1301837807
H   H43       1.0  0.72640  0.60880  0.05840  1.0000 0.1408979441
H   H44       1.0  0.60880  0.72640  0.60640  1.0000 0.1408979441
H   H45       1.0  0.19160  0.64360  0.52360  1.0000 0.1408979441
H   H46       1.0  0.64360  0.19160  0.64120  1.0000 0.1301837807
H   H47       1.0  0.52360  0.64120  0.19160  1.0000 0.1408979441
H   H48       1.0  0.64120  0.52360  0.64360  1.0000 0.1301837807
H   H49       1.0  0.01400  0.74180  0.66400  1.0000 0.1196076277
H   H50       1.0  0.74180  0.01400  0.58020  1.0000 0.1196076277
H   H51       1.0  0.66400  0.58020  0.01400  1.0000 0.1196076277
H   H52       1.0  0.58020  0.66400  0.74180  1.0000 0.1196076277
H   H53       1.0  0.23600  0.50820  0.58600  1.0000 0.1196076277
H   H54       1.0  0.50820  0.23600  0.66980  1.0000 0.1196076277
H   H55       1.0  0.58600  0.66980  0.23600  1.0000 0.1196076277
H   H56       1.0  0.66980  0.58600  0.50820  1.0000 0.1196076277
H   H57       1.0  0.92820  0.78180  0.89800  1.0000 0.1132207316
H   H58       1.0  0.78180  0.92820  0.39200  1.0000 0.1196076277
H   H59       1.0  0.89800  0.39200  0.92820  1.0000 0.1132207316
H   H60       1.0  0.39200  0.89800  0.78180  1.0000 0.1132207316
H   H61       1.0  0.32180  0.46820  0.35200  1.0000 0.1132207316
H   H62       1.0  0.46820  0.32180  0.85800  1.0000 0.1132207316
H   H63       1.0  0.35200  0.85800  0.32180  1.0000 0.1132207316
H   H64       1.0  0.85800  0.35200  0.46820  1.0000 0.1132207316
H   H65       1.0  0.90980  0.89640  0.82460  1.0000 0.1408979441
H   H66       1.0  0.89640  0.90980  0.36920  1.0000 0.1408979441
H   H67       1.0  0.82460  0.36920  0.90980  1.0000 0.1408979441
H   H68       1.0  0.36920  0.82460  0.89640  1.0000 0.1408979441
H   H69       1.0  0.34020  0.35360  0.42540  1.0000 0.1408979441
H   H70       1.0  0.35360  0.34020  0.88080  1.0000 0.1408979441
H   H71       1.0  0.42540  0.88080  0.34020  1.0000 0.1408979441
H   H72       1.0  0.88080  0.42540  0.35360  1.0000 0.1408979441
H   H73       1.0  0.97530  0.82810  0.67650  1.0000 0.1196076277
H   H74       1.0  0.82810  0.97530  0.52010  1.0000 0.1196076277
H   H75       1.0  0.67650  0.52010  0.97530  1.0000 0.1196076277
H   H76       1.0  0.52010  0.67650  0.82810  1.0000 0.1196076277
H   H77       1.0  0.27470  0.42190  0.57350  1.0000 0.1196076277
H   H78       1.0  0.42190  0.27470  0.72990  1.0000 0.1196076277
H   H79       1.0  0.57350  0.72990  0.27470  1.0000 0.1196076277
H   H80       1.0  0.72990  0.57350  0.42190  1.0000 0.1196076277
H   H81       1.0  0.88180  0.97620  0.82660  1.0000 0.1196076277
H   H82       1.0  0.97620  0.88180  0.31540  1.0000 0.1196076277
H   H83       1.0  0.82660  0.31540  0.88180  1.0000 0.1196076277
H   H84       1.0  0.31540  0.82660  0.97620  1.0000 0.1196076277
H   H85       1.0  0.36820  0.27380  0.42340  1.0000 0.1196076277
H   H86       1.0  0.27380  0.36820  0.93460  1.0000 0.1196076277
H   H87       1.0  0.42340  0.93460  0.36820  1.0000 0.1196076277
H   H88       1.0  0.93460  0.42340  0.27380  1.0000 0.1196076277
H   H89       1.0  0.86420  0.04640  0.81040  1.0000 0.1196076277
H   H90       1.0  0.04640  0.86420  0.27900  1.0000 0.1196076277
H   H91       1.0  0.81040  0.27900  0.86420  1.0000 0.1196076277
H   H92       1.0  0.27900  0.81040  0.04640  1.0000 0.1196076277
H   H93       1.0  0.38580  0.20360  0.43960  1.0000 0.1196076277
H   H94       1.0  0.20360  0.38580  0.97100  1.0000 0.1196076277
H   H95       1.0  0.43960  0.97100  0.38580  1.0000 0.1196076277
H   H96       1.0  0.97100  0.43960  0.20360  1.0000 0.1196076277
H   H97       1.0  0.96750  0.92930  0.58950  1.0000 0.1196076277
H   H98       1.0  0.92930  0.96750  0.51370  1.0000 0.1196076277
H   H99       1.0  0.58950  0.51370  0.96750  1.0000 0.1196076277
H   H100      1.0  0.51370  0.58950  0.92930  1.0000 0.1196076277
H   H101      1.0  0.28250  0.32070  0.66050  1.0000 0.1196076277
H   H102      1.0  0.32070  0.28250  0.73630  1.0000 0.1196076277
H   H103      1.0  0.66050  0.73630  0.28250  1.0000 0.1196076277
H   H104      1.0  0.73630  0.66050  0.32070  1.0000 0.1196076277
H   H105      1.0  0.98510  0.85910  0.60570  1.0000 0.1196076277
H   H106      1.0  0.85910  0.98510  0.55010  1.0000 0.1196076277
H   H107      1.0  0.60570  0.55010  0.98510  1.0000 0.1196076277
H   H108      1.0  0.55010  0.60570  0.85910  1.0000 0.1196076277
H   H109      1.0  0.26490  0.39090  0.64430  1.0000 0.1196076277
H   H110      1.0  0.39090  0.26490  0.69990  1.0000 0.1196076277
H   H111      1.0  0.64430  0.69990  0.26490  1.0000 0.1196076277
H   H112      1.0  0.69990  0.64430  0.39090  1.0000 0.1196076277
H   H113      1.0  0.31770  0.10750  0.80430  1.0000 0.1196076277
H   H114      1.0  0.10750  0.31770  0.77050  1.0000 0.1196076277
H   H115      1.0  0.80430  0.77050  0.31770  1.0000 0.1196076277
H   H116      1.0  0.77050  0.80430  0.10750  1.0000 0.1196076277
H   H117      1.0  0.93230  0.14250  0.44570  1.0000 0.1196076277
H   H118      1.0  0.14250  0.93230  0.47950  1.0000 0.1196076277
H   H119      1.0  0.44570  0.47950  0.93230  1.0000 0.1196076277
H   H120      1.0  0.47950  0.44570  0.14250  1.0000 0.1196076277
H   H121      1.0  0.31200  0.06280  0.85540  1.0000 0.1132207316
H   H122      1.0  0.06280  0.31200  0.76980  1.0000 0.1132207316
H   H123      1.0  0.85540  0.76980  0.31200  1.0000 0.1196076277
H   H124      1.0  0.76980  0.85540  0.06280  1.0000 0.1196076277
H   H125      1.0  0.93800  0.18720  0.39460  1.0000 0.1132207316
H   H126      1.0  0.18720  0.93800  0.48020  1.0000 0.1132207316
H   H127      1.0  0.39460  0.48020  0.93800  1.0000 0.1132207316
H   H128      1.0  0.48020  0.39460  0.18720  1.0000 0.1196076277
H   H129      1.0  0.04940  0.31620  0.08320  1.0000 0.1196076277
H   H130      1.0  0.31620  0.04940  0.55120  1.0000 0.1196076277
H   H131      1.0  0.08320  0.55120  0.04940  1.0000 0.1196076277
H   H132      1.0  0.55120  0.08320  0.31620  1.0000 0.1196076277
H   H133      1.0  0.20060  0.93380  0.16680  1.0000 0.1196076277
H   H134      1.0  0.93380  0.20060  0.69880  1.0000 0.1196076277
H   H135      1.0  0.16680  0.69880  0.20060  1.0000 0.1196076277
H   H136      1.0  0.69880  0.16680  0.93380  1.0000 0.1196076277
H   H137      1.0  0.05510  0.36090  0.03210  1.0000 0.1196076277
H   H138      1.0  0.36090  0.05510  0.55190  1.0000 0.1196076277
H   H139      1.0  0.03210  0.55190  0.05510  1.0000 0.1196076277
H   H140      1.0  0.55190  0.03210  0.36090  1.0000 0.1196076277
H   H141      1.0  0.19490  0.88910  0.21790  1.0000 0.1196076277
H   H142      1.0  0.88910  0.19490  0.69810  1.0000 0.1196076277
H   H143      1.0  0.21790  0.69810  0.19490  1.0000 0.1196076277
H   H144      1.0  0.69810  0.21790  0.88910  1.0000 0.1196076277
H   H145      1.0  0.23560  0.09180  0.96540  1.0000 0.1132207316
H   H146      1.0  0.09180  0.23560  0.70720  1.0000 0.1132207316
H   H147      1.0  0.96540  0.70720  0.23560  1.0000 0.1132207316
H   H148      1.0  0.70720  0.96540  0.09180  1.0000 0.1132207316
H   H149      1.0  0.01440  0.15820  0.28460  1.0000 0.1132207316
H   H150      1.0  0.15820  0.01440  0.54280  1.0000 0.1132207316
H   H151      1.0  0.28460  0.54280  0.01440  1.0000 0.1132207316
H   H152      1.0  0.54280  0.28460  0.15820  1.0000 0.1132207316
H   H153      1.0  0.05740  0.25760  0.11820  1.0000 0.1196076277
H   H154      1.0  0.25760  0.05740  0.56680  1.0000 0.1196076277
H   H155      1.0  0.11820  0.56680  0.05740  1.0000 0.1196076277
H   H156      1.0  0.56680  0.11820  0.25760  1.0000 0.1196076277
H   H157      1.0  0.19260  0.99240  0.13180  1.0000 0.1196076277
H   H158      1.0  0.99240  0.19260  0.68320  1.0000 0.1196076277
H   H159      1.0  0.13180  0.68320  0.19260  1.0000 0.1196076277
H   H160      1.0  0.68320  0.13180  0.99240  1.0000 0.1196076277
H   H161      1.0  0.24630  0.04770  0.02630  1.0000 0.1132207316
H   H162      1.0  0.04770  0.24630  0.67970  1.0000 0.1132207316
H   H163      1.0  0.02630  0.67970  0.24630  1.0000 0.1132207316
H   H164      1.0  0.67970  0.02630  0.04770  1.0000 0.1132207316
H   H165      1.0  0.00370  0.20230  0.22370  1.0000 0.1132207316
H   H166      1.0  0.20230  0.00370  0.57030  1.0000 0.1132207316
H   H167      1.0  0.22370  0.57030  0.00370  1.0000 0.1132207316
H   H168      1.0  0.57030  0.22370  0.20230  1.0000 0.1132207316
H   H169      1.0  0.10690  0.60390  0.52890  1.0000 0.1301837807
H   H170      1.0  0.60390  0.10690  0.76030  1.0000 0.1301837807
H   H171      1.0  0.52890  0.76030  0.10690  1.0000 0.1301837807
H   H172      1.0  0.76030  0.52890  0.60390  1.0000 0.1301837807
H   H173      1.0  0.14310  0.64610  0.72110  1.0000 0.1301837807
H   H174      1.0  0.64610  0.14310  0.48970  1.0000 0.1301837807
H   H175      1.0  0.72110  0.48970  0.14310  1.0000 0.1301837807
H   H176      1.0  0.48970  0.72110  0.64610  1.0000 0.1301837807
H   H177      1.0  0.10950  0.63210  0.55990  1.0000 0.1032587562
H   H178      1.0  0.63210  0.10950  0.69850  1.0000 0.1032587562
H   H179      1.0  0.55990  0.69850  0.10950  1.0000 0.1032587562
H   H180      1.0  0.69850  0.55990  0.63210  1.0000 0.1032587562
H   H181      1.0  0.14050  0.61790  0.69010  1.0000 0.1032587562
H   H182      1.0  0.61790  0.14050  0.55150  1.0000 0.1032587562
H   H183      1.0  0.69010  0.55150  0.14050  1.0000 0.1032587562
H   H184      1.0  0.55150  0.69010  0.61790  1.0000 0.1032587562
H   H185      1.0  0.01920  0.70380  0.61160  1.0000 0.1032587562
H   H186      1.0  0.70380  0.01920  0.66540  1.0000 0.1032587562
H   H187      1.0  0.61160  0.66540  0.01920  1.0000 0.1032587562
H   H188      1.0  0.66540  0.61160  0.70380  1.0000 0.1032587562
H   H189      1.0  0.23080  0.54620  0.63840  1.0000 0.1032587562
H   H190      1.0  0.54620  0.23080  0.58460  1.0000 0.1032587562
H   H191      1.0  0.63840  0.58460  0.23080  1.0000 0.1032587562
H   H192      1.0  0.58460  0.63840  0.54620  1.0000 0.1032587562
H   H193      1.0  0.84850  0.37950  0.28270  1.0000 0.1301837807
H   H194      1.0  0.37950  0.84850  0.48930  1.0000 0.1301837807
H   H195      1.0  0.28270  0.48930  0.84850  1.0000 0.1301837807
H   H196      1.0  0.48930  0.28270  0.37950  1.0000 0.1301837807
H   H197      1.0  0.40150  0.87050  0.96730  1.0000 0.1301837807
H   H198      1.0  0.87050  0.40150  0.76070  1.0000 0.1301837807
H   H199      1.0  0.96730  0.76070  0.40150  1.0000 0.1301837807
H   H200      1.0  0.76070  0.96730  0.87050  1.0000 0.1301837807
H   H201      1.0  0.88980  0.33460  0.30480  1.0000 0.1032587562
H   H202      1.0  0.33460  0.88980  0.47080  1.0000 0.1032587562
H   H203      1.0  0.30480  0.47080  0.88980  1.0000 0.1032587562
H   H204      1.0  0.47080  0.30480  0.33460  1.0000 0.1032587562
H   H205      1.0  0.36020  0.91540  0.94520  1.0000 0.1032587562
H   H206      1.0  0.91540  0.36020  0.77920  1.0000 0.1032587562
H   H207      1.0  0.94520  0.77920  0.36020  1.0000 0.1032587562
H   H208      1.0  0.77920  0.94520  0.91540  1.0000 0.1032587562
H   H209      1.0  0.92440  0.28340  0.23020  1.0000 0.1032587562
H   H210      1.0  0.28340  0.92440  0.56200  1.0000 0.1032587562
H   H211      1.0  0.23020  0.56200  0.92440  1.0000 0.1032587562
H   H212      1.0  0.56200  0.23020  0.28340  1.0000 0.1032587562
H   H213      1.0  0.32560  0.96660  0.01980  1.0000 0.1032587562
H   H214      1.0  0.96660  0.32560  0.68800  1.0000 0.1032587562
H   H215      1.0  0.01980  0.68800  0.32560  1.0000 0.1032587562
H   H216      1.0  0.68800  0.01980  0.96660  1.0000 0.1032587562
H   H217      1.0  0.84650  0.91370  0.02090  1.0000 0.1408979441
H   H218      1.0  0.91370  0.84650  0.21890  1.0000 0.1408979441
H   H219      1.0  0.02090  0.21890  0.84650  1.0000 0.1408979441
H   H220      1.0  0.21890  0.02090  0.91370  1.0000 0.1408979441
H   H221      1.0  0.40350  0.33630  0.22910  1.0000 0.1408979441
H   H222      1.0  0.33630  0.40350  0.03110  1.0000 0.1408979441
H   H223      1.0  0.22910  0.03110  0.40350  1.0000 0.1408979441
H   H224      1.0  0.03110  0.22910  0.33630  1.0000 0.1408979441
H   H225      1.0  0.92610  0.81670  0.94630  1.0000 0.1196076277
H   H226      1.0  0.81670  0.92610  0.31090  1.0000 0.1196076277
H   H227      1.0  0.94630  0.31090  0.92610  1.0000 0.1196076277
H   H228      1.0  0.31090  0.94630  0.81670  1.0000 0.1196076277
H   H229      1.0  0.32390  0.43330  0.30370  1.0000 0.1196076277
H   H230      1.0  0.43330  0.32390  0.93910  1.0000 0.1196076277
H   H231      1.0  0.30370  0.93910  0.32390  1.0000 0.1196076277
H   H232      1.0  0.93910  0.30370  0.43330  1.0000 0.1196076277
H   H233      1.0  0.83180  0.89620  0.00220  1.0000 0.1132207316
H   H234      1.0  0.89620  0.83180  0.26980  1.0000 0.1132207316
H   H235      1.0  0.00220  0.26980  0.83180  1.0000 0.1132207316
H   H236      1.0  0.26980  0.00220  0.89620  1.0000 0.1132207316
H   H237      1.0  0.41820  0.35380  0.24780  1.0000 0.1132207316
H   H238      1.0  0.35380  0.41820  0.98020  1.0000 0.1132207316
H   H239      1.0  0.24780  0.98020  0.41820  1.0000 0.1132207316
H   H240      1.0  0.98020  0.24780  0.35380  1.0000 0.1132207316
C   C1        1.0  0.07007  0.46867  0.89073  1.0000 0.6484517848
C   C2        1.0  0.46867  0.07007  0.57053  1.0000 0.6484517848
C   C3        1.0  0.89073  0.57053  0.07007  1.0000 0.6484517848
C   C4        1.0  0.57053  0.89073  0.46867  1.0000 0.6484517848
C   C5        1.0  0.17993  0.78133  0.35927  1.0000 0.6484517848
C   C6        1.0  0.78133  0.17993  0.67947  1.0000 0.6484517848
C   C7        1.0  0.35927  0.67947  0.17993  1.0000 0.6484517848
C   C8        1.0  0.67947  0.35927  0.78133  1.0000 0.6484517848
C   C9        1.0  0.04505  0.52087  0.87773  1.0000 -0.0512830576
C   C10       1.0  0.52087  0.04505  0.55635  1.0000 -0.0512830576
C   C11       1.0  0.87773  0.55635  0.04505  1.0000 -0.0512830576
C   C12       1.0  0.55635  0.87773  0.52087  1.0000 -0.0512830576
C   C13       1.0  0.20495  0.72913  0.37227  1.0000 -0.0512830576
C   C14       1.0  0.72913  0.20495  0.69365  1.0000 -0.0512830576
C   C15       1.0  0.37227  0.69365  0.20495  1.0000 -0.0512830576
C   C16       1.0  0.69365  0.37227  0.72913  1.0000 -0.0512830576
C   C17       1.0  0.98464  0.59836  0.94664  1.0000 -0.0811937473
C   C18       1.0  0.59836  0.98464  0.47036  1.0000 -0.0811937473
C   C19       1.0  0.94664  0.47036  0.98464  1.0000 -0.0811937473
C   C20       1.0  0.47036  0.94664  0.59836  1.0000 -0.0811937473
C   C21       1.0  0.26536  0.65164  0.30336  1.0000 -0.0811937473
C   C22       1.0  0.65164  0.26536  0.77964  1.0000 -0.0811937473
C   C23       1.0  0.30336  0.77964  0.26536  1.0000 -0.0811937473
C   C24       1.0  0.77964  0.30336  0.65164  1.0000 -0.0811937473
C   C25       1.0  0.96411  0.64647  0.93553  1.0000 -0.1609942798
C   C26       1.0  0.64647  0.96411  0.45389  1.0000 -0.1609942798
C   C27       1.0  0.93553  0.45389  0.96411  1.0000 -0.1609942798
C   C28       1.0  0.45389  0.93553  0.64647  1.0000 -0.1609942798
C   C29       1.0  0.28589  0.60353  0.31447  1.0000 -0.1609942798
C   C30       1.0  0.60353  0.28589  0.79611  1.0000 -0.1609942798
C   C31       1.0  0.31447  0.79611  0.28589  1.0000 -0.1609942798
C   C32       1.0  0.79611  0.31447  0.60353  1.0000 -0.1609942798
C   C33       1.0  0.00388  0.61718  0.85562  1.0000 0.1196076277
C   C34       1.0  0.61718  0.00388  0.52332  1.0000 0.1196076277
C   C35       1.0  0.85562  0.52332  0.00388  1.0000 0.1196076277
C   C36       1.0  0.52332  0.85562  0.61718  1.0000 0.1196076277
C   C37       1.0  0.24612  0.63282  0.39438  1.0000 0.1196076277
C   C38       1.0  0.63282  0.24612  0.72668  1.0000 0.1196076277
C   C39       1.0  0.39438  0.72668  0.24612  1.0000 0.1196076277
C   C40       1.0  0.72668  0.39438  0.63282  1.0000 0.1196076277
C   C41       1.0  0.06430  0.53970  0.78670  1.0000 -0.1425608941
C   C42       1.0  0.53970  0.06430  0.60930  1.0000 -0.1425608941
C   C43       1.0  0.78670  0.60930  0.06430  1.0000 -0.1425608941
C   C44       1.0  0.60930  0.78670  0.53970  1.0000 -0.1425608941
C   C45       1.0  0.18570  0.71030  0.46330  1.0000 -0.1425608941
C   C46       1.0  0.71030  0.18570  0.64070  1.0000 -0.1425608941
C   C47       1.0  0.46330  0.64070  0.18570  1.0000 -0.1425608941
C   C48       1.0  0.64070  0.46330  0.71030  1.0000 -0.1425608941
C   C49       1.0  0.08482  0.49160  0.79780  1.0000 -0.0867265573
C   C50       1.0  0.49160  0.08482  0.62578  1.0000 -0.0867265573
C   C51       1.0  0.79780  0.62578  0.08482  1.0000 -0.0867265573
C   C52       1.0  0.62578  0.79780  0.49160  1.0000 -0.0867265573
C   C53       1.0  0.16518  0.75840  0.45220  1.0000 -0.0867265573
C   C54       1.0  0.75840  0.16518  0.62422  1.0000 -0.0867265573
C   C55       1.0  0.45220  0.62422  0.16518  1.0000 -0.0867265573
C   C56       1.0  0.62422  0.45220  0.75840  1.0000 -0.0867265573
C   C57       1.0  0.98697  0.66497  0.84423  1.0000 -0.1485303254
C   C58       1.0  0.66497  0.98697  0.50383  1.0000 -0.1485303254
C   C59       1.0  0.84423  0.50383  0.98697  1.0000 -0.1485303254
C   C60       1.0  0.50383  0.84423  0.66497  1.0000 -0.1485303254
C   C61       1.0  0.26303  0.58503  0.40577  1.0000 -0.1485303254
C   C62       1.0  0.58503  0.26303  0.74617  1.0000 -0.1485303254
C   C63       1.0  0.40577  0.74617  0.26303  1.0000 -0.1485303254
C   C64       1.0  0.74617  0.40577  0.58503  1.0000 -0.1485303254
C   C65       1.0  0.01560  0.65600  0.78060  1.0000 -0.1485303254
C   C66       1.0  0.65600  0.01560  0.54780  1.0000 -0.1485303254
C   C67       1.0  0.78060  0.54780  0.01560  1.0000 -0.1485303254
C   C68       1.0  0.54780  0.78060  0.65600  1.0000 -0.1485303254
C   C69       1.0  0.23440  0.59400  0.46940  1.0000 -0.1485303254
C   C70       1.0  0.59400  0.23440  0.70220  1.0000 -0.1485303254
C   C71       1.0  0.46940  0.70220  0.23440  1.0000 -0.1485303254
C   C72       1.0  0.70220  0.46940  0.59400  1.0000 -0.1485303254
C   C73       1.0  0.99081  0.71161  0.78199  1.0000 0.0306760698
C   C74       1.0  0.71161  0.99081  0.51559  1.0000 0.0306760698
C   C75       1.0  0.78199  0.51559  0.99081  1.0000 0.0306760698
C   C76       1.0  0.51559  0.78199  0.71161  1.0000 0.0306760698
C   C77       1.0  0.25919  0.53839  0.46801  1.0000 0.0306760698
C   C78       1.0  0.53839  0.25919  0.73441  1.0000 0.0306760698
C   C79       1.0  0.46801  0.73441  0.25919  1.0000 0.0306760698
C   C80       1.0  0.73441  0.46801  0.53839  1.0000 0.0306760698
C   C81       1.0  0.01646  0.69966  0.71194  1.0000 0.1635803377
C   C82       1.0  0.69966  0.01646  0.57194  1.0000 0.1635803377
C   C83       1.0  0.71194  0.57194  0.01646  1.0000 0.1635803377
C   C84       1.0  0.57194  0.71194  0.69966  1.0000 0.1635803377
C   C85       1.0  0.23354  0.55034  0.53806  1.0000 0.1635803377
C   C86       1.0  0.55034  0.23354  0.67806  1.0000 0.1635803377
C   C87       1.0  0.53806  0.67806  0.23354  1.0000 0.1635803377
C   C88       1.0  0.67806  0.53806  0.55034  1.0000 0.1635803377
C   C89       1.0  0.99674  0.74984  0.71096  1.0000 -0.2459037706
C   C90       1.0  0.74984  0.99674  0.54246  1.0000 -0.2459037706
C   C91       1.0  0.71096  0.54246  0.99674  1.0000 -0.243921248
C   C92       1.0  0.54246  0.71096  0.74984  1.0000 -0.2459037706
C   C93       1.0  0.25326  0.50016  0.53904  1.0000 -0.2459037706
C   C94       1.0  0.50016  0.25326  0.70754  1.0000 -0.2459037706
C   C95       1.0  0.53904  0.70754  0.25326  1.0000 -0.2459037706
C   C96       1.0  0.70754  0.53904  0.50016  1.0000 -0.243921248
C   C97       1.0  0.95136  0.81196  0.78004  1.0000 0.0036763782
C   C98       1.0  0.81196  0.95136  0.45664  1.0000 0.0036763782
C   C99       1.0  0.78004  0.45664  0.95136  1.0000 0.0036763782
C   C100      1.0  0.45664  0.78004  0.81196  1.0000 0.0036763782
C   C101      1.0  0.29864  0.43804  0.46996  1.0000 0.0036763782
C   C102      1.0  0.43804  0.29864  0.79336  1.0000 0.0036763782
C   C103      1.0  0.46996  0.79336  0.29864  1.0000 0.0036763782
C   C104      1.0  0.79336  0.46996  0.43804  1.0000 0.0036763782
C   C105      1.0  0.92561  0.82401  0.85019  1.0000 0.2024933083
C   C106      1.0  0.82401  0.92561  0.40019  1.0000 0.2024933083
C   C107      1.0  0.85019  0.40019  0.92561  1.0000 0.2024933083
C   C108      1.0  0.40019  0.85019  0.82401  1.0000 0.2024933083
C   C109      1.0  0.32439  0.42599  0.39981  1.0000 0.2024933083
C   C110      1.0  0.42599  0.32439  0.84981  1.0000 0.2024933083
C   C111      1.0  0.39981  0.84981  0.32439  1.0000 0.2024933083
C   C112      1.0  0.84981  0.39981  0.42599  1.0000 0.2024933083
C   C113      1.0  0.94533  0.77383  0.85117  1.0000 -0.2690146272
C   C114      1.0  0.77383  0.94533  0.42967  1.0000 -0.2690146272
C   C115      1.0  0.85117  0.42967  0.94533  1.0000 -0.2690146272
C   C116      1.0  0.42967  0.85117  0.77383  1.0000 -0.2690146272
C   C117      1.0  0.30467  0.47617  0.39883  1.0000 -0.2690146272
C   C118      1.0  0.47617  0.30467  0.82033  1.0000 -0.2690146272
C   C119      1.0  0.39883  0.82033  0.30467  1.0000 -0.2690146272
C   C120      1.0  0.82033  0.39883  0.47617  1.0000 -0.2690146272
C   C121      1.0  0.93498  0.86118  0.77842  1.0000 -0.1316743883
C   C122      1.0  0.86118  0.93498  0.42542  1.0000 -0.1316743883
C   C123      1.0  0.77842  0.42542  0.93498  1.0000 -0.1316743883
C   C124      1.0  0.42542  0.77842  0.86118  1.0000 -0.1316743883
C   C125      1.0  0.31502  0.38882  0.47158  1.0000 -0.1316743883
C   C126      1.0  0.38882  0.31502  0.82458  1.0000 -0.1316743883
C   C127      1.0  0.47158  0.82458  0.31502  1.0000 -0.1316743883
C   C128      1.0  0.82458  0.47158  0.38882  1.0000 -0.1316743883
C   C129      1.0  0.95013  0.86373  0.72227  1.0000 -0.1425608941
C   C130      1.0  0.86373  0.95013  0.46387  1.0000 -0.1425608941
C   C131      1.0  0.72227  0.46387  0.95013  1.0000 -0.1425608941
C   C132      1.0  0.46387  0.72227  0.86373  1.0000 -0.1425608941
C   C133      1.0  0.29987  0.38627  0.52773  1.0000 -0.1425608941
C   C134      1.0  0.38627  0.29987  0.78613  1.0000 -0.1425608941
C   C135      1.0  0.52773  0.78613  0.29987  1.0000 -0.1425608941
C   C136      1.0  0.78613  0.52773  0.38627  1.0000 -0.1425608941
C   C137      1.0  0.93526  0.91068  0.71772  1.0000 0.1196076277
C   C138      1.0  0.91068  0.93526  0.43634  1.0000 0.1196076277
C   C139      1.0  0.71772  0.43634  0.93526  1.0000 0.1196076277
C   C140      1.0  0.43634  0.71772  0.91068  1.0000 0.1196076277
C   C141      1.0  0.31474  0.33932  0.53228  1.0000 0.1196076277
C   C142      1.0  0.33932  0.31474  0.81366  1.0000 0.1196076277
C   C143      1.0  0.53228  0.81366  0.31474  1.0000 0.1196076277
C   C144      1.0  0.81366  0.53228  0.33932  1.0000 0.1196076277
C   C145      1.0  0.89895  0.96685  0.77915  1.0000 -0.1609942798
C   C146      1.0  0.96685  0.89895  0.35505  1.0000 -0.1609942798
C   C147      1.0  0.77915  0.35505  0.89895  1.0000 -0.1609942798
C   C148      1.0  0.35505  0.77915  0.96685  1.0000 -0.1609942798
C   C149      1.0  0.35105  0.28315  0.47085  1.0000 -0.1609942798
C   C150      1.0  0.28315  0.35105  0.89495  1.0000 -0.1609942798
C   C151      1.0  0.47085  0.89495  0.35105  1.0000 -0.1609942798
C   C152      1.0  0.89495  0.47085  0.28315  1.0000 -0.1609942798
C   C153      1.0  0.88843  0.00881  0.76939  1.0000 -0.0966571819
C   C154      1.0  0.00881  0.88843  0.33337  1.0000 -0.0966571819
C   C155      1.0  0.76939  0.33337  0.88843  1.0000 -0.0966571819
C   C156      1.0  0.33337  0.76939  0.00881  1.0000 -0.0966571819
C   C157      1.0  0.36157  0.24119  0.48061  1.0000 -0.0966571819
C   C158      1.0  0.24119  0.36157  0.91663  1.0000 -0.0966571819
C   C159      1.0  0.48061  0.91663  0.36157  1.0000 -0.0966571819
C   C160      1.0  0.91663  0.48061  0.24119  1.0000 -0.0966571819
C   C161      1.0  0.91403  0.99481  0.69839  1.0000 -0.0447286496
C   C162      1.0  0.99481  0.91403  0.39277  1.0000 -0.0447286496
C   C163      1.0  0.69839  0.39277  0.91403  1.0000 -0.0447286496
C   C164      1.0  0.39277  0.69839  0.99481  1.0000 -0.0512830576
C   C165      1.0  0.33597  0.25519  0.55161  1.0000 -0.0512830576
C   C166      1.0  0.25519  0.33597  0.85723  1.0000 -0.0447286496
C   C167      1.0  0.55161  0.85723  0.33597  1.0000 -0.0447286496
C   C168      1.0  0.85723  0.55161  0.25519  1.0000 -0.0447286496
C   C169      1.0  0.95035  0.93865  0.63695  1.0000 -0.0966571819
C   C170      1.0  0.93865  0.95035  0.47405  1.0000 -0.0966571819
C   C171      1.0  0.63695  0.47405  0.95035  1.0000 -0.0966571819
C   C172      1.0  0.47405  0.63695  0.93865  1.0000 -0.0966571819
C   C173      1.0  0.29965  0.31135  0.61305  1.0000 -0.0966571819
C   C174      1.0  0.31135  0.29965  0.77595  1.0000 -0.0966571819
C   C175      1.0  0.61305  0.77595  0.29965  1.0000 -0.0966571819
C   C176      1.0  0.77595  0.61305  0.31135  1.0000 -0.0966571819
C   C177      1.0  0.96086  0.89668  0.64672  1.0000 -0.1609942798
C   C178      1.0  0.89668  0.96086  0.49574  1.0000 -0.1609942798
C   C179      1.0  0.64672  0.49574  0.96086  1.0000 -0.1609942798
C   C180      1.0  0.49574  0.64672  0.89668  1.0000 -0.1609942798
C   C181      1.0  0.28914  0.35332  0.60328  1.0000 -0.1609942798
C   C182      1.0  0.35332  0.28914  0.75426  1.0000 -0.1609942798
C   C183      1.0  0.60328  0.75426  0.28914  1.0000 -0.1609942798
C   C184      1.0  0.75426  0.60328  0.35332  1.0000 -0.1609942798
C   C185      1.0  0.90870  0.03410  0.67930  1.0000 0.6579343921
C   C186      1.0  0.03410  0.90870  0.37790  1.0000 0.6579343921
C   C187      1.0  0.67930  0.37790  0.90870  1.0000 0.6579343921
C   C188      1.0  0.37790  0.67930  0.03410  1.0000 0.6579343921
C   C189      1.0  0.34130  0.21590  0.57070  1.0000 0.6579343921
C   C190      1.0  0.21590  0.34130  0.87210  1.0000 0.6579343921
C   C191      1.0  0.57070  0.87210  0.34130  1.0000 0.6579343921
C   C192      1.0  0.87210  0.57070  0.21590  1.0000 0.6579343921
C   C193      1.0  0.19572  0.26132  0.87648  1.0000 0.5989069959
C   C194      1.0  0.26132  0.19572  0.66648  1.0000 0.5989069959
C   C195      1.0  0.87648  0.66648  0.19572  1.0000 0.5989069959
C   C196      1.0  0.66648  0.87648  0.26132  1.0000 0.5989069959
C   C197      1.0  0.05428  0.98868  0.37352  1.0000 0.5989069959
C   C198      1.0  0.98868  0.05428  0.58352  1.0000 0.5989069959
C   C199      1.0  0.37352  0.58352  0.05428  1.0000 0.5989069959
C   C200      1.0  0.58352  0.37352  0.98868  1.0000 0.5989069959
C   C201      1.0  0.18696  0.23862  0.91318  1.0000 -0.0596351315
C   C202      1.0  0.23862  0.18696  0.66124  1.0000 -0.0596351315
C   C203      1.0  0.91318  0.66124  0.18696  1.0000 -0.0596351315
C   C204      1.0  0.66124  0.91318  0.23862  1.0000 -0.0596351315
C   C205      1.0  0.06304  0.01138  0.33682  1.0000 -0.0596351315
C   C206      1.0  0.01138  0.06304  0.58876  1.0000 -0.0596351315
C   C207      1.0  0.33682  0.58876  0.06304  1.0000 -0.0596351315
C   C208      1.0  0.58876  0.33682  0.01138  1.0000 -0.0596351315
C   C209      1.0  0.26390  0.14930  0.86030  1.0000 -0.0811937473
C   C210      1.0  0.14930  0.26390  0.72650  1.0000 -0.0811937473
C   C211      1.0  0.86030  0.72650  0.26390  1.0000 -0.0811937473
C   C212      1.0  0.72650  0.86030  0.14930  1.0000 -0.0811937473
C   C213      1.0  0.98610  0.10070  0.38970  1.0000 -0.0811937473
C   C214      1.0  0.10070  0.98610  0.52350  1.0000 -0.0811937473
C   C215      1.0  0.38970  0.52350  0.98610  1.0000 -0.0811937473
C   C216      1.0  0.52350  0.38970  0.10070  1.0000 -0.0811937473
C   C217      1.0  0.26050  0.12252  0.89088  1.0000 -0.1711004942
C   C218      1.0  0.12252  0.26050  0.72610  1.0000 -0.1609942798
C   C219      1.0  0.89088  0.72610  0.26050  1.0000 -0.1609942798
C   C220      1.0  0.72610  0.89088  0.12252  1.0000 -0.1609942798
C   C221      1.0  0.98950  0.12748  0.35912  1.0000 -0.1609942798
C   C222      1.0  0.12748  0.98950  0.52390  1.0000 -0.1711004942
C   C223      1.0  0.35912  0.52390  0.98950  1.0000 -0.1609942798
C   C224      1.0  0.52390  0.35912  0.12748  1.0000 -0.1609942798
C   C225      1.0  0.18005  0.18515  0.97445  1.0000 0.1301837807
C   C226      1.0  0.18515  0.18005  0.66035  1.0000 0.1301837807
C   C227      1.0  0.97445  0.66035  0.18005  1.0000 0.1301837807
C   C228      1.0  0.66035  0.97445  0.18515  1.0000 0.1301837807
C   C229      1.0  0.06995  0.06485  0.27555  1.0000 0.1301837807
C   C230      1.0  0.06485  0.06995  0.58965  1.0000 0.1301837807
C   C231      1.0  0.27555  0.58965  0.06995  1.0000 0.1301837807
C   C232      1.0  0.58965  0.27555  0.06485  1.0000 0.1301837807
C   C233      1.0  0.10313  0.27447  0.02733  1.0000 -0.1485303254
C   C234      1.0  0.27447  0.10313  0.59507  1.0000 -0.1485303254
C   C235      1.0  0.02733  0.59507  0.10313  1.0000 -0.1485303254
C   C236      1.0  0.59507  0.02733  0.27447  1.0000 -0.1485303254
C   C237      1.0  0.14687  0.97553  0.22267  1.0000 -0.1485303254
C   C238      1.0  0.97553  0.14687  0.65493  1.0000 -0.1485303254
C   C239      1.0  0.22267  0.65493  0.14687  1.0000 -0.1485303254
C   C240      1.0  0.65493  0.22267  0.97553  1.0000 -0.1485303254
C   C241      1.0  0.10653  0.30125  0.99675  1.0000 -0.0867265573
C   C242      1.0  0.30125  0.10653  0.59547  1.0000 -0.0867265573
C   C243      1.0  0.99675  0.59547  0.10653  1.0000 -0.0867265573
C   C244      1.0  0.59547  0.99675  0.30125  1.0000 -0.0867265573
C   C245      1.0  0.14347  0.94875  0.25325  1.0000 -0.0867265573
C   C246      1.0  0.94875  0.14347  0.65453  1.0000 -0.0867265573
C   C247      1.0  0.25325  0.65453  0.14347  1.0000 -0.0867265573
C   C248      1.0  0.65453  0.25325  0.94875  1.0000 -0.0867265573
C   C249      1.0  0.18006  0.15246  0.00434  1.0000 -0.1425608941
C   C250      1.0  0.15246  0.18006  0.66314  1.0000 -0.1425608941
C   C251      1.0  0.00434  0.66314  0.18006  1.0000 -0.1425608941
C   C252      1.0  0.66314  0.00434  0.15246  1.0000 -0.1425608941
C   C253      1.0  0.06994  0.09754  0.24566  1.0000 -0.1425608941
C   C254      1.0  0.09754  0.06994  0.58686  1.0000 -0.1425608941
C   C255      1.0  0.24566  0.58686  0.06994  1.0000 -0.1425608941
C   C256      1.0  0.58686  0.24566  0.09754  1.0000 -0.1425608941
C   C257      1.0  0.11392  0.19652  0.07648  1.0000 -0.1316743883
C   C258      1.0  0.19652  0.11392  0.61308  1.0000 -0.1316743883
C   C259      1.0  0.07648  0.61308  0.11392  1.0000 -0.1316743883
C   C260      1.0  0.61308  0.07648  0.19652  1.0000 -0.1316743883
C   C261      1.0  0.13608  0.05348  0.17352  1.0000 -0.1316743883
C   C262      1.0  0.05348  0.13608  0.63692  1.0000 -0.1316743883
C   C263      1.0  0.17352  0.63692  0.13608  1.0000 -0.1316743883
C   C264      1.0  0.63692  0.17352  0.05348  1.0000 -0.1316743883
C   C265      1.0  0.12312  0.15552  0.09648  1.0000 0.0363666193
C   C266      1.0  0.15552  0.12312  0.62488  1.0000 0.0363666193
C   C267      1.0  0.09648  0.62488  0.12312  1.0000 0.0363666193
C   C268      1.0  0.62488  0.09648  0.15552  1.0000 0.0363666193
C   C269      1.0  0.12688  0.09448  0.15352  1.0000 0.0363666193
C   C270      1.0  0.09448  0.12688  0.62512  1.0000 0.0363666193
C   C271      1.0  0.15352  0.62512  0.12688  1.0000 0.0363666193
C   C272      1.0  0.62512  0.15352  0.09448  1.0000 0.0363666193
C   C273      1.0  0.19858  0.07778  0.06482  1.0000 -0.2690146272
C   C274      1.0  0.07778  0.19858  0.65882  1.0000 -0.2690146272
C   C275      1.0  0.06482  0.65882  0.19858  1.0000 -0.2690146272
C   C276      1.0  0.65882  0.06482  0.07778  1.0000 -0.2690146272
C   C277      1.0  0.05142  0.17222  0.18518  1.0000 -0.2690146272
C   C278      1.0  0.17222  0.05142  0.59118  1.0000 -0.2690146272
C   C279      1.0  0.18518  0.59118  0.05142  1.0000 -0.2690146272
C   C280      1.0  0.59118  0.18518  0.17222  1.0000 -0.2690146272
C   C281      1.0  0.05003  0.20303  0.15737  1.0000 0.1676199307
C   C282      1.0  0.20303  0.05003  0.58957  1.0000 0.1676199307
C   C283      1.0  0.15737  0.58957  0.05003  1.0000 0.1676199307
C   C284      1.0  0.58957  0.15737  0.20303  1.0000 0.1676199307
C   C285      1.0  0.19997  0.04697  0.09263  1.0000 0.1676199307
C   C286      1.0  0.04697  0.19997  0.66043  1.0000 0.1676199307
C   C287      1.0  0.09263  0.66043  0.19997  1.0000 0.1676199307
C   C288      1.0  0.66043  0.09263  0.04697  1.0000 0.1676199307
C   C289      1.0  0.07590  0.64450  0.57930  1.0000 -0.278879037
C   C290      1.0  0.64450  0.07590  0.70030  1.0000 -0.278879037
C   C291      1.0  0.57930  0.70030  0.07590  1.0000 -0.278879037
C   C292      1.0  0.70030  0.57930  0.64450  1.0000 -0.278879037
C   C293      1.0  0.17410  0.60550  0.67070  1.0000 -0.278879037
C   C294      1.0  0.60550  0.17410  0.54970  1.0000 -0.278879037
C   C295      1.0  0.67070  0.54970  0.17410  1.0000 -0.278879037
C   C296      1.0  0.54970  0.67070  0.60550  1.0000 -0.278879037
C   C297      1.0  0.90190  0.32470  0.25830  1.0000 -0.2690146272
C   C298      1.0  0.32470  0.90190  0.51510  1.0000 -0.2690146272
C   C299      1.0  0.25830  0.51510  0.90190  1.0000 -0.2690146272
C   C300      1.0  0.51510  0.25830  0.32470  1.0000 -0.2690146272
C   C301      1.0  0.34810  0.92530  0.99170  1.0000 -0.2690146272
C   C302      1.0  0.92530  0.34810  0.73490  1.0000 -0.2690146272
C   C303      1.0  0.99170  0.73490  0.34810  1.0000 -0.2690146272
C   C304      1.0  0.73490  0.99170  0.92530  1.0000 -0.2690146272
C   C305      1.0  0.87220  0.87580  0.97580  1.0000 -0.3396266902
C   C306      1.0  0.87580  0.87220  0.27620  1.0000 -0.3396266902
C   C307      1.0  0.97580  0.27620  0.87220  1.0000 -0.3396266902
C   C308      1.0  0.27620  0.97580  0.87580  1.0000 -0.3396266902
C   C309      1.0  0.37780  0.37420  0.27420  1.0000 -0.3396266902
C   C310      1.0  0.37420  0.37780  0.97380  1.0000 -0.3396266902
C   C311      1.0  0.27420  0.97380  0.37780  1.0000 -0.3396266902
C   C312      1.0  0.97380  0.27420  0.37420  1.0000 -0.3396266902
O   O1        1.0  0.03859  0.49425  0.96055  1.0000 -0.6608867789
O   O2        1.0  0.49425  0.03859  0.50661  1.0000 -0.6608867789
O   O3        1.0  0.96055  0.50661  0.03859  1.0000 -0.6608867789
O   O4        1.0  0.50661  0.96055  0.49425  1.0000 -0.6608867789
O   O5        1.0  0.21141  0.75575  0.28945  1.0000 -0.6608867789
O   O6        1.0  0.75575  0.21141  0.74339  1.0000 -0.6608867789
O   O7        1.0  0.28945  0.74339  0.21141  1.0000 -0.6608867789
O   O8        1.0  0.74339  0.28945  0.75575  1.0000 -0.6608867789
O   O9        1.0  0.12359  0.39933  0.82987  1.0000 -0.6654143537
O   O10       1.0  0.39933  0.12359  0.64721  1.0000 -0.6654143537
O   O11       1.0  0.82987  0.64721  0.12359  1.0000 -0.6654143537
O   O12       1.0  0.64721  0.82987  0.39933  1.0000 -0.6654143537
O   O13       1.0  0.12641  0.85067  0.42013  1.0000 -0.6608867789
O   O14       1.0  0.85067  0.12641  0.60279  1.0000 -0.6654143537
O   O15       1.0  0.42013  0.60279  0.12641  1.0000 -0.6608867789
O   O16       1.0  0.60279  0.42013  0.85067  1.0000 -0.6654143537
O   O17       1.0  0.86129  0.09759  0.74161  1.0000 -0.7087107355
O   O18       1.0  0.09759  0.86129  0.29951  1.0000 -0.7087107355
O   O19       1.0  0.74161  0.29951  0.86129  1.0000 -0.7087107355
O   O20       1.0  0.29951  0.74161  0.09759  1.0000 -0.7087107355
O   O21       1.0  0.38871  0.15241  0.50839  1.0000 -0.7087107355
O   O22       1.0  0.15241  0.38871  0.95049  1.0000 -0.7087107355
O   O23       1.0  0.50839  0.95049  0.38871  1.0000 -0.7087107355
O   O24       1.0  0.95049  0.50839  0.15241  1.0000 -0.7087107355
O   O25       1.0  0.94952  0.00330  0.60550  1.0000 -0.676430052
O   O26       1.0  0.00330  0.94952  0.44168  1.0000 -0.676430052
O   O27       1.0  0.60550  0.44168  0.94952  1.0000 -0.676430052
O   O28       1.0  0.44168  0.60550  0.00330  1.0000 -0.676430052
O   O29       1.0  0.30048  0.24670  0.64450  1.0000 -0.676430052
O   O30       1.0  0.24670  0.30048  0.80832  1.0000 -0.676430052
O   O31       1.0  0.64450  0.80832  0.30048  1.0000 -0.676430052
O   O32       1.0  0.80832  0.64450  0.24670  1.0000 -0.676430052
O   O33       1.0  0.06299  0.63399  0.64061  1.0000 -0.1711004942
O   O34       1.0  0.63399  0.06299  0.66241  1.0000 -0.1754941101
O   O35       1.0  0.64061  0.66241  0.06299  1.0000 -0.1711004942
O   O36       1.0  0.66241  0.64061  0.63399  1.0000 -0.1711004942
O   O37       1.0  0.18701  0.61601  0.60939  1.0000 -0.1711004942
O   O38       1.0  0.61601  0.18701  0.58759  1.0000 -0.1711004942
O   O39       1.0  0.60939  0.58759  0.18701  1.0000 -0.1754941101
O   O40       1.0  0.58759  0.60939  0.61601  1.0000 -0.1754941101
O   O41       1.0  0.89332  0.87712  0.90388  1.0000 -0.1164041365
O   O42       1.0  0.87712  0.89332  0.32568  1.0000 -0.1164041365
O   O43       1.0  0.90388  0.32568  0.89332  1.0000 -0.1164041365
O   O44       1.0  0.32568  0.90388  0.87712  1.0000 -0.1164041365
O   O45       1.0  0.35668  0.37288  0.34612  1.0000 -0.1164041365
O   O46       1.0  0.37288  0.35668  0.92432  1.0000 -0.1164041365
O   O47       1.0  0.34612  0.92432  0.35668  1.0000 -0.1164041365
O   O48       1.0  0.92432  0.34612  0.37288  1.0000 -0.1164041365
O   O49       1.0  0.26194  0.20560  0.79720  1.0000 -0.5662403533
O   O50       1.0  0.20560  0.26194  0.73526  1.0000 -0.5662403533
O   O51       1.0  0.79720  0.73526  0.26194  1.0000 -0.5662403533
O   O52       1.0  0.73526  0.79720  0.20560  1.0000 -0.5662403533
O   O53       1.0  0.98806  0.04440  0.45280  1.0000 -0.5662403533
O   O54       1.0  0.04440  0.98806  0.51474  1.0000 -0.5662403533
O   O55       1.0  0.45280  0.51474  0.98806  1.0000 -0.5662403533
O   O56       1.0  0.51474  0.45280  0.04440  1.0000 -0.5662403533
O   O57       1.0  0.13927  0.33401  0.92199  1.0000 -0.6229624579
O   O58       1.0  0.33401  0.13927  0.60473  1.0000 -0.6229624579
O   O59       1.0  0.92199  0.60473  0.13927  1.0000 -0.6229624579
O   O60       1.0  0.60473  0.92199  0.33401  1.0000 -0.6229624579
O   O61       1.0  0.11073  0.91599  0.32801  1.0000 -0.6229624579
O   O62       1.0  0.91599  0.11073  0.64527  1.0000 -0.6229624579
O   O63       1.0  0.32801  0.64527  0.11073  1.0000 -0.6229624579
O   O64       1.0  0.64527  0.32801  0.91599  1.0000 -0.6229624579
O   O65       1.0  0.97127  0.28707  0.18973  1.0000 -0.1893977037
O   O66       1.0  0.28707  0.97127  0.55193  1.0000 -0.1893977037
O   O67       1.0  0.18973  0.55193  0.97127  1.0000 -0.1893977037
O   O68       1.0  0.55193  0.18973  0.28707  1.0000 -0.1893977037
O   O69       1.0  0.27873  0.96293  0.06027  1.0000 -0.1893977037
O   O70       1.0  0.96293  0.27873  0.69807  1.0000 -0.1893977037
O   O71       1.0  0.06027  0.69807  0.27873  1.0000 -0.1893977037
O   O72       1.0  0.69807  0.06027  0.96293  1.0000 -0.1893977037
