# DDEC6 charges by PACMAN v1.1 (https://github.com/mtap-research/PACMAN-charge/)
data_2009[Cu][tbo]3[ASR]3
_chemical_formula_sum              "Cu12 H24 C72 O48"
_cell_length_a       18.6
_cell_length_b       18.6
_cell_length_c       18.6
_cell_angle_alpha    60
_cell_angle_beta     60
_cell_angle_gamma    60

_symmetry_space_group_name_H-M    "P 1"
_symmetry_Int_Tables_number       1

loop_
  _symmetry_equiv_pos_as_xyz
  'x, y, z'

loop_
  _atom_site_type_symbol
  _atom_site_label
  _atom_site_symmetry_multiplicity
  _atom_site_fract_x
  _atom_site_fract_y
  _atom_site_fract_z
  _atom_site_occupancy
  _atom_site_charge
Cu  Cu1       1.0  0.50000  0.92972  0.07028  1.0000 0.8590756805
Cu  Cu2       1.0  0.50000  0.92972  0.50000  1.0000 0.8590756805
Cu  Cu3       1.0  0.50000  0.07028  0.92972  1.0000 0.8590756805
Cu  Cu4       1.0  0.07028  0.50000  0.92972  1.0000 0.8590756805
Cu  Cu5       1.0  0.92972  0.50000  0.50000  1.0000 0.8590756805
Cu  Cu6       1.0  0.50000  0.07028  0.50000  1.0000 0.8590756805
Cu  Cu7       1.0  0.92972  0.50000  0.07028  1.0000 0.8590756805
Cu  Cu8       1.0  0.07028  0.50000  0.50000  1.0000 0.8590756805
Cu  Cu9       1.0  0.92972  0.07028  0.50000  1.0000 0.8590756805
Cu  Cu10      1.0  0.50000  0.50000  0.92972  1.0000 0.8590756805
Cu  Cu11      1.0  0.50000  0.50000  0.07028  1.0000 0.8590756805
Cu  Cu12      1.0  0.07028  0.92972  0.50000  1.0000 0.8590756805
H   H1        1.0  0.53510  0.22710  0.01070  1.0000 0.1372422577
H   H2        1.0  0.77290  0.98930  0.46490  1.0000 0.1372422577
H   H3        1.0  0.22710  0.01070  0.22710  1.0000 0.1372422577
H   H4        1.0  0.01070  0.53510  0.22710  1.0000 0.1372422577
H   H5        1.0  0.22710  0.53510  0.22710  1.0000 0.1372422577
H   H6        1.0  0.46490  0.77290  0.77290  1.0000 0.1372422577
H   H7        1.0  0.77290  0.77290  0.98930  1.0000 0.1372422577
H   H8        1.0  0.98930  0.77290  0.77290  1.0000 0.1372422577
H   H9        1.0  0.01070  0.22710  0.53510  1.0000 0.1372422577
H   H10       1.0  0.53510  0.01070  0.22710  1.0000 0.1372422577
H   H11       1.0  0.77290  0.46490  0.98930  1.0000 0.1372422577
H   H12       1.0  0.77290  0.77290  0.46490  1.0000 0.1372422577
H   H13       1.0  0.22710  0.22710  0.53510  1.0000 0.1372422577
H   H14       1.0  0.46490  0.98930  0.77290  1.0000 0.1372422577
H   H15       1.0  0.22710  0.22710  0.01070  1.0000 0.1372422577
H   H16       1.0  0.98930  0.46490  0.77290  1.0000 0.1372422577
H   H17       1.0  0.22710  0.01070  0.53510  1.0000 0.1372422577
H   H18       1.0  0.46490  0.77290  0.98930  1.0000 0.1372422577
H   H19       1.0  0.77290  0.46490  0.77290  1.0000 0.1372422577
H   H20       1.0  0.77290  0.98930  0.77290  1.0000 0.1372422577
H   H21       1.0  0.22710  0.53510  0.01070  1.0000 0.1372422577
H   H22       1.0  0.98930  0.77290  0.46490  1.0000 0.1372422577
H   H23       1.0  0.53510  0.22710  0.22710  1.0000 0.1372422577
H   H24       1.0  0.01070  0.22710  0.22710  1.0000 0.1372422577
C   C1        1.0  0.52686  0.06810  0.06810  1.0000 0.5834998688
C   C2        1.0  0.66306  0.93190  0.47314  1.0000 0.5834998688
C   C3        1.0  0.33694  0.06810  0.06810  1.0000 0.5834998688
C   C4        1.0  0.06810  0.52686  0.06810  1.0000 0.5834998688
C   C5        1.0  0.06810  0.52686  0.33694  1.0000 0.5834998688
C   C6        1.0  0.47314  0.93190  0.66306  1.0000 0.5834998688
C   C7        1.0  0.66306  0.93190  0.93190  1.0000 0.5834998688
C   C8        1.0  0.93190  0.66306  0.93190  1.0000 0.5834998688
C   C9        1.0  0.06810  0.33694  0.52686  1.0000 0.5834998688
C   C10       1.0  0.52686  0.06810  0.33694  1.0000 0.5834998688
C   C11       1.0  0.93190  0.47314  0.93190  1.0000 0.5834998688
C   C12       1.0  0.93190  0.66306  0.47314  1.0000 0.5834998688
C   C13       1.0  0.33694  0.06810  0.52686  1.0000 0.5834998688
C   C14       1.0  0.47314  0.93190  0.93190  1.0000 0.5834998688
C   C15       1.0  0.06810  0.33694  0.06810  1.0000 0.5834998688
C   C16       1.0  0.93190  0.47314  0.66306  1.0000 0.5834998688
C   C17       1.0  0.06810  0.06810  0.52686  1.0000 0.5834998688
C   C18       1.0  0.47314  0.66306  0.93190  1.0000 0.5834998688
C   C19       1.0  0.66306  0.47314  0.93190  1.0000 0.5834998688
C   C20       1.0  0.93190  0.93190  0.66306  1.0000 0.5834998688
C   C21       1.0  0.33694  0.52686  0.06810  1.0000 0.5834998688
C   C22       1.0  0.93190  0.93190  0.47314  1.0000 0.5834998688
C   C23       1.0  0.52686  0.33694  0.06810  1.0000 0.5834998688
C   C24       1.0  0.06810  0.06810  0.33694  1.0000 0.5834998688
C   C25       1.0  0.53460  0.19840  0.06860  1.0000 -0.0784295154
C   C26       1.0  0.80160  0.93140  0.46540  1.0000 -0.0784295154
C   C27       1.0  0.19840  0.06860  0.19840  1.0000 -0.0784295154
C   C28       1.0  0.06860  0.53460  0.19840  1.0000 -0.0784295154
C   C29       1.0  0.19840  0.53460  0.19840  1.0000 -0.0784295154
C   C30       1.0  0.46540  0.80160  0.80160  1.0000 -0.0784295154
C   C31       1.0  0.80160  0.80160  0.93140  1.0000 -0.0784295154
C   C32       1.0  0.93140  0.80160  0.80160  1.0000 -0.0784295154
C   C33       1.0  0.06860  0.19840  0.53460  1.0000 -0.0784295154
C   C34       1.0  0.53460  0.06860  0.19840  1.0000 -0.0784295154
C   C35       1.0  0.80160  0.46540  0.93140  1.0000 -0.0784295154
C   C36       1.0  0.80160  0.80160  0.46540  1.0000 -0.0784295154
C   C37       1.0  0.19840  0.19840  0.53460  1.0000 -0.0784295154
C   C38       1.0  0.46540  0.93140  0.80160  1.0000 -0.0784295154
C   C39       1.0  0.19840  0.19840  0.06860  1.0000 -0.0784295154
C   C40       1.0  0.93140  0.46540  0.80160  1.0000 -0.0784295154
C   C41       1.0  0.19840  0.06860  0.53460  1.0000 -0.0784295154
C   C42       1.0  0.46540  0.80160  0.93140  1.0000 -0.0784295154
C   C43       1.0  0.80160  0.46540  0.80160  1.0000 -0.0784295154
C   C44       1.0  0.80160  0.93140  0.80160  1.0000 -0.0784295154
C   C45       1.0  0.19840  0.53460  0.06860  1.0000 -0.0784295154
C   C46       1.0  0.93140  0.80160  0.46540  1.0000 -0.0784295154
C   C47       1.0  0.53460  0.19840  0.19840  1.0000 -0.0784295154
C   C48       1.0  0.06860  0.19840  0.19840  1.0000 -0.0784295154
C   C49       1.0  0.53420  0.11180  0.11180  1.0000 -0.0364026933
C   C50       1.0  0.75780  0.88820  0.46580  1.0000 -0.0364026933
C   C51       1.0  0.24220  0.11180  0.11180  1.0000 -0.0364026933
C   C52       1.0  0.11180  0.53420  0.11180  1.0000 -0.0364026933
C   C53       1.0  0.11180  0.53420  0.24220  1.0000 -0.0364026933
C   C54       1.0  0.46580  0.88820  0.75780  1.0000 -0.0345204235
C   C55       1.0  0.75780  0.88820  0.88820  1.0000 -0.0345204235
C   C56       1.0  0.88820  0.75780  0.88820  1.0000 -0.0345204235
C   C57       1.0  0.11180  0.24220  0.53420  1.0000 -0.0364026933
C   C58       1.0  0.53420  0.11180  0.24220  1.0000 -0.0364026933
C   C59       1.0  0.88820  0.46580  0.88820  1.0000 -0.0345204235
C   C60       1.0  0.88820  0.75780  0.46580  1.0000 -0.0364026933
C   C61       1.0  0.24220  0.11180  0.53420  1.0000 -0.0364026933
C   C62       1.0  0.46580  0.88820  0.88820  1.0000 -0.0345204235
C   C63       1.0  0.11180  0.24220  0.11180  1.0000 -0.0364026933
C   C64       1.0  0.88820  0.46580  0.75780  1.0000 -0.0345204235
C   C65       1.0  0.11180  0.11180  0.53420  1.0000 -0.0364026933
C   C66       1.0  0.46580  0.75780  0.88820  1.0000 -0.0345204235
C   C67       1.0  0.75780  0.46580  0.88820  1.0000 -0.0345204235
C   C68       1.0  0.88820  0.88820  0.75780  1.0000 -0.0345204235
C   C69       1.0  0.24220  0.53420  0.11180  1.0000 -0.0364026933
C   C70       1.0  0.88820  0.88820  0.46580  1.0000 -0.0364026933
C   C71       1.0  0.53420  0.24220  0.11180  1.0000 -0.0364026933
C   C72       1.0  0.11180  0.11180  0.24220  1.0000 -0.0364026933
O   O1        1.0  0.52127  0.99199  0.11277  1.0000 -0.5180768047
O   O2        1.0  0.62603  0.88723  0.47873  1.0000 -0.5180768047
O   O3        1.0  0.37397  0.11277  0.99199  1.0000 -0.5180768047
O   O4        1.0  0.11277  0.52127  0.99199  1.0000 -0.5180768047
O   O5        1.0  0.99199  0.52127  0.37397  1.0000 -0.5180768047
O   O6        1.0  0.47873  0.00801  0.62603  1.0000 -0.5180768047
O   O7        1.0  0.62603  0.00801  0.88723  1.0000 -0.5180768047
O   O8        1.0  0.88723  0.62603  0.00801  1.0000 -0.5180768047
O   O9        1.0  0.11277  0.37397  0.52127  1.0000 -0.5180768047
O   O10       1.0  0.52127  0.11277  0.37397  1.0000 -0.5180768047
O   O11       1.0  0.00801  0.47873  0.88723  1.0000 -0.5180768047
O   O12       1.0  0.00801  0.62603  0.47873  1.0000 -0.5180768047
O   O13       1.0  0.37397  0.99199  0.52127  1.0000 -0.5180768047
O   O14       1.0  0.47873  0.88723  0.00801  1.0000 -0.5180768047
O   O15       1.0  0.99199  0.37397  0.11277  1.0000 -0.5180768047
O   O16       1.0  0.88723  0.47873  0.62603  1.0000 -0.5180768047
O   O17       1.0  0.99199  0.11277  0.52127  1.0000 -0.5180768047
O   O18       1.0  0.47873  0.62603  0.88723  1.0000 -0.5180768047
O   O19       1.0  0.62603  0.47873  0.00801  1.0000 -0.5180768047
O   O20       1.0  0.00801  0.88723  0.62603  1.0000 -0.5180768047
O   O21       1.0  0.37397  0.52127  0.11277  1.0000 -0.5180768047
O   O22       1.0  0.88723  0.00801  0.47873  1.0000 -0.5180768047
O   O23       1.0  0.52127  0.37397  0.99199  1.0000 -0.5180768047
O   O24       1.0  0.11277  0.99199  0.37397  1.0000 -0.5180768047
O   O25       1.0  0.47873  0.00801  0.88723  1.0000 -0.5180768047
O   O26       1.0  0.37397  0.11277  0.52127  1.0000 -0.5180768047
O   O27       1.0  0.62603  0.88723  0.00801  1.0000 -0.5180768047
O   O28       1.0  0.88723  0.47873  0.00801  1.0000 -0.5180768047
O   O29       1.0  0.00801  0.47873  0.62603  1.0000 -0.5180768047
O   O30       1.0  0.52127  0.99199  0.37397  1.0000 -0.5180768047
O   O31       1.0  0.37397  0.99199  0.11277  1.0000 -0.5180768047
O   O32       1.0  0.11277  0.37397  0.99199  1.0000 -0.5180768047
O   O33       1.0  0.88723  0.62603  0.47873  1.0000 -0.5180768047
O   O34       1.0  0.47873  0.88723  0.62603  1.0000 -0.5180768047
O   O35       1.0  0.99199  0.52127  0.11277  1.0000 -0.5180768047
O   O36       1.0  0.99199  0.37397  0.52127  1.0000 -0.5180768047
O   O37       1.0  0.62603  0.00801  0.47873  1.0000 -0.5180768047
O   O38       1.0  0.52127  0.11277  0.99199  1.0000 -0.5180768047
O   O39       1.0  0.00801  0.62603  0.88723  1.0000 -0.5180768047
O   O40       1.0  0.11277  0.52127  0.37397  1.0000 -0.5180768047
O   O41       1.0  0.00801  0.88723  0.47873  1.0000 -0.5180768047
O   O42       1.0  0.52127  0.37397  0.11277  1.0000 -0.5180768047
O   O43       1.0  0.37397  0.52127  0.99199  1.0000 -0.5180768047
O   O44       1.0  0.99199  0.11277  0.37397  1.0000 -0.5180768047
O   O45       1.0  0.62603  0.47873  0.88723  1.0000 -0.5180768047
O   O46       1.0  0.11277  0.99199  0.52127  1.0000 -0.5180768047
O   O47       1.0  0.47873  0.62603  0.00801  1.0000 -0.5180768047
O   O48       1.0  0.88723  0.00801  0.62603  1.0000 -0.5180768047
