# DDEC6 charges by PACMAN v1.1 (https://github.com/mtap-research/PACMAN-charge/)
data_2009[Mn][nan]3[ASR]3
_chemical_formula_sum              "Mn4 H40 C56 N8 O16"
_cell_length_a       11.876
_cell_length_b       11.876
_cell_length_c       16.341
_cell_angle_alpha    73.3607
_cell_angle_beta     106.639
_cell_angle_gamma    101.619

_symmetry_space_group_name_H-M    "P 1"
_symmetry_Int_Tables_number       1

loop_
  _symmetry_equiv_pos_as_xyz
  'x, y, z'

loop_
  _atom_site_type_symbol
  _atom_site_label
  _atom_site_symmetry_multiplicity
  _atom_site_fract_x
  _atom_site_fract_y
  _atom_site_fract_z
  _atom_site_occupancy
  _atom_site_charge
Mn  Mn1       1.0  0.61596  0.16756  0.45324  1.0000 0.9306321781
Mn  Mn2       1.0  0.16756  0.61596  0.04676  1.0000 0.9306321781
Mn  Mn3       1.0  0.38404  0.83244  0.54676  1.0000 0.9306321781
Mn  Mn4       1.0  0.83244  0.38404  0.95324  1.0000 0.9306321781
H   H1        1.0  0.16700  0.54700  0.46300  1.0000 0.2582636218
H   H2        1.0  0.54700  0.16700  0.03700  1.0000 0.2582636218
H   H3        1.0  0.83300  0.45300  0.53700  1.0000 0.2582636218
H   H4        1.0  0.45300  0.83300  0.96300  1.0000 0.2582636218
H   H5        1.0  0.81340  0.33720  0.22660  1.0000 0.1207108365
H   H6        1.0  0.33720  0.81340  0.27340  1.0000 0.1207108365
H   H7        1.0  0.18660  0.66280  0.77340  1.0000 0.1207108365
H   H8        1.0  0.66280  0.18660  0.72660  1.0000 0.1207108365
H   H9        1.0  0.98210  0.42670  0.45300  1.0000 0.1207108365
H   H10       1.0  0.42670  0.98210  0.04700  1.0000 0.1207108365
H   H11       1.0  0.01790  0.57330  0.54700  1.0000 0.1207108365
H   H12       1.0  0.57330  0.01790  0.95300  1.0000 0.1207108365
H   H13       1.0  0.14370  0.51330  0.25530  1.0000 0.127376851
H   H14       1.0  0.51330  0.14370  0.24470  1.0000 0.127376851
H   H15       1.0  0.85630  0.48670  0.74470  1.0000 0.127376851
H   H16       1.0  0.48670  0.85630  0.75530  1.0000 0.127376851
H   H17       1.0  0.26700  0.62200  0.32740  1.0000 0.1207108365
H   H18       1.0  0.62200  0.26700  0.17260  1.0000 0.1207108365
H   H19       1.0  0.73300  0.37800  0.67260  1.0000 0.1207108365
H   H20       1.0  0.37800  0.73300  0.82740  1.0000 0.1207108365
H   H21       1.0  0.32840  0.63880  0.42240  1.0000 0.127376851
H   H22       1.0  0.63880  0.32840  0.07760  1.0000 0.127376851
H   H23       1.0  0.67160  0.36120  0.57760  1.0000 0.127376851
H   H24       1.0  0.36120  0.67160  0.92240  1.0000 0.127376851
H   H25       1.0  0.29350  0.36650  0.49820  1.0000 0.1380284991
H   H26       1.0  0.36650  0.29350  0.00180  1.0000 0.1380284991
H   H27       1.0  0.70650  0.63350  0.50180  1.0000 0.1380284991
H   H28       1.0  0.63350  0.70650  0.99820  1.0000 0.1380284991
H   H29       1.0  0.45960  0.57700  0.31960  1.0000 0.1453872066
H   H30       1.0  0.57700  0.45960  0.18040  1.0000 0.1453872066
H   H31       1.0  0.54040  0.42300  0.68040  1.0000 0.1453872066
H   H32       1.0  0.42300  0.54040  0.81960  1.0000 0.1453872066
H   H33       1.0  0.57830  0.43650  0.34820  1.0000 0.1022322368
H   H34       1.0  0.43650  0.57830  0.15180  1.0000 0.1022322368
H   H35       1.0  0.42170  0.56350  0.65180  1.0000 0.1022322368
H   H36       1.0  0.56350  0.42170  0.84820  1.0000 0.1022322368
H   H37       1.0  0.41280  0.22480  0.51590  1.0000 0.1115689244
H   H38       1.0  0.22480  0.41280  0.98410  1.0000 0.1115689244
H   H39       1.0  0.58720  0.77520  0.48410  1.0000 0.1115689244
H   H40       1.0  0.77520  0.58720  0.01590  1.0000 0.1115689244
C   C1        1.0  0.07920  0.48240  0.36260  1.0000 0.223310579
C   C2        1.0  0.48240  0.07920  0.13740  1.0000 0.223310579
C   C3        1.0  0.92080  0.51760  0.63740  1.0000 0.223310579
C   C4        1.0  0.51760  0.92080  0.86260  1.0000 0.223310579
C   C5        1.0  0.97670  0.42710  0.22550  1.0000 -0.0176059553
C   C6        1.0  0.42710  0.97670  0.27450  1.0000 -0.0176059553
C   C7        1.0  0.02330  0.57290  0.77450  1.0000 -0.0176059553
C   C8        1.0  0.57290  0.02330  0.72550  1.0000 -0.0176059553
C   C9        1.0  0.88150  0.37450  0.34540  1.0000 -0.0013606258
C   C10       1.0  0.37450  0.88150  0.15460  1.0000 -0.0013606258
C   C11       1.0  0.11850  0.62550  0.65460  1.0000 -0.0013606258
C   C12       1.0  0.62550  0.11850  0.84540  1.0000 -0.0013606258
C   C13       1.0  0.87970  0.37370  0.26040  1.0000 -0.1479992826
C   C14       1.0  0.37370  0.87970  0.23960  1.0000 -0.1479992826
C   C15       1.0  0.12030  0.62630  0.73960  1.0000 -0.1479992826
C   C16       1.0  0.62630  0.12030  0.76040  1.0000 -0.1479992826
C   C17       1.0  0.77820  0.31000  0.38360  1.0000 0.5377225321
C   C18       1.0  0.31000  0.77820  0.11640  1.0000 0.5377225321
C   C19       1.0  0.22180  0.69000  0.61640  1.0000 0.5377225321
C   C20       1.0  0.69000  0.22180  0.88360  1.0000 0.5377225321
C   C21       1.0  0.98100  0.42760  0.39560  1.0000 -0.2104446623
C   C22       1.0  0.42760  0.98100  0.10440  1.0000 -0.2104446623
C   C23       1.0  0.01900  0.57240  0.60440  1.0000 -0.2104446623
C   C24       1.0  0.57240  0.01900  0.89560  1.0000 -0.2104446623
C   C25       1.0  0.07740  0.47980  0.27770  1.0000 -0.1980634589
C   C26       1.0  0.47980  0.07740  0.22230  1.0000 -0.1980634589
C   C27       1.0  0.92260  0.52020  0.72230  1.0000 -0.1980634589
C   C28       1.0  0.52020  0.92260  0.77770  1.0000 -0.1980634589
C   C29       1.0  0.35970  0.48650  0.40420  1.0000 0.1380284991
C   C30       1.0  0.48650  0.35970  0.09580  1.0000 0.1380284991
C   C31       1.0  0.64030  0.51350  0.59580  1.0000 0.1380284991
C   C32       1.0  0.51350  0.64030  0.90420  1.0000 0.1380284991
C   C33       1.0  0.97570  0.42730  0.13360  1.0000 0.5844255727
C   C34       1.0  0.42730  0.97570  0.36640  1.0000 0.5844255727
C   C35       1.0  0.02430  0.57270  0.86640  1.0000 0.5844255727
C   C36       1.0  0.57270  0.02430  0.63360  1.0000 0.5844255727
C   C37       1.0  0.28390  0.58130  0.38940  1.0000 -0.1349847574
C   C38       1.0  0.58130  0.28390  0.11060  1.0000 -0.1349847574
C   C39       1.0  0.71610  0.41870  0.61060  1.0000 -0.1349847574
C   C40       1.0  0.41870  0.71610  0.88940  1.0000 -0.1349847574
C   C41       1.0  0.34870  0.38190  0.46460  1.0000 -0.1980634589
C   C42       1.0  0.38190  0.34870  0.03540  1.0000 -0.1980634589
C   C43       1.0  0.65130  0.61810  0.53540  1.0000 -0.1980634589
C   C44       1.0  0.61810  0.65130  0.96460  1.0000 -0.1980634589
C   C45       1.0  0.44780  0.50560  0.36030  1.0000 -0.2104446623
C   C46       1.0  0.50560  0.44780  0.13970  1.0000 -0.2104446623
C   C47       1.0  0.55220  0.49440  0.63970  1.0000 -0.2104446623
C   C48       1.0  0.49440  0.55220  0.86030  1.0000 -0.2104446623
C   C49       1.0  0.51740  0.41960  0.37700  1.0000 0.0547923226
C   C50       1.0  0.41960  0.51740  0.12300  1.0000 0.0547923226
C   C51       1.0  0.48260  0.58040  0.62300  1.0000 0.0547923226
C   C52       1.0  0.58040  0.48260  0.87700  1.0000 0.0547923226
C   C53       1.0  0.42250  0.29690  0.47530  1.0000 0.0887275603
C   C54       1.0  0.29690  0.42250  0.02470  1.0000 0.0887275603
C   C55       1.0  0.57750  0.70310  0.52470  1.0000 0.0887275603
C   C56       1.0  0.70310  0.57750  0.97530  1.0000 0.0887275603
N   N1        1.0  0.17400  0.53800  0.41440  1.0000 -0.3027469773
N   N2        1.0  0.53800  0.17400  0.08560  1.0000 -0.3027469773
N   N3        1.0  0.82600  0.46200  0.58560  1.0000 -0.3027469773
N   N4        1.0  0.46200  0.82600  0.91440  1.0000 -0.3027469773
N   N5        1.0  0.50460  0.31280  0.43170  1.0000 -0.2399330545
N   N6        1.0  0.31280  0.50460  0.06830  1.0000 -0.2399330545
N   N7        1.0  0.49540  0.68720  0.56830  1.0000 -0.2399330545
N   N8        1.0  0.68720  0.49540  0.93170  1.0000 -0.2399330545
O   O1        1.0  0.68930  0.26310  0.33580  1.0000 -0.5571287829
O   O2        1.0  0.26310  0.68930  0.16420  1.0000 -0.5571287829
O   O3        1.0  0.31070  0.73690  0.66420  1.0000 -0.5571287829
O   O4        1.0  0.73690  0.31070  0.83580  1.0000 -0.5571287829
O   O5        1.0  0.78520  0.30380  0.46350  1.0000 -0.5704100886
O   O6        1.0  0.30380  0.78520  0.03650  1.0000 -0.5704100886
O   O7        1.0  0.21480  0.69620  0.53650  1.0000 -0.5704100886
O   O8        1.0  0.69620  0.21480  0.96350  1.0000 -0.5704100886
O   O9        1.0  0.07010  0.46370  0.10830  1.0000 -0.5704100886
O   O10       1.0  0.46370  0.07010  0.39170  1.0000 -0.5704100886
O   O11       1.0  0.92990  0.53630  0.89170  1.0000 -0.5704100886
O   O12       1.0  0.53630  0.92990  0.60830  1.0000 -0.5704100886
O   O13       1.0  0.87980  0.38540  0.08810  1.0000 -0.5704100886
O   O14       1.0  0.38540  0.87980  0.41190  1.0000 -0.5704100886
O   O15       1.0  0.12020  0.61460  0.91190  1.0000 -0.5704100886
O   O16       1.0  0.61460  0.12020  0.58810  1.0000 -0.5704100886
