# DDEC6 charges by PACMAN v1.1 (https://github.com/mtap-research/PACMAN-charge/)
data_2009[Mn][nan]3[ASR]4
_chemical_formula_sum              "Mn4 H40 C56 N8 O16"
_cell_length_a       11.8845
_cell_length_b       11.8845
_cell_length_c       16.357
_cell_angle_alpha    73.4542
_cell_angle_beta     106.546
_cell_angle_gamma    101.511

_symmetry_space_group_name_H-M    "P 1"
_symmetry_Int_Tables_number       1

loop_
  _symmetry_equiv_pos_as_xyz
  'x, y, z'

loop_
  _atom_site_type_symbol
  _atom_site_label
  _atom_site_symmetry_multiplicity
  _atom_site_fract_x
  _atom_site_fract_y
  _atom_site_fract_z
  _atom_site_occupancy
  _atom_site_charge
Mn  Mn1       1.0  0.61562  0.16748  0.45322  1.0000 0.9303724448
Mn  Mn2       1.0  0.16748  0.61562  0.04678  1.0000 0.9303724448
Mn  Mn3       1.0  0.38438  0.83252  0.54678  1.0000 0.9303724448
Mn  Mn4       1.0  0.83252  0.38438  0.95322  1.0000 0.9303724448
H   H1        1.0  0.45400  0.83440  0.96360  1.0000 0.2612173388
H   H2        1.0  0.83440  0.45400  0.53640  1.0000 0.2612173388
H   H3        1.0  0.54600  0.16560  0.03640  1.0000 0.2612173388
H   H4        1.0  0.16560  0.54600  0.46360  1.0000 0.2612173388
H   H5        1.0  0.66110  0.18810  0.72520  1.0000 0.1198101173
H   H6        1.0  0.18810  0.66110  0.77480  1.0000 0.1198101173
H   H7        1.0  0.33890  0.81190  0.27480  1.0000 0.1198101173
H   H8        1.0  0.81190  0.33890  0.22520  1.0000 0.1198101173
H   H9        1.0  0.48810  0.85710  0.75520  1.0000 0.1268727387
H   H10       1.0  0.85710  0.48810  0.74480  1.0000 0.1268727387
H   H11       1.0  0.51190  0.14290  0.24480  1.0000 0.1268727387
H   H12       1.0  0.14290  0.51190  0.25520  1.0000 0.1268727387
H   H13       1.0  0.57440  0.01900  0.95320  1.0000 0.1198101173
H   H14       1.0  0.01900  0.57440  0.54680  1.0000 0.1198101173
H   H15       1.0  0.42560  0.98100  0.04680  1.0000 0.1198101173
H   H16       1.0  0.98100  0.42560  0.45320  1.0000 0.1198101173
H   H17       1.0  0.36020  0.67280  0.92080  1.0000 0.1268727387
H   H18       1.0  0.67280  0.36020  0.57920  1.0000 0.1268727387
H   H19       1.0  0.63980  0.32720  0.07920  1.0000 0.1268727387
H   H20       1.0  0.32720  0.63980  0.42080  1.0000 0.1268727387
H   H21       1.0  0.37880  0.73460  0.82650  1.0000 0.1268727387
H   H22       1.0  0.73460  0.37880  0.67350  1.0000 0.1268727387
H   H23       1.0  0.62120  0.26540  0.17350  1.0000 0.1268727387
H   H24       1.0  0.26540  0.62120  0.32650  1.0000 0.1268727387
H   H25       1.0  0.63470  0.70730  0.99790  1.0000 0.1369865964
H   H26       1.0  0.70730  0.63470  0.50210  1.0000 0.1369865964
H   H27       1.0  0.36530  0.29270  0.00210  1.0000 0.1369865964
H   H28       1.0  0.29270  0.36530  0.49790  1.0000 0.1369865964
H   H29       1.0  0.42320  0.53940  0.81990  1.0000 0.1466501671
H   H30       1.0  0.53940  0.42320  0.68010  1.0000 0.1466501671
H   H31       1.0  0.57680  0.46060  0.18010  1.0000 0.1466501671
H   H32       1.0  0.46060  0.57680  0.31990  1.0000 0.1466501671
H   H33       1.0  0.56410  0.42110  0.84910  1.0000 0.1035025622
H   H34       1.0  0.42110  0.56410  0.65090  1.0000 0.1035025622
H   H35       1.0  0.43590  0.57890  0.15090  1.0000 0.1035025622
H   H36       1.0  0.57890  0.43590  0.34910  1.0000 0.1035025622
H   H37       1.0  0.77370  0.58610  0.01810  1.0000 0.1145228426
H   H38       1.0  0.58610  0.77370  0.48190  1.0000 0.1145228426
H   H39       1.0  0.22630  0.41390  0.98190  1.0000 0.1145228426
H   H40       1.0  0.41390  0.22630  0.51810  1.0000 0.1145228426
C   C1        1.0  0.51900  0.92240  0.86360  1.0000 0.2222738991
C   C2        1.0  0.92240  0.51900  0.63640  1.0000 0.2222738991
C   C3        1.0  0.48100  0.07760  0.13640  1.0000 0.2222738991
C   C4        1.0  0.07760  0.48100  0.36360  1.0000 0.2222738991
C   C5        1.0  0.57380  0.02360  0.72600  1.0000 -0.0118258266
C   C6        1.0  0.02360  0.57380  0.77400  1.0000 -0.0118258266
C   C7        1.0  0.42620  0.97640  0.27400  1.0000 -0.0118258266
C   C8        1.0  0.97640  0.42620  0.22600  1.0000 -0.0118258266
C   C9        1.0  0.62670  0.12130  0.75970  1.0000 -0.1562933345
C   C10       1.0  0.12130  0.62670  0.74030  1.0000 -0.1562933345
C   C11       1.0  0.37330  0.87870  0.24030  1.0000 -0.1562933345
C   C12       1.0  0.87870  0.37330  0.25970  1.0000 -0.1562933345
C   C13       1.0  0.62780  0.11860  0.84590  1.0000 -0.0046894235
C   C14       1.0  0.11860  0.62780  0.65410  1.0000 -0.0046894235
C   C15       1.0  0.37220  0.88140  0.15410  1.0000 -0.0046894235
C   C16       1.0  0.88140  0.37220  0.34590  1.0000 -0.0046894235
C   C17       1.0  0.69060  0.22160  0.88370  1.0000 0.5407613198
C   C18       1.0  0.22160  0.69060  0.61630  1.0000 0.5407613198
C   C19       1.0  0.30940  0.77840  0.11630  1.0000 0.5407613198
C   C20       1.0  0.77840  0.30940  0.38370  1.0000 0.5407613198
C   C21       1.0  0.51250  0.64010  0.90350  1.0000 0.1466501671
C   C22       1.0  0.64010  0.51250  0.59650  1.0000 0.1466501671
C   C23       1.0  0.48750  0.35990  0.09650  1.0000 0.1466501671
C   C24       1.0  0.35990  0.48750  0.40350  1.0000 0.1466501671
C   C25       1.0  0.52140  0.92320  0.77750  1.0000 -0.1983111818
C   C26       1.0  0.92320  0.52140  0.72250  1.0000 -0.1983111818
C   C27       1.0  0.47860  0.07680  0.22250  1.0000 -0.1983111818
C   C28       1.0  0.07680  0.47860  0.27750  1.0000 -0.1983111818
C   C29       1.0  0.57310  0.02470  0.63280  1.0000 0.5868838112
C   C30       1.0  0.02470  0.57310  0.86720  1.0000 0.5868838112
C   C31       1.0  0.42690  0.97530  0.36720  1.0000 0.5868838112
C   C32       1.0  0.97530  0.42690  0.13280  1.0000 0.5868838112
C   C33       1.0  0.57370  0.01970  0.89600  1.0000 -0.2166980972
C   C34       1.0  0.01970  0.57370  0.60400  1.0000 -0.2166980972
C   C35       1.0  0.42630  0.98030  0.10400  1.0000 -0.2166980972
C   C36       1.0  0.98030  0.42630  0.39600  1.0000 -0.2166980972
C   C37       1.0  0.41860  0.71700  0.88850  1.0000 -0.1418473889
C   C38       1.0  0.71700  0.41860  0.61150  1.0000 -0.1418473889
C   C39       1.0  0.58140  0.28300  0.11150  1.0000 -0.1418473889
C   C40       1.0  0.28300  0.58140  0.38850  1.0000 -0.1418473889
C   C41       1.0  0.61920  0.65140  0.96500  1.0000 -0.1983111818
C   C42       1.0  0.65140  0.61920  0.53500  1.0000 -0.1983111818
C   C43       1.0  0.38080  0.34860  0.03500  1.0000 -0.1983111818
C   C44       1.0  0.34860  0.38080  0.46500  1.0000 -0.1983111818
C   C45       1.0  0.49440  0.55180  0.86060  1.0000 -0.2117365171
C   C46       1.0  0.55180  0.49440  0.63940  1.0000 -0.2117365171
C   C47       1.0  0.50560  0.44820  0.13940  1.0000 -0.2117365171
C   C48       1.0  0.44820  0.50560  0.36060  1.0000 -0.2117365171
C   C49       1.0  0.58060  0.48200  0.87760  1.0000 0.0605555157
C   C50       1.0  0.48200  0.58060  0.62240  1.0000 0.0605555157
C   C51       1.0  0.41940  0.51800  0.12240  1.0000 0.0605555157
C   C52       1.0  0.51800  0.41940  0.37760  1.0000 0.0605555157
C   C53       1.0  0.70250  0.57750  0.97660  1.0000 0.0801587681
C   C54       1.0  0.57750  0.70250  0.52340  1.0000 0.0801587681
C   C55       1.0  0.29750  0.42250  0.02340  1.0000 0.0801587681
C   C56       1.0  0.42250  0.29750  0.47660  1.0000 0.0801587681
N   N1        1.0  0.68710  0.49510  0.93230  1.0000 -0.2432336529
N   N2        1.0  0.49510  0.68710  0.56770  1.0000 -0.2432336529
N   N3        1.0  0.31290  0.50490  0.06770  1.0000 -0.2432336529
N   N4        1.0  0.50490  0.31290  0.43230  1.0000 -0.2432336529
N   N5        1.0  0.46290  0.82790  0.91490  1.0000 -0.3079185654
N   N6        1.0  0.82790  0.46290  0.58510  1.0000 -0.3079185654
N   N7        1.0  0.53710  0.17210  0.08510  1.0000 -0.3079185654
N   N8        1.0  0.17210  0.53710  0.41490  1.0000 -0.3079185654
O   O1        1.0  0.73740  0.31220  0.83580  1.0000 -0.5597941001
O   O2        1.0  0.31220  0.73740  0.66420  1.0000 -0.5597941001
O   O3        1.0  0.26260  0.68780  0.16420  1.0000 -0.5597941001
O   O4        1.0  0.68780  0.26260  0.33580  1.0000 -0.5597941001
O   O5        1.0  0.53540  0.93040  0.60790  1.0000 -0.5701602568
O   O6        1.0  0.93040  0.53540  0.89210  1.0000 -0.5701602568
O   O7        1.0  0.46460  0.06960  0.39210  1.0000 -0.5701602568
O   O8        1.0  0.06960  0.46460  0.10790  1.0000 -0.5701602568
O   O9        1.0  0.69770  0.21570  0.96360  1.0000 -0.5701602568
O   O10       1.0  0.21570  0.69770  0.53640  1.0000 -0.5701602568
O   O11       1.0  0.30230  0.78430  0.03640  1.0000 -0.5701602568
O   O12       1.0  0.78430  0.30230  0.46360  1.0000 -0.5701602568
O   O13       1.0  0.61400  0.11980  0.58780  1.0000 -0.5597941001
O   O14       1.0  0.11980  0.61400  0.91220  1.0000 -0.5597941001
O   O15       1.0  0.38600  0.88020  0.41220  1.0000 -0.5597941001
O   O16       1.0  0.88020  0.38600  0.08780  1.0000 -0.5597941001
