# DDEC6 charges by PACMAN v1.1 (https://github.com/mtap-research/PACMAN-charge/)
data_2009[Cd][nan]3[ASR]2
_chemical_formula_sum              "Cd8 H72 C80 N24 O32"
_cell_length_a       13.199
_cell_length_b       13.645
_cell_length_c       20.033
_cell_angle_alpha    90
_cell_angle_beta     90
_cell_angle_gamma    90

_symmetry_space_group_name_H-M    "P 1"
_symmetry_Int_Tables_number       1

loop_
  _symmetry_equiv_pos_as_xyz
  'x, y, z'

loop_
  _atom_site_type_symbol
  _atom_site_label
  _atom_site_symmetry_multiplicity
  _atom_site_fract_x
  _atom_site_fract_y
  _atom_site_fract_z
  _atom_site_occupancy
  _atom_site_charge
Cd  Cd1       1.0  0.86629  0.43842  0.35110  1.0000 0.8123041763
Cd  Cd2       1.0  0.36629  0.06158  0.14890  1.0000 0.8123041763
Cd  Cd3       1.0  0.63371  0.43842  0.64890  1.0000 0.8123041763
Cd  Cd4       1.0  0.13371  0.06158  0.85110  1.0000 0.8123041763
Cd  Cd5       1.0  0.13371  0.56158  0.64890  1.0000 0.8123041763
Cd  Cd6       1.0  0.63371  0.93842  0.85110  1.0000 0.8123041763
Cd  Cd7       1.0  0.36629  0.56158  0.35110  1.0000 0.8123041763
Cd  Cd8       1.0  0.86629  0.93842  0.14890  1.0000 0.8123041763
H   H1        1.0  0.20650  0.83830  0.26690  1.0000 0.142069444
H   H2        1.0  0.70650  0.66170  0.23310  1.0000 0.142069444
H   H3        1.0  0.29350  0.83830  0.73310  1.0000 0.142069444
H   H4        1.0  0.79350  0.66170  0.76690  1.0000 0.142069444
H   H5        1.0  0.79350  0.16170  0.73310  1.0000 0.142069444
H   H6        1.0  0.29350  0.33830  0.76690  1.0000 0.142069444
H   H7        1.0  0.70650  0.16170  0.26690  1.0000 0.142069444
H   H8        1.0  0.20650  0.33830  0.23310  1.0000 0.142069444
H   H9        1.0  0.09090  0.93780  0.21570  1.0000 0.1116287159
H   H10       1.0  0.59090  0.56220  0.28430  1.0000 0.1116287159
H   H11       1.0  0.40910  0.93780  0.78430  1.0000 0.1116287159
H   H12       1.0  0.90910  0.56220  0.71570  1.0000 0.1116287159
H   H13       1.0  0.90910  0.06220  0.78430  1.0000 0.1116287159
H   H14       1.0  0.40910  0.43780  0.71570  1.0000 0.1116287159
H   H15       1.0  0.59090  0.06220  0.21570  1.0000 0.1116287159
H   H16       1.0  0.09090  0.43780  0.28430  1.0000 0.1116287159
H   H17       1.0  0.87510  0.74930  0.24610  1.0000 0.1116287159
H   H18       1.0  0.37510  0.75070  0.25390  1.0000 0.1116287159
H   H19       1.0  0.62490  0.74930  0.75390  1.0000 0.1116287159
H   H20       1.0  0.12490  0.75070  0.74610  1.0000 0.1116287159
H   H21       1.0  0.12490  0.25070  0.75390  1.0000 0.1116287159
H   H22       1.0  0.62490  0.24930  0.74610  1.0000 0.1116287159
H   H23       1.0  0.37510  0.25070  0.24610  1.0000 0.1116287159
H   H24       1.0  0.87510  0.24930  0.25390  1.0000 0.1116287159
H   H25       1.0  0.57510  0.04620  0.99360  1.0000 0.1116287159
H   H26       1.0  0.07510  0.45380  0.50640  1.0000 0.1116287159
H   H27       1.0  0.92490  0.04620  0.00640  1.0000 0.1116287159
H   H28       1.0  0.42490  0.45380  0.49360  1.0000 0.1116287159
H   H29       1.0  0.42490  0.95380  0.00640  1.0000 0.1116287159
H   H30       1.0  0.92490  0.54620  0.49360  1.0000 0.1116287159
H   H31       1.0  0.07510  0.95380  0.99360  1.0000 0.1116287159
H   H32       1.0  0.57510  0.54620  0.50640  1.0000 0.1116287159
H   H33       1.0  0.60100  0.12770  0.94100  1.0000 0.1116287159
H   H34       1.0  0.10100  0.37230  0.55900  1.0000 0.1116287159
H   H35       1.0  0.89900  0.12770  0.05900  1.0000 0.1116287159
H   H36       1.0  0.39900  0.37230  0.44100  1.0000 0.1116287159
H   H37       1.0  0.39900  0.87230  0.05900  1.0000 0.1116287159
H   H38       1.0  0.89900  0.62770  0.44100  1.0000 0.1116287159
H   H39       1.0  0.10100  0.87230  0.94100  1.0000 0.1116287159
H   H40       1.0  0.60100  0.62770  0.55900  1.0000 0.1116287159
H   H41       1.0  0.69790  0.92160  0.01880  1.0000 0.1206514128
H   H42       1.0  0.19790  0.57840  0.48120  1.0000 0.1206514128
H   H43       1.0  0.80210  0.92160  0.98120  1.0000 0.1206514128
H   H44       1.0  0.30210  0.57840  0.51880  1.0000 0.1206514128
H   H45       1.0  0.30210  0.07840  0.98120  1.0000 0.1206514128
H   H46       1.0  0.80210  0.42160  0.51880  1.0000 0.1206514128
H   H47       1.0  0.19790  0.07840  0.01880  1.0000 0.1206514128
H   H48       1.0  0.69790  0.42160  0.48120  1.0000 0.1206514128
H   H49       1.0  0.65930  0.04610  0.09960  1.0000 0.1206514128
H   H50       1.0  0.15930  0.45390  0.40040  1.0000 0.1206514128
H   H51       1.0  0.84070  0.04610  0.90040  1.0000 0.1206514128
H   H52       1.0  0.34070  0.45390  0.59960  1.0000 0.1206514128
H   H53       1.0  0.34070  0.95390  0.90040  1.0000 0.1206514128
H   H54       1.0  0.84070  0.54610  0.59960  1.0000 0.1206514128
H   H55       1.0  0.15930  0.95390  0.09960  1.0000 0.1206514128
H   H56       1.0  0.65930  0.54610  0.40040  1.0000 0.1206514128
H   H57       1.0  0.73960  0.12770  0.11590  1.0000 0.1116287159
H   H58       1.0  0.23960  0.37230  0.38410  1.0000 0.1116287159
H   H59       1.0  0.76040  0.12770  0.88410  1.0000 0.1116287159
H   H60       1.0  0.26040  0.37230  0.61590  1.0000 0.1116287159
H   H61       1.0  0.26040  0.87230  0.88410  1.0000 0.1116287159
H   H62       1.0  0.76040  0.62770  0.61590  1.0000 0.1116287159
H   H63       1.0  0.23960  0.87230  0.11590  1.0000 0.1116287159
H   H64       1.0  0.73960  0.62770  0.38410  1.0000 0.1116287159
H   H65       1.0  0.77850  0.24520  0.03420  1.0000 0.1116287159
H   H66       1.0  0.27850  0.25480  0.46580  1.0000 0.1116287159
H   H67       1.0  0.72150  0.24520  0.96580  1.0000 0.1116287159
H   H68       1.0  0.22150  0.25480  0.53420  1.0000 0.1116287159
H   H69       1.0  0.22150  0.75480  0.96580  1.0000 0.1116287159
H   H70       1.0  0.72150  0.74520  0.53420  1.0000 0.1116287159
H   H71       1.0  0.27850  0.75480  0.03420  1.0000 0.1116287159
H   H72       1.0  0.77850  0.74520  0.46580  1.0000 0.1116287159
C   C1        1.0  0.96290  0.11210  0.18700  1.0000 0.5335118025
C   C2        1.0  0.46290  0.38790  0.31300  1.0000 0.5335118025
C   C3        1.0  0.53710  0.11210  0.81300  1.0000 0.5335118025
C   C4        1.0  0.03710  0.38790  0.68700  1.0000 0.5335118025
C   C5        1.0  0.03710  0.88790  0.81300  1.0000 0.5335118025
C   C6        1.0  0.53710  0.61210  0.68700  1.0000 0.5335118025
C   C7        1.0  0.46290  0.88790  0.18700  1.0000 0.5335118025
C   C8        1.0  0.96290  0.61210  0.31300  1.0000 0.5335118025
C   C9        1.0  0.00530  0.20340  0.21610  1.0000 -0.098968572
C   C10       1.0  0.50530  0.29660  0.28390  1.0000 -0.098968572
C   C11       1.0  0.49470  0.20340  0.78390  1.0000 -0.098968572
C   C12       1.0  0.99470  0.29660  0.71610  1.0000 -0.098968572
C   C13       1.0  0.99470  0.79660  0.78390  1.0000 -0.098968572
C   C14       1.0  0.49470  0.70340  0.71610  1.0000 -0.098968572
C   C15       1.0  0.50530  0.79660  0.21610  1.0000 -0.098968572
C   C16       1.0  0.00530  0.70340  0.28390  1.0000 -0.098968572
C   C17       1.0  0.11020  0.22830  0.21170  1.0000 0.0293522328
C   C18       1.0  0.61020  0.27170  0.28830  1.0000 0.0293522328
C   C19       1.0  0.38980  0.22830  0.78830  1.0000 0.0293522328
C   C20       1.0  0.88980  0.27170  0.71170  1.0000 0.0293522328
C   C21       1.0  0.88980  0.77170  0.78830  1.0000 0.0293522328
C   C22       1.0  0.38980  0.72830  0.71170  1.0000 0.0293522328
C   C23       1.0  0.61020  0.77170  0.21170  1.0000 0.0293522328
C   C24       1.0  0.11020  0.72830  0.28830  1.0000 0.0293522328
C   C25       1.0  0.19120  0.66100  0.31410  1.0000 0.5414467305
C   C26       1.0  0.69120  0.83900  0.18590  1.0000 0.5414467305
C   C27       1.0  0.30880  0.66100  0.68590  1.0000 0.5414467305
C   C28       1.0  0.80880  0.83900  0.81410  1.0000 0.5414467305
C   C29       1.0  0.80880  0.33900  0.68590  1.0000 0.5414467305
C   C30       1.0  0.30880  0.16100  0.81410  1.0000 0.5414467305
C   C31       1.0  0.69120  0.33900  0.31410  1.0000 0.5414467305
C   C32       1.0  0.19120  0.16100  0.18590  1.0000 0.5414467305
C   C33       1.0  0.13940  0.31810  0.23690  1.0000 -0.1599626262
C   C34       1.0  0.63940  0.18190  0.26310  1.0000 -0.1599626262
C   C35       1.0  0.36060  0.31810  0.76310  1.0000 -0.1599626262
C   C36       1.0  0.86060  0.18190  0.73690  1.0000 -0.1599626262
C   C37       1.0  0.86060  0.68190  0.76310  1.0000 -0.1599626262
C   C38       1.0  0.36060  0.81810  0.73690  1.0000 -0.1599626262
C   C39       1.0  0.63940  0.68190  0.23690  1.0000 -0.1599626262
C   C40       1.0  0.13940  0.81810  0.26310  1.0000 -0.1599626262
C   C41       1.0  0.06940  0.37760  0.26770  1.0000 0.0884786173
C   C42       1.0  0.56940  0.12240  0.23230  1.0000 0.0884786173
C   C43       1.0  0.43060  0.37760  0.73230  1.0000 0.0884786173
C   C44       1.0  0.93060  0.12240  0.76770  1.0000 0.0884786173
C   C45       1.0  0.93060  0.62240  0.73230  1.0000 0.0884786173
C   C46       1.0  0.43060  0.87760  0.76770  1.0000 0.0884786173
C   C47       1.0  0.56940  0.62240  0.26770  1.0000 0.0884786173
C   C48       1.0  0.06940  0.87760  0.23230  1.0000 0.0884786173
C   C49       1.0  0.94270  0.76680  0.25100  1.0000 0.0473146326
C   C50       1.0  0.44270  0.73320  0.24900  1.0000 0.0473146326
C   C51       1.0  0.55730  0.76680  0.74900  1.0000 0.0473146326
C   C52       1.0  0.05730  0.73320  0.75100  1.0000 0.0473146326
C   C53       1.0  0.05730  0.23320  0.74900  1.0000 0.0473146326
C   C54       1.0  0.55730  0.26680  0.75100  1.0000 0.0473146326
C   C55       1.0  0.44270  0.23320  0.25100  1.0000 0.0473146326
C   C56       1.0  0.94270  0.26680  0.24900  1.0000 0.0473146326
C   C57       1.0  0.87060  0.08620  0.02430  1.0000 -0.0483809188
C   C58       1.0  0.37060  0.41380  0.47570  1.0000 -0.0483809188
C   C59       1.0  0.62940  0.08620  0.97570  1.0000 -0.0483809188
C   C60       1.0  0.12940  0.41380  0.52430  1.0000 -0.0483809188
C   C61       1.0  0.12940  0.91380  0.97570  1.0000 -0.0483809188
C   C62       1.0  0.62940  0.58620  0.52430  1.0000 -0.0483809188
C   C63       1.0  0.37060  0.91380  0.02430  1.0000 -0.0483809188
C   C64       1.0  0.87060  0.58620  0.47570  1.0000 -0.0483809188
C   C65       1.0  0.75000  0.96340  0.00000  1.0000 -0.0423762352
C   C66       1.0  0.25000  0.53660  0.50000  1.0000 -0.0423762352
C   C67       1.0  0.25000  0.03660  0.00000  1.0000 -0.0423762352
C   C68       1.0  0.75000  0.46340  0.50000  1.0000 -0.0423762352
C   C69       1.0  0.78760  0.08670  0.91940  1.0000 -0.0423762352
C   C70       1.0  0.28760  0.41330  0.58060  1.0000 -0.0423762352
C   C71       1.0  0.71240  0.08670  0.08060  1.0000 -0.0423762352
C   C72       1.0  0.21240  0.41330  0.41940  1.0000 -0.0423762352
C   C73       1.0  0.21240  0.91330  0.08060  1.0000 -0.0423762352
C   C74       1.0  0.71240  0.58670  0.41940  1.0000 -0.0423762352
C   C75       1.0  0.28760  0.91330  0.91940  1.0000 -0.0423762352
C   C76       1.0  0.78760  0.58670  0.58060  1.0000 -0.0423762352
C   C77       1.0  0.75000  0.20320  0.00000  1.0000 -0.0423762352
C   C78       1.0  0.25000  0.29680  0.50000  1.0000 -0.0423762352
C   C79       1.0  0.25000  0.79680  0.00000  1.0000 -0.0423762352
C   C80       1.0  0.75000  0.70320  0.50000  1.0000 -0.0423762352
N   N1        1.0  0.97300  0.35330  0.27470  1.0000 -0.2380769849
N   N2        1.0  0.47300  0.14670  0.22530  1.0000 -0.2380769849
N   N3        1.0  0.52700  0.35330  0.72530  1.0000 -0.2380769849
N   N4        1.0  0.02700  0.14670  0.77470  1.0000 -0.2380769849
N   N5        1.0  0.02700  0.64670  0.72530  1.0000 -0.2380769849
N   N6        1.0  0.52700  0.85330  0.77470  1.0000 -0.2380769849
N   N7        1.0  0.47300  0.64670  0.27470  1.0000 -0.2380769849
N   N8        1.0  0.97300  0.85330  0.22530  1.0000 -0.2380769849
N   N9        1.0  0.79410  0.02340  0.05310  1.0000 -0.1841021851
N   N10       1.0  0.29410  0.47660  0.44690  1.0000 -0.1841021851
N   N11       1.0  0.70590  0.02340  0.94690  1.0000 -0.1841021851
N   N12       1.0  0.20590  0.47660  0.55310  1.0000 -0.1841021851
N   N13       1.0  0.20590  0.97660  0.94690  1.0000 -0.1841021851
N   N14       1.0  0.70590  0.52340  0.55310  1.0000 -0.1841021851
N   N15       1.0  0.29410  0.97660  0.05310  1.0000 -0.1841021851
N   N16       1.0  0.79410  0.52340  0.44690  1.0000 -0.1841021851
N   N17       1.0  0.82940  0.14760  0.97130  1.0000 -0.1215796322
N   N18       1.0  0.32940  0.35240  0.52870  1.0000 -0.1215796322
N   N19       1.0  0.67060  0.14760  0.02870  1.0000 -0.1215796322
N   N20       1.0  0.17060  0.35240  0.47130  1.0000 -0.1215796322
N   N21       1.0  0.17060  0.85240  0.02870  1.0000 -0.1215796322
N   N22       1.0  0.67060  0.64760  0.47130  1.0000 -0.1215796322
N   N23       1.0  0.32940  0.85240  0.97130  1.0000 -0.1215796322
N   N24       1.0  0.82940  0.64760  0.52870  1.0000 -0.1215796322
O   O1        1.0  0.87410  0.08690  0.20400  1.0000 -0.5415716544
O   O2        1.0  0.37410  0.41310  0.29600  1.0000 -0.5415716544
O   O3        1.0  0.62590  0.08690  0.79600  1.0000 -0.5415716544
O   O4        1.0  0.12590  0.41310  0.70400  1.0000 -0.5415716544
O   O5        1.0  0.12590  0.91310  0.79600  1.0000 -0.5415716544
O   O6        1.0  0.62590  0.58690  0.70400  1.0000 -0.5415716544
O   O7        1.0  0.37410  0.91310  0.20400  1.0000 -0.5415716544
O   O8        1.0  0.87410  0.58690  0.29600  1.0000 -0.5415716544
O   O9        1.0  0.01440  0.56140  0.35210  1.0000 -0.5415716544
O   O10       1.0  0.51440  0.93860  0.14790  1.0000 -0.5415716544
O   O11       1.0  0.48560  0.56140  0.64790  1.0000 -0.5415716544
O   O12       1.0  0.98560  0.93860  0.85210  1.0000 -0.5415716544
O   O13       1.0  0.98560  0.43860  0.64790  1.0000 -0.5415716544
O   O14       1.0  0.48560  0.06140  0.85210  1.0000 -0.5415716544
O   O15       1.0  0.51440  0.43860  0.35210  1.0000 -0.5415716544
O   O16       1.0  0.01440  0.06140  0.14790  1.0000 -0.5415716544
O   O17       1.0  0.23180  0.68610  0.36930  1.0000 -0.5662420244
O   O18       1.0  0.73180  0.81390  0.13070  1.0000 -0.5662420244
O   O19       1.0  0.26820  0.68610  0.63070  1.0000 -0.5662420244
O   O20       1.0  0.76820  0.81390  0.86930  1.0000 -0.5662420244
O   O21       1.0  0.76820  0.31390  0.63070  1.0000 -0.5662420244
O   O22       1.0  0.26820  0.18610  0.86930  1.0000 -0.5662420244
O   O23       1.0  0.73180  0.31390  0.36930  1.0000 -0.5662420244
O   O24       1.0  0.23180  0.18610  0.13070  1.0000 -0.5662420244
O   O25       1.0  0.21990  0.59130  0.28030  1.0000 -0.5203440339
O   O26       1.0  0.71990  0.90870  0.21970  1.0000 -0.5203440339
O   O27       1.0  0.28010  0.59130  0.71970  1.0000 -0.5203440339
O   O28       1.0  0.78010  0.90870  0.78030  1.0000 -0.5203440339
O   O29       1.0  0.78010  0.40870  0.71970  1.0000 -0.5203440339
O   O30       1.0  0.28010  0.09130  0.78030  1.0000 -0.5203440339
O   O31       1.0  0.71990  0.40870  0.28030  1.0000 -0.5203440339
O   O32       1.0  0.21990  0.09130  0.21970  1.0000 -0.5203440339
