# DDEC6 charges by PACMAN v1.1 (https://github.com/mtap-research/PACMAN-charge/)
data_2009[Zn][nan]3[ASR]5
_chemical_formula_sum              "Zn40 H256 C416 N144 O64"
_cell_length_a       28.4727
_cell_length_b       28.4727
_cell_length_c       28.4727
_cell_angle_alpha    116.305
_cell_angle_beta     116.305
_cell_angle_gamma    96.5294

_symmetry_space_group_name_H-M    "P 1"
_symmetry_Int_Tables_number       1

loop_
  _symmetry_equiv_pos_as_xyz
  'x, y, z'

loop_
  _atom_site_type_symbol
  _atom_site_label
  _atom_site_symmetry_multiplicity
  _atom_site_fract_x
  _atom_site_fract_y
  _atom_site_fract_z
  _atom_site_occupancy
  _atom_site_charge
Zn  Zn1       1.0  0.83656  0.30523  0.14139  1.0000 0.4433045808
Zn  Zn2       1.0  0.58616  0.55483  0.64139  1.0000 0.4433045808
Zn  Zn3       1.0  0.76996  0.15378  0.03570  1.0000 0.663854846
Zn  Zn4       1.0  0.63192  0.51574  0.53570  1.0000 0.663854846
Zn  Zn5       1.0  0.98739  0.34692  0.22011  1.0000 0.6699134198
Zn  Zn6       1.0  0.62319  0.48272  0.72011  1.0000 0.6699134198
Zn  Zn7       1.0  0.80164  0.34861  0.25731  1.0000 0.6699134198
Zn  Zn8       1.0  0.65870  0.70567  0.75731  1.0000 0.6699134198
Zn  Zn9       1.0  0.79137  0.37280  0.05633  1.0000 0.6699134198
Zn  Zn10      1.0  0.43353  0.51496  0.55633  1.0000 0.6699134198
Zn  Zn11      1.0  0.16384  0.69517  0.85861  1.0000 0.4433045808
Zn  Zn12      1.0  0.91344  0.94477  0.35861  1.0000 0.4433045808
Zn  Zn13      1.0  0.11808  0.73426  0.96430  1.0000 0.663854846
Zn  Zn14      1.0  0.98004  0.09622  0.46430  1.0000 0.663854846
Zn  Zn15      1.0  0.12681  0.76728  0.77989  1.0000 0.6699134198
Zn  Zn16      1.0  0.76261  0.90308  0.27989  1.0000 0.6699134198
Zn  Zn17      1.0  0.09130  0.54433  0.74269  1.0000 0.6699134198
Zn  Zn18      1.0  0.94836  0.90139  0.24269  1.0000 0.6699134198
Zn  Zn19      1.0  0.31647  0.73504  0.94367  1.0000 0.6699134198
Zn  Zn20      1.0  0.95863  0.87720  0.44367  1.0000 0.6699134198
Zn  Zn21      1.0  0.44517  0.08656  0.03133  1.0000 0.4433045808
Zn  Zn22      1.0  0.69477  0.83616  0.53133  1.0000 0.4433045808
Zn  Zn23      1.0  0.48426  0.01996  0.11618  1.0000 0.663854846
Zn  Zn24      1.0  0.84622  0.88192  0.61618  1.0000 0.663854846
Zn  Zn25      1.0  0.51728  0.23739  0.14047  1.0000 0.6699134198
Zn  Zn26      1.0  0.65308  0.87319  0.64047  1.0000 0.6699134198
Zn  Zn27      1.0  0.29433  0.05164  0.95303  1.0000 0.6699134198
Zn  Zn28      1.0  0.65139  0.90870  0.45303  1.0000 0.6699134198
Zn  Zn29      1.0  0.48504  0.04137  0.91857  1.0000 0.6699134198
Zn  Zn30      1.0  0.62720  0.68353  0.41857  1.0000 0.6699134198
Zn  Zn31      1.0  0.05523  0.41384  0.96867  1.0000 0.4433045808
Zn  Zn32      1.0  0.30483  0.16344  0.46867  1.0000 0.4433045808
Zn  Zn33      1.0  0.90378  0.36808  0.88382  1.0000 0.663854846
Zn  Zn34      1.0  0.26574  0.23004  0.38382  1.0000 0.663854846
Zn  Zn35      1.0  0.09692  0.37681  0.85953  1.0000 0.6699134198
Zn  Zn36      1.0  0.23272  0.01261  0.35953  1.0000 0.6699134198
Zn  Zn37      1.0  0.09861  0.34130  0.04697  1.0000 0.6699134198
Zn  Zn38      1.0  0.45567  0.19836  0.54697  1.0000 0.6699134198
Zn  Zn39      1.0  0.12280  0.56647  0.08143  1.0000 0.6699134198
Zn  Zn40      1.0  0.26496  0.20863  0.58143  1.0000 0.6699134198
H   H1        1.0  0.72270  0.88570  0.82420  1.0000 0.1196117699
H   H2        1.0  0.68850  0.35150  0.32420  1.0000 0.1196117699
H   H3        1.0  0.74590  0.98170  0.87840  1.0000 0.1196117699
H   H4        1.0  0.64670  0.38250  0.37840  1.0000 0.1196117699
H   H5        1.0  0.69620  0.97080  0.98440  1.0000 0.130417982
H   H6        1.0  0.76360  0.53820  0.48440  1.0000 0.130417982
H   H7        1.0  0.67290  0.87480  0.93010  1.0000 0.1196117699
H   H8        1.0  0.80530  0.50720  0.43010  1.0000 0.1196117699
H   H9        1.0  0.17400  0.48930  0.34330  1.0000 0.130417982
H   H10       1.0  0.60400  0.41930  0.84330  1.0000 0.130417982
H   H11       1.0  0.26960  0.52490  0.41510  1.0000 0.130417982
H   H12       1.0  0.64020  0.39550  0.91510  1.0000 0.130417982
H   H13       1.0  0.25240  0.38620  0.41800  1.0000 0.1196117699
H   H14       1.0  0.78180  0.41560  0.91800  1.0000 0.1196117699
H   H15       1.0  0.15660  0.35050  0.34610  1.0000 0.1196117699
H   H16       1.0  0.74560  0.43950  0.84610  1.0000 0.1196117699
H   H17       1.0  0.72410  0.45440  0.09770  1.0000 0.1371540931
H   H18       1.0  0.39330  0.62360  0.59770  1.0000 0.1371540931
H   H19       1.0  0.68540  0.50380  0.14940  1.0000 0.11033395
H   H20       1.0  0.39560  0.71400  0.64940  1.0000 0.11033395
H   H21       1.0  0.69100  0.49900  0.23040  1.0000 0.11033395
H   H22       1.0  0.48140  0.78940  0.73040  1.0000 0.11033395
H   H23       1.0  0.73520  0.44480  0.25960  1.0000 0.1371540931
H   H24       1.0  0.56480  0.77440  0.75960  1.0000 0.1371540931
H   H25       1.0  0.85890  0.08510  0.02620  1.0000 0.130417982
H   H26       1.0  0.69110  0.41730  0.52620  1.0000 0.130417982
H   H27       1.0  0.94260  0.07070  0.04670  1.0000 0.11033395
H   H28       1.0  0.72600  0.35410  0.54670  1.0000 0.11033395
H   H29       1.0  0.02950  0.14710  0.12240  1.0000 0.11033395
H   H30       1.0  0.72530  0.34290  0.62240  1.0000 0.11033395
H   H31       1.0  0.03260  0.23780  0.17760  1.0000 0.130417982
H   H32       1.0  0.68980  0.39500  0.67760  1.0000 0.130417982
H   H33       1.0  0.06060  0.40330  0.37770  1.0000 0.130417982
H   H34       1.0  0.72440  0.56710  0.87770  1.0000 0.130417982
H   H35       1.0  0.07760  0.43460  0.47580  1.0000 0.1196117699
H   H36       1.0  0.79120  0.64820  0.97580  1.0000 0.1196117699
H   H37       1.0  0.00400  0.43610  0.49030  1.0000 0.1196117699
H   H38       1.0  0.80420  0.73630  0.99030  1.0000 0.1196117699
H   H39       1.0  0.91330  0.40620  0.40650  1.0000 0.1371540931
H   H40       1.0  0.75030  0.74320  0.90650  1.0000 0.1371540931
H   H41       1.0  0.68570  0.10480  0.88010  1.0000 0.130417982
H   H42       1.0  0.52530  0.44440  0.38010  1.0000 0.130417982
H   H43       1.0  0.63380  0.10450  0.79070  1.0000 0.11033395
H   H44       1.0  0.43620  0.40690  0.29070  1.0000 0.11033395
H   H45       1.0  0.63720  0.18900  0.79820  1.0000 0.11033395
H   H46       1.0  0.35920  0.41100  0.29820  1.0000 0.11033395
H   H47       1.0  0.69250  0.27380  0.89510  1.0000 0.130417982
H   H48       1.0  0.37130  0.45260  0.39510  1.0000 0.130417982
H   H49       1.0  0.89160  0.43700  0.04960  1.0000 0.130417982
H   H50       1.0  0.36260  0.40800  0.54960  1.0000 0.130417982
H   H51       1.0  0.97930  0.47830  0.07100  1.0000 0.11033395
H   H52       1.0  0.34270  0.34170  0.57100  1.0000 0.11033395
H   H53       1.0  0.05830  0.47130  0.13720  1.0000 0.11033395
H   H54       1.0  0.41590  0.32890  0.63720  1.0000 0.11033395
H   H55       1.0  0.04940  0.42300  0.18200  1.0000 0.1371540931
H   H56       1.0  0.50900  0.38260  0.68200  1.0000 0.1371540931
H   H57       1.0  0.69480  0.24620  0.22200  1.0000 0.1371540931
H   H58       1.0  0.72580  0.77720  0.72200  1.0000 0.1371540931
H   H59       1.0  0.62900  0.15780  0.17460  1.0000 0.11033395
H   H60       1.0  0.76680  0.79560  0.67460  1.0000 0.11033395
H   H61       1.0  0.61700  0.07970  0.08830  1.0000 0.11033395
H   H62       1.0  0.75860  0.72130  0.58830  1.0000 0.11033395
H   H63       1.0  0.67090  0.09000  0.04950  1.0000 0.1371540931
H   H64       1.0  0.70950  0.62860  0.54950  1.0000 0.1371540931
H   H65       1.0  0.06150  0.89850  0.17580  1.0000 0.1196117699
H   H66       1.0  0.02730  0.36430  0.67580  1.0000 0.1196117699
H   H67       1.0  0.10330  0.86750  0.12160  1.0000 0.1196117699
H   H68       1.0  0.00410  0.26830  0.62160  1.0000 0.1196117699
H   H69       1.0  0.98640  0.71180  0.01560  1.0000 0.130417982
H   H70       1.0  0.05380  0.27920  0.51560  1.0000 0.130417982
H   H71       1.0  0.94470  0.74280  0.06990  1.0000 0.1196117699
H   H72       1.0  0.07710  0.37520  0.56990  1.0000 0.1196117699
H   H73       1.0  0.14600  0.83070  0.65670  1.0000 0.130417982
H   H74       1.0  0.57600  0.76070  0.15670  1.0000 0.130417982
H   H75       1.0  0.10980  0.85450  0.58490  1.0000 0.130417982
H   H76       1.0  0.48040  0.72510  0.08490  1.0000 0.130417982
H   H77       1.0  0.96820  0.83440  0.58200  1.0000 0.1196117699
H   H78       1.0  0.49760  0.86380  0.08200  1.0000 0.1196117699
H   H79       1.0  0.00440  0.81050  0.65390  1.0000 0.1196117699
H   H80       1.0  0.59340  0.89950  0.15390  1.0000 0.1196117699
H   H81       1.0  0.35670  0.62640  0.90230  1.0000 0.1371540931
H   H82       1.0  0.02590  0.79560  0.40230  1.0000 0.1371540931
H   H83       1.0  0.35440  0.53600  0.85060  1.0000 0.11033395
H   H84       1.0  0.06460  0.74620  0.35060  1.0000 0.11033395
H   H85       1.0  0.26860  0.46060  0.76960  1.0000 0.11033395
H   H86       1.0  0.05900  0.75100  0.26960  1.0000 0.11033395
H   H87       1.0  0.18520  0.47560  0.74040  1.0000 0.1371540931
H   H88       1.0  0.01480  0.80520  0.24040  1.0000 0.1371540931
H   H89       1.0  0.05890  0.83270  0.97380  1.0000 0.130417982
H   H90       1.0  0.89110  0.16490  0.47380  1.0000 0.130417982
H   H91       1.0  0.02400  0.89590  0.95330  1.0000 0.11033395
H   H92       1.0  0.80740  0.17930  0.45330  1.0000 0.11033395
H   H93       1.0  0.02470  0.90710  0.87760  1.0000 0.11033395
H   H94       1.0  0.72050  0.10290  0.37760  1.0000 0.11033395
H   H95       1.0  0.06020  0.85500  0.82240  1.0000 0.130417982
H   H96       1.0  0.71740  0.01220  0.32240  1.0000 0.130417982
H   H97       1.0  0.02560  0.68290  0.62230  1.0000 0.130417982
H   H98       1.0  0.68940  0.84670  0.12230  1.0000 0.130417982
H   H99       1.0  0.95880  0.60180  0.52420  1.0000 0.1196117699
H   H100      1.0  0.67240  0.81540  0.02420  1.0000 0.1196117699
H   H101      1.0  0.94580  0.51370  0.50970  1.0000 0.1196117699
H   H102      1.0  0.74600  0.81390  0.00970  1.0000 0.1196117699
H   H103      1.0  0.99970  0.50680  0.59350  1.0000 0.1371540931
H   H104      1.0  0.83670  0.84380  0.09350  1.0000 0.1371540931
H   H105      1.0  0.22470  0.80560  0.11990  1.0000 0.130417982
H   H106      1.0  0.06430  0.14520  0.61990  1.0000 0.130417982
H   H107      1.0  0.31380  0.84310  0.20930  1.0000 0.11033395
H   H108      1.0  0.11620  0.14550  0.70930  1.0000 0.11033395
H   H109      1.0  0.39080  0.83900  0.20180  1.0000 0.11033395
H   H110      1.0  0.11280  0.06100  0.70180  1.0000 0.11033395
H   H111      1.0  0.37870  0.79740  0.10490  1.0000 0.130417982
H   H112      1.0  0.05750  0.97620  0.60490  1.0000 0.1371540931
H   H113      1.0  0.38740  0.84200  0.95040  1.0000 0.130417982
H   H114      1.0  0.85840  0.81300  0.45040  1.0000 0.130417982
H   H115      1.0  0.40730  0.90830  0.92900  1.0000 0.11033395
H   H116      1.0  0.77070  0.77170  0.42900  1.0000 0.11033395
H   H117      1.0  0.33410  0.92110  0.86280  1.0000 0.11033395
H   H118      1.0  0.69170  0.77870  0.36280  1.0000 0.11033395
H   H119      1.0  0.24100  0.86740  0.81800  1.0000 0.1371540931
H   H120      1.0  0.70060  0.82700  0.31800  1.0000 0.1371540931
H   H121      1.0  0.02420  0.47280  0.77800  1.0000 0.1371540931
H   H122      1.0  0.05520  0.00380  0.27800  1.0000 0.1371540931
H   H123      1.0  0.98320  0.45440  0.82540  1.0000 0.11033395
H   H124      1.0  0.12100  0.09220  0.32540  1.0000 0.11033395
H   H125      1.0  0.99140  0.52870  0.91170  1.0000 0.11033395
H   H126      1.0  0.13300  0.17030  0.41170  1.0000 0.11033395
H   H127      1.0  0.04050  0.62140  0.95050  1.0000 0.1371540931
H   H128      1.0  0.07910  0.16000  0.45050  1.0000 0.1371540931
H   H129      1.0  0.64850  0.97270  0.33700  1.0000 0.1196117699
H   H130      1.0  0.11430  0.93850  0.83700  1.0000 0.1196117699
H   H131      1.0  0.61750  0.99590  0.26420  1.0000 0.1196117699
H   H132      1.0  0.01830  0.89670  0.76420  1.0000 0.1196117699
H   H133      1.0  0.46180  0.94620  0.22540  1.0000 0.130417982
H   H134      1.0  0.02920  0.01360  0.72540  1.0000 0.130417982
H   H135      1.0  0.49280  0.92290  0.29810  1.0000 0.1196117699
H   H136      1.0  0.12520  0.05530  0.79810  1.0000 0.1196117699
H   H137      1.0  0.58070  0.42400  0.18470  1.0000 0.130417982
H   H138      1.0  0.51070  0.85400  0.68470  1.0000 0.130417982
H   H139      1.0  0.60450  0.51960  0.24470  1.0000 0.130417982
H   H140      1.0  0.47510  0.89020  0.74470  1.0000 0.130417982
H   H141      1.0  0.58440  0.50240  0.36620  1.0000 0.1196117699
H   H142      1.0  0.61380  0.03180  0.86620  1.0000 0.1196117699
H   H143      1.0  0.56050  0.40660  0.30610  1.0000 0.1196117699
H   H144      1.0  0.64950  0.99560  0.80610  1.0000 0.1196117699
H   H145      1.0  0.37640  0.97410  0.76970  1.0000 0.1371540931
H   H146      1.0  0.54560  0.64330  0.26970  1.0000 0.1371540931
H   H147      1.0  0.28600  0.93540  0.68160  1.0000 0.11033395
H   H148      1.0  0.49620  0.64560  0.18160  1.0000 0.11033395
H   H149      1.0  0.21060  0.94100  0.69200  1.0000 0.11033395
H   H150      1.0  0.50100  0.73140  0.19200  1.0000 0.11033395
H   H151      1.0  0.22560  0.98520  0.79040  1.0000 0.1371540931
H   H152      1.0  0.55520  0.81480  0.29040  1.0000 0.1371540931
H   H153      1.0  0.58270  0.10890  0.27380  1.0000 0.130417982
H   H154      1.0  0.91490  0.94110  0.77380  1.0000 0.130417982
H   H155      1.0  0.64590  0.19260  0.37190  1.0000 0.11033395
H   H156      1.0  0.92930  0.97600  0.87190  1.0000 0.11033395
H   H157      1.0  0.65710  0.27950  0.38240  1.0000 0.11033395
H   H158      1.0  0.85290  0.97530  0.88240  1.0000 0.11033395
H   H159      1.0  0.60500  0.28260  0.29480  1.0000 0.130417982
H   H160      1.0  0.76220  0.93980  0.79480  1.0000 0.130417982
H   H161      1.0  0.43290  0.31060  0.15730  1.0000 0.130417982
H   H162      1.0  0.59670  0.97440  0.65730  1.0000 0.130417982
H   H163      1.0  0.35180  0.32760  0.14300  1.0000 0.1196117699
H   H164      1.0  0.56540  0.04120  0.64300  1.0000 0.1196117699
H   H165      1.0  0.26370  0.25400  0.06790  1.0000 0.1196117699
H   H166      1.0  0.56390  0.05420  0.56790  1.0000 0.1196117699
H   H167      1.0  0.25680  0.16330  0.00710  1.0000 0.1371540931
H   H168      1.0  0.59380  0.00030  0.50710  1.0000 0.1371540931
H   H169      1.0  0.55560  0.93570  0.08090  1.0000 0.130417982
H   H170      1.0  0.89520  0.77530  0.58090  1.0000 0.130417982
H   H171      1.0  0.59310  0.88380  0.02930  1.0000 0.11033395
H   H172      1.0  0.89550  0.68620  0.52930  1.0000 0.11033395
H   H173      1.0  0.58900  0.88720  0.94820  1.0000 0.11033395
H   H174      1.0  0.81100  0.60920  0.44820  1.0000 0.11033395
H   H175      1.0  0.54740  0.94250  0.91870  1.0000 0.1371540931
H   H176      1.0  0.72620  0.62130  0.41870  1.0000 0.130417982
H   H177      1.0  0.59200  0.14160  0.95460  1.0000 0.130417982
H   H178      1.0  0.56300  0.61260  0.45460  1.0000 0.130417982
H   H179      1.0  0.65830  0.22930  0.00100  1.0000 0.11033395
H   H180      1.0  0.52170  0.59270  0.50100  1.0000 0.11033395
H   H181      1.0  0.67110  0.30830  0.08700  1.0000 0.11033395
H   H182      1.0  0.52870  0.66590  0.58700  1.0000 0.11033395
H   H183      1.0  0.61740  0.29940  0.12640  1.0000 0.1371540931
H   H184      1.0  0.57700  0.75900  0.62640  1.0000 0.1371540931
H   H185      1.0  0.22280  0.94480  0.94860  1.0000 0.1371540931
H   H186      1.0  0.75380  0.97580  0.44860  1.0000 0.1371540931
H   H187      1.0  0.20440  0.87900  0.97120  1.0000 0.11033395
H   H188      1.0  0.84220  0.01680  0.47120  1.0000 0.11033395
H   H189      1.0  0.27870  0.86700  0.03730  1.0000 0.11033395
H   H190      1.0  0.92030  0.00860  0.53730  1.0000 0.11033395
H   H191      1.0  0.37140  0.92090  0.08090  1.0000 0.1371540931
H   H192      1.0  0.91000  0.95950  0.58090  1.0000 0.1371540931
H   H193      1.0  0.63570  0.31150  0.66300  1.0000 0.1196117699
H   H194      1.0  0.10150  0.27730  0.16300  1.0000 0.1196117699
H   H195      1.0  0.73170  0.35330  0.73580  1.0000 0.1196117699
H   H196      1.0  0.13250  0.25410  0.23580  1.0000 0.1196117699
H   H197      1.0  0.72080  0.23640  0.77460  1.0000 0.130417982
H   H198      1.0  0.28820  0.30380  0.27460  1.0000 0.130417982
H   H199      1.0  0.62480  0.19470  0.70190  1.0000 0.1196117699
H   H200      1.0  0.25720  0.32710  0.20190  1.0000 0.1196117699
H   H201      1.0  0.23930  0.39600  0.81530  1.0000 0.130417982
H   H202      1.0  0.16930  0.82600  0.31530  1.0000 0.130417982
H   H203      1.0  0.27490  0.35980  0.75530  1.0000 0.130417982
H   H204      1.0  0.14550  0.73040  0.25530  1.0000 0.130417982
H   H205      1.0  0.13620  0.21820  0.63380  1.0000 0.1196117699
H   H206      1.0  0.16560  0.74760  0.13380  1.0000 0.1196117699
H   H207      1.0  0.10050  0.25440  0.69390  1.0000 0.1196117699
H   H208      1.0  0.18950  0.84340  0.19390  1.0000 0.1196117699
H   H209      1.0  0.20440  0.60670  0.23030  1.0000 0.1371540931
H   H210      1.0  0.37360  0.27590  0.73030  1.0000 0.1371540931
H   H211      1.0  0.25380  0.60440  0.31840  1.0000 0.11033395
H   H212      1.0  0.46400  0.31460  0.81840  1.0000 0.11033395
H   H213      1.0  0.24900  0.51860  0.30800  1.0000 0.11033395
H   H214      1.0  0.53940  0.30900  0.80800  1.0000 0.11033395
H   H215      1.0  0.19480  0.43520  0.20960  1.0000 0.1371540931
H   H216      1.0  0.52440  0.26480  0.70960  1.0000 0.1371540931
H   H217      1.0  0.83510  0.30890  0.72620  1.0000 0.130417982
H   H218      1.0  0.16730  0.14110  0.22620  1.0000 0.130417982
H   H219      1.0  0.82070  0.27400  0.62810  1.0000 0.11033395
H   H220      1.0  0.10410  0.05740  0.12810  1.0000 0.11033395
H   H221      1.0  0.89710  0.27470  0.61760  1.0000 0.11033395
H   H222      1.0  0.09290  0.97050  0.11760  1.0000 0.11033395
H   H223      1.0  0.98780  0.31020  0.70520  1.0000 0.130417982
H   H224      1.0  0.14500  0.96740  0.20520  1.0000 0.130417982
H   H225      1.0  0.15330  0.27560  0.84270  1.0000 0.130417982
H   H226      1.0  0.31710  0.93940  0.34270  1.0000 0.130417982
H   H227      1.0  0.18460  0.20880  0.85700  1.0000 0.1196117699
H   H228      1.0  0.39820  0.92240  0.35700  1.0000 0.1196117699
H   H229      1.0  0.18610  0.19580  0.93210  1.0000 0.1196117699
H   H230      1.0  0.48630  0.99600  0.43210  1.0000 0.1196117699
H   H231      1.0  0.15620  0.24970  0.99290  1.0000 0.1371540931
H   H232      1.0  0.49320  0.08670  0.49290  1.0000 0.1371540931
H   H233      1.0  0.85480  0.47470  0.91910  1.0000 0.130417982
H   H234      1.0  0.19440  0.31430  0.41910  1.0000 0.130417982
H   H235      1.0  0.85450  0.56380  0.97070  1.0000 0.11033395
H   H236      1.0  0.15690  0.36620  0.47070  1.0000 0.11033395
H   H237      1.0  0.93900  0.64080  0.05180  1.0000 0.11033395
H   H238      1.0  0.16100  0.36280  0.55180  1.0000 0.11033395
H   H239      1.0  0.02380  0.62870  0.08130  1.0000 0.130417982
H   H240      1.0  0.20260  0.30750  0.58130  1.0000 0.130417982
H   H241      1.0  0.18700  0.63740  0.04540  1.0000 0.130417982
H   H242      1.0  0.15800  0.10840  0.54540  1.0000 0.130417982
H   H243      1.0  0.22830  0.65730  0.99900  1.0000 0.11033395
H   H244      1.0  0.09170  0.02070  0.49900  1.0000 0.11033395
H   H245      1.0  0.22130  0.58410  0.91300  1.0000 0.11033395
H   H246      1.0  0.07890  0.94170  0.41300  1.0000 0.11033395
H   H247      1.0  0.17300  0.49100  0.87360  1.0000 0.1371540931
H   H248      1.0  0.13260  0.95060  0.37360  1.0000 0.1371540931
H   H249      1.0  0.99620  0.27420  0.05140  1.0000 0.1371540931
H   H250      1.0  0.52720  0.30520  0.55140  1.0000 0.1371540931
H   H251      1.0  0.90780  0.23320  0.02880  1.0000 0.11033395
H   H252      1.0  0.54560  0.37100  0.52880  1.0000 0.11033395
H   H253      1.0  0.82970  0.24140  0.96270  1.0000 0.11033395
H   H254      1.0  0.47130  0.38300  0.46270  1.0000 0.11033395
H   H255      1.0  0.84000  0.29050  0.91910  1.0000 0.1371540931
H   H256      1.0  0.37860  0.32910  0.41910  1.0000 0.1371540931
C   C1        1.0  0.69559  0.87133  0.87208  1.0000 -0.0025453858
C   C2        1.0  0.75075  0.42649  0.37208  1.0000 -0.0025453858
C   C3        1.0  0.71732  0.90309  0.85677  1.0000 -0.0998075491
C   C4        1.0  0.70368  0.38945  0.35677  1.0000 -0.0998075491
C   C5        1.0  0.73112  0.96002  0.88896  1.0000 -0.1104846878
C   C6        1.0  0.67894  0.40784  0.38896  1.0000 -0.1104846878
C   C7        1.0  0.72328  0.98521  0.93647  1.0000 0.0015964846
C   C8        1.0  0.70126  0.46319  0.43647  1.0000 0.0015964846
C   C9        1.0  0.70156  0.95344  0.95178  1.0000 -0.1177289037
C   C10       1.0  0.74834  0.50022  0.45178  1.0000 -0.1177289037
C   C11       1.0  0.68773  0.89651  0.91958  1.0000 -0.1104846878
C   C12       1.0  0.77307  0.48185  0.41958  1.0000 -0.1104846878
C   C13       1.0  0.68050  0.80800  0.83570  1.0000 0.5314645257
C   C14       1.0  0.77770  0.40520  0.33570  1.0000 0.5314645257
C   C15       1.0  0.73810  0.04980  0.97230  1.0000 0.5024818864
C   C16       1.0  0.67250  0.48420  0.47230  1.0000 0.5024818864
C   C17       1.0  0.15629  0.41653  0.33794  1.0000 -0.0025453858
C   C18       1.0  0.67141  0.43165  0.83794  1.0000 -0.0025453858
C   C19       1.0  0.18990  0.46834  0.35848  1.0000 -0.1104846878
C   C20       1.0  0.64014  0.41858  0.85848  1.0000 -0.1104846878
C   C21       1.0  0.24673  0.48955  0.40114  1.0000 -0.1104846878
C   C22       1.0  0.66159  0.40441  0.90114  1.0000 -0.1104846878
C   C23       1.0  0.26995  0.45891  0.42326  1.0000 -0.0025453858
C   C24       1.0  0.71435  0.40331  0.92326  1.0000 -0.0025453858
C   C25       1.0  0.23636  0.40710  0.40274  1.0000 -0.1104846878
C   C26       1.0  0.74564  0.41638  0.90274  1.0000 -0.1104846878
C   C27       1.0  0.17953  0.38589  0.36006  1.0000 -0.1177289037
C   C28       1.0  0.72417  0.43053  0.86006  1.0000 -0.1177289037
C   C29       1.0  0.09260  0.39240  0.29180  1.0000 0.5199764457
C   C30       1.0  0.64940  0.44920  0.79180  1.0000 0.5199764457
C   C31       1.0  0.33344  0.48334  0.47230  1.0000 0.5141490784
C   C32       1.0  0.73896  0.38886  0.97230  1.0000 0.5141490784
C   C33       1.0  0.75603  0.41730  0.19613  1.0000 0.1196117699
C   C34       1.0  0.52883  0.69010  0.69613  1.0000 0.1196117699
C   C35       1.0  0.75268  0.42013  0.14777  1.0000 0.0942368938
C   C36       1.0  0.47764  0.64509  0.64777  1.0000 0.0942368938
C   C37       1.0  0.72632  0.45246  0.13034  1.0000 -0.1500746549
C   C38       1.0  0.42788  0.65402  0.63034  1.0000 -0.1500746549
C   C39       1.0  0.70329  0.48194  0.16121  1.0000 -0.0998075491
C   C40       1.0  0.42927  0.70792  0.66121  1.0000 -0.0998075491
C   C41       1.0  0.70663  0.47909  0.20954  1.0000 -0.1104846878
C   C42       1.0  0.48045  0.75291  0.70954  1.0000 -0.1104846878
C   C43       1.0  0.73301  0.44678  0.22701  1.0000 -0.1595642544
C   C44       1.0  0.53023  0.74400  0.72701  1.0000 -0.1595642544
C   C45       1.0  0.94780  0.21587  0.13505  1.0000 0.130417982
C   C46       1.0  0.66918  0.43725  0.63505  1.0000 0.130417982
C   C47       1.0  0.89572  0.17006  0.08966  1.0000 0.1196117699
C   C48       1.0  0.66960  0.44394  0.58966  1.0000 0.1196117699
C   C49       1.0  0.89375  0.11567  0.05654  1.0000 -0.1679937299
C   C50       1.0  0.69087  0.41279  0.55654  1.0000 -0.1679937299
C   C51       1.0  0.94384  0.10705  0.06881  1.0000 -0.1104846878
C   C52       1.0  0.71176  0.37497  0.56881  1.0000 -0.1104846878
C   C53       1.0  0.99592  0.15284  0.11418  1.0000 -0.0998075491
C   C54       1.0  0.71134  0.36826  0.61418  1.0000 -0.0998075491
C   C55       1.0  0.99787  0.20723  0.14728  1.0000 -0.1679937299
C   C56       1.0  0.69005  0.39941  0.64728  1.0000 -0.1679937299
C   C57       1.0  0.93272  0.38689  0.34213  1.0000 0.1196117699
C   C58       1.0  0.70524  0.65941  0.84213  1.0000 0.1196117699
C   C59       1.0  0.97670  0.38599  0.33347  1.0000 0.11033395
C   C60       1.0  0.69748  0.60677  0.83347  1.0000 0.11033395
C   C61       1.0  0.03087  0.40385  0.38344  1.0000 -0.1595642544
C   C62       1.0  0.72959  0.60257  0.88344  1.0000 -0.1595642544
C   C63       1.0  0.04107  0.42260  0.44207  1.0000 -0.0998075491
C   C64       1.0  0.76947  0.65100  0.94207  1.0000 -0.0998075491
C   C65       1.0  0.99703  0.42345  0.45062  1.0000 -0.0998075491
C   C66       1.0  0.77717  0.70359  0.95062  1.0000 -0.0998075491
C   C67       1.0  0.94290  0.40561  0.40071  1.0000 -0.1500746549
C   C68       1.0  0.74510  0.70781  0.90071  1.0000 -0.1500746549
C   C69       1.0  0.72206  0.23998  0.94542  1.0000 0.0960692924
C   C70       1.0  0.45544  0.47336  0.44542  1.0000 0.0960692924
C   C71       1.0  0.72005  0.18958  0.94095  1.0000 0.11033395
C   C72       1.0  0.50137  0.47090  0.44095  1.0000 0.11033395
C   C73       1.0  0.68709  0.13897  0.88316  1.0000 -0.1679937299
C   C74       1.0  0.49419  0.44607  0.38316  1.0000 -0.1679937299
C   C75       1.0  0.65615  0.13875  0.82984  1.0000 -0.0998075491
C   C76       1.0  0.44109  0.42369  0.32984  1.0000 -0.0998075491
C   C77       1.0  0.65817  0.18915  0.83432  1.0000 -0.1104846878
C   C78       1.0  0.39517  0.42615  0.33432  1.0000 -0.1104846878
C   C79       1.0  0.69111  0.23976  0.89209  1.0000 -0.1595642544
C   C80       1.0  0.40233  0.45098  0.39209  1.0000 -0.1595642544
C   C81       1.0  0.96522  0.40122  0.14262  1.0000 0.1196117699
C   C82       1.0  0.49140  0.42740  0.64262  1.0000 0.1196117699
C   C83       1.0  0.91810  0.40539  0.10307  1.0000 0.1196117699
C   C84       1.0  0.44768  0.43497  0.60307  1.0000 0.1196117699
C   C85       1.0  0.92345  0.43420  0.07631  1.0000 -0.1679937299
C   C86       1.0  0.39211  0.40286  0.57631  1.0000 -0.1679937299
C   C87       1.0  0.97588  0.45888  0.08906  1.0000 -0.0998075491
C   C88       1.0  0.38018  0.36318  0.58906  1.0000 -0.0998075491
C   C89       1.0  0.02296  0.45468  0.12858  1.0000 -0.0998075491
C   C90       1.0  0.42390  0.35562  0.62858  1.0000 -0.0998075491
C   C91       1.0  0.01762  0.42585  0.15537  1.0000 -0.1595642544
C   C92       1.0  0.47952  0.38775  0.65537  1.0000 -0.1595642544
C   C93       1.0  0.71497  0.17430  0.11261  1.0000 0.1196117699
C   C94       1.0  0.68831  0.64764  0.61261  1.0000 0.1196117699
C   C95       1.0  0.72208  0.22093  0.16413  1.0000 0.1196117699
C   C96       1.0  0.69320  0.69205  0.66413  1.0000 0.1196117699
C   C97       1.0  0.68993  0.21476  0.18729  1.0000 -0.1679937299
C   C98       1.0  0.72253  0.74736  0.68729  1.0000 -0.1679937299
C   C99       1.0  0.65064  0.16192  0.15892  1.0000 -0.0998075491
C   C100      1.0  0.74700  0.75828  0.65892  1.0000 -0.0998075491
C   C101      1.0  0.64352  0.11530  0.10740  1.0000 -0.0998075491
C   C102      1.0  0.74210  0.71388  0.60740  1.0000 -0.0998075491
C   C103      1.0  0.67567  0.12147  0.08424  1.0000 -0.1595642544
C   C104      1.0  0.71277  0.65857  0.58424  1.0000 -0.1595642544
C   C105      1.0  0.99925  0.82351  0.12792  1.0000 -0.0025453858
C   C106      1.0  0.05441  0.37867  0.62792  1.0000 -0.0025453858
C   C107      1.0  0.04632  0.86055  0.14323  1.0000 -0.0998075491
C   C108      1.0  0.03268  0.34691  0.64323  1.0000 -0.0998075491
C   C109      1.0  0.07106  0.84216  0.11104  1.0000 -0.1104846878
C   C110      1.0  0.01888  0.28998  0.61104  1.0000 -0.1104846878
C   C111      1.0  0.04874  0.78681  0.06353  1.0000 0.0015964846
C   C112      1.0  0.02672  0.26479  0.56353  1.0000 0.0015964846
C   C113      1.0  0.00166  0.74978  0.04822  1.0000 -0.1177289037
C   C114      1.0  0.04844  0.29656  0.54822  1.0000 -0.1177289037
C   C115      1.0  0.97693  0.76815  0.08042  1.0000 -0.1104846878
C   C116      1.0  0.06227  0.35349  0.58042  1.0000 -0.1104846878
C   C117      1.0  0.97230  0.84480  0.16430  1.0000 0.5314645257
C   C118      1.0  0.06950  0.44200  0.66430  1.0000 0.5314645257
C   C119      1.0  0.07750  0.76580  0.02770  1.0000 0.5024818864
C   C120      1.0  0.01190  0.20020  0.52770  1.0000 0.5024818864
C   C121      1.0  0.07859  0.81835  0.66206  1.0000 -0.0025453858
C   C122      1.0  0.59371  0.83347  0.16206  1.0000 -0.0025453858
C   C123      1.0  0.10986  0.83142  0.64152  1.0000 -0.1104846878
C   C124      1.0  0.56010  0.78166  0.14152  1.0000 -0.1104846878
C   C125      1.0  0.08841  0.84559  0.59886  1.0000 -0.1104846878
C   C126      1.0  0.50327  0.76045  0.09886  1.0000 -0.1104846878
C   C127      1.0  0.03565  0.84669  0.57674  1.0000 -0.0025453858
C   C128      1.0  0.48005  0.79109  0.07674  1.0000 -0.0025453858
C   C129      1.0  0.00436  0.83362  0.59726  1.0000 -0.1104846878
C   C130      1.0  0.51364  0.84290  0.09726  1.0000 -0.1104846878
C   C131      1.0  0.02583  0.81947  0.63994  1.0000 -0.1177289037
C   C132      1.0  0.57047  0.86411  0.13994  1.0000 -0.1177289037
C   C133      1.0  0.10060  0.80080  0.70820  1.0000 0.5199764457
C   C134      1.0  0.65740  0.85760  0.20820  1.0000 0.5199764457
C   C135      1.0  0.01104  0.86114  0.52770  1.0000 0.5141490784
C   C136      1.0  0.41656  0.76666  0.02770  1.0000 0.5141490784
C   C137      1.0  0.22117  0.55990  0.80387  1.0000 0.1196117699
C   C138      1.0  0.99397  0.83270  0.30387  1.0000 0.1196117699
C   C139      1.0  0.27236  0.60491  0.85223  1.0000 0.0942368938
C   C140      1.0  0.99732  0.82987  0.35223  1.0000 0.0942368938
C   C141      1.0  0.32212  0.59598  0.86966  1.0000 -0.1500746549
C   C142      1.0  0.02368  0.79754  0.36966  1.0000 -0.1500746549
C   C143      1.0  0.32073  0.54208  0.83879  1.0000 -0.0998075491
C   C144      1.0  0.04671  0.76806  0.33879  1.0000 -0.0998075491
C   C145      1.0  0.26955  0.49709  0.79046  1.0000 -0.1104846878
C   C146      1.0  0.04337  0.77091  0.29046  1.0000 -0.1104846878
C   C147      1.0  0.21977  0.50600  0.77299  1.0000 -0.1595642544
C   C148      1.0  0.01699  0.80322  0.27299  1.0000 -0.1595642544
C   C149      1.0  0.08082  0.81275  0.86495  1.0000 0.130417982
C   C150      1.0  0.80220  0.03413  0.36495  1.0000 0.130417982
C   C151      1.0  0.08040  0.80606  0.91034  1.0000 0.1196117699
C   C152      1.0  0.85428  0.07994  0.41034  1.0000 0.1196117699
C   C153      1.0  0.05913  0.83721  0.94346  1.0000 -0.1679937299
C   C154      1.0  0.85625  0.13433  0.44346  1.0000 -0.1679937299
C   C155      1.0  0.03824  0.87503  0.93119  1.0000 -0.1104846878
C   C156      1.0  0.80616  0.14295  0.43119  1.0000 -0.1104846878
C   C157      1.0  0.03866  0.88174  0.88582  1.0000 -0.0998075491
C   C158      1.0  0.75408  0.09716  0.38582  1.0000 -0.0998075491
C   C159      1.0  0.05995  0.85059  0.85272  1.0000 -0.1679937299
C   C160      1.0  0.75213  0.04277  0.35272  1.0000 -0.1679937299
C   C161      1.0  0.04476  0.59059  0.65787  1.0000 0.1196117699
C   C162      1.0  0.81728  0.86311  0.15787  1.0000 0.1196117699
C   C163      1.0  0.05252  0.64323  0.66653  1.0000 0.11033395
C   C164      1.0  0.77330  0.86401  0.16653  1.0000 0.11033395
C   C165      1.0  0.02041  0.64743  0.61656  1.0000 -0.1595642544
C   C166      1.0  0.71913  0.84615  0.11656  1.0000 -0.1595642544
C   C167      1.0  0.98053  0.59900  0.55793  1.0000 -0.0998075491
C   C168      1.0  0.70893  0.82740  0.05793  1.0000 -0.0998075491
C   C169      1.0  0.97283  0.54641  0.54938  1.0000 -0.0998075491
C   C170      1.0  0.75297  0.82655  0.04938  1.0000 -0.0998075491
C   C171      1.0  0.00490  0.54219  0.59929  1.0000 -0.1500746549
C   C172      1.0  0.80710  0.84439  0.09929  1.0000 -0.1500746549
C   C173      1.0  0.29456  0.77664  0.05458  1.0000 0.0960692924
C   C174      1.0  0.02794  0.01002  0.55458  1.0000 0.0960692924
C   C175      1.0  0.24863  0.77910  0.05905  1.0000 0.11033395
C   C176      1.0  0.02995  0.06042  0.55905  1.0000 0.11033395
C   C177      1.0  0.25581  0.80393  0.11684  1.0000 -0.1679937299
C   C178      1.0  0.06291  0.11103  0.61684  1.0000 -0.1679937299
C   C179      1.0  0.30891  0.82631  0.17016  1.0000 -0.0998075491
C   C180      1.0  0.09385  0.11125  0.67016  1.0000 -0.0998075491
C   C181      1.0  0.35483  0.82385  0.16568  1.0000 -0.1104846878
C   C182      1.0  0.09183  0.06085  0.66568  1.0000 -0.1104846878
C   C183      1.0  0.34767  0.79902  0.10791  1.0000 -0.1595642544
C   C184      1.0  0.05889  0.01024  0.60791  1.0000 -0.1595642544
C   C185      1.0  0.25860  0.82260  0.85738  1.0000 0.1196117699
C   C186      1.0  0.78478  0.84878  0.35738  1.0000 0.1196117699
C   C187      1.0  0.30232  0.81503  0.89693  1.0000 0.1196117699
C   C188      1.0  0.83190  0.84461  0.39693  1.0000 0.1196117699
C   C189      1.0  0.35789  0.84714  0.92369  1.0000 -0.1679937299
C   C190      1.0  0.82655  0.81580  0.42369  1.0000 -0.1679937299
C   C191      1.0  0.36982  0.88682  0.91094  1.0000 -0.0998075491
C   C192      1.0  0.77412  0.79112  0.41094  1.0000 -0.0998075491
C   C193      1.0  0.32610  0.89438  0.87142  1.0000 -0.0998075491
C   C194      1.0  0.72704  0.79532  0.37142  1.0000 -0.0998075491
C   C195      1.0  0.27048  0.86225  0.84463  1.0000 -0.1595642544
C   C196      1.0  0.73238  0.82415  0.34463  1.0000 -0.1595642544
C   C197      1.0  0.06169  0.60236  0.88739  1.0000 0.1196117699
C   C198      1.0  0.03503  0.07570  0.38739  1.0000 0.1196117699
C   C199      1.0  0.05680  0.55795  0.83587  1.0000 0.1196117699
C   C200      1.0  0.02792  0.02907  0.33587  1.0000 0.1196117699
C   C201      1.0  0.02747  0.50264  0.81271  1.0000 -0.1679937299
C   C202      1.0  0.06007  0.03524  0.31271  1.0000 -0.1679937299
C   C203      1.0  0.00300  0.49172  0.84108  1.0000 -0.0998075491
C   C204      1.0  0.09936  0.08808  0.34108  1.0000 -0.0998075491
C   C205      1.0  0.00790  0.53612  0.89260  1.0000 -0.0998075491
C   C206      1.0  0.10648  0.13470  0.39260  1.0000 -0.0998075491
C   C207      1.0  0.03723  0.59143  0.91576  1.0000 -0.1595642544
C   C208      1.0  0.07433  0.12853  0.41576  1.0000 -0.1595642544
C   C209      1.0  0.57351  0.94559  0.32426  1.0000 -0.0025453858
C   C210      1.0  0.12867  0.00075  0.82426  1.0000 -0.0025453858
C   C211      1.0  0.61055  0.96732  0.31423  1.0000 -0.0998075491
C   C212      1.0  0.09691  0.95368  0.81423  1.0000 -0.0998075491
C   C213      1.0  0.59216  0.98112  0.27110  1.0000 -0.1104846878
C   C214      1.0  0.03998  0.92894  0.77110  1.0000 -0.1104846878
C   C215      1.0  0.53681  0.97328  0.23807  1.0000 0.0015964846
C   C216      1.0  0.01479  0.95126  0.73807  1.0000 0.0015964846
C   C217      1.0  0.49978  0.95156  0.24812  1.0000 -0.1177289037
C   C218      1.0  0.04656  0.99834  0.74812  1.0000 -0.1177289037
C   C219      1.0  0.51815  0.93773  0.29122  1.0000 -0.1104846878
C   C220      1.0  0.10349  0.02307  0.79122  1.0000 -0.1104846878
C   C221      1.0  0.59480  0.93050  0.37250  1.0000 0.5314645257
C   C222      1.0  0.19200  0.02770  0.87250  1.0000 0.5314645257
C   C223      1.0  0.51580  0.98810  0.18830  1.0000 0.5024818864
C   C224      1.0  0.95020  0.92250  0.68830  1.0000 0.5024818864
C   C225      1.0  0.56835  0.40629  0.23976  1.0000 -0.0025453858
C   C226      1.0  0.58347  0.92141  0.73976  1.0000 -0.0025453858
C   C227      1.0  0.58142  0.43990  0.22156  1.0000 -0.1104846878
C   C228      1.0  0.53166  0.89014  0.72156  1.0000 -0.1104846878
C   C229      1.0  0.59559  0.49673  0.25718  1.0000 -0.1104846878
C   C230      1.0  0.51045  0.91159  0.75718  1.0000 -0.1104846878
C   C231      1.0  0.59669  0.51995  0.31104  1.0000 -0.0025453858
C   C232      1.0  0.54109  0.96435  0.81104  1.0000 -0.0025453858
C   C233      1.0  0.58362  0.48636  0.32926  1.0000 -0.1104846878
C   C234      1.0  0.59290  0.99564  0.82926  1.0000 -0.1104846878
C   C235      1.0  0.56947  0.42953  0.29364  1.0000 -0.1177289037
C   C236      1.0  0.61411  0.97417  0.79364  1.0000 -0.1177289037
C   C237      1.0  0.55080  0.34260  0.20020  1.0000 0.5199764457
C   C238      1.0  0.60760  0.89940  0.70020  1.0000 0.5199764457
C   C239      1.0  0.61114  0.58344  0.35010  1.0000 0.5141490784
C   C240      1.0  0.51666  0.98896  0.85010  1.0000 0.5141490784
C   C241      1.0  0.30990  0.00603  0.83873  1.0000 0.1196117699
C   C242      1.0  0.58270  0.77883  0.33873  1.0000 0.1196117699
C   C243      1.0  0.35491  0.00268  0.83255  1.0000 0.0942368938
C   C244      1.0  0.57987  0.72764  0.33255  1.0000 0.0942368938
C   C245      1.0  0.34598  0.97632  0.77386  1.0000 -0.1500746549
C   C246      1.0  0.54754  0.67788  0.27386  1.0000 -0.1500746549
C   C247      1.0  0.29208  0.95329  0.72135  1.0000 -0.0998075491
C   C248      1.0  0.51806  0.67927  0.22135  1.0000 -0.0998075491
C   C249      1.0  0.24709  0.95663  0.72754  1.0000 -0.1104846878
C   C250      1.0  0.52091  0.73045  0.22754  1.0000 -0.1104846878
C   C251      1.0  0.25600  0.98301  0.78623  1.0000 -0.1595642544
C   C252      1.0  0.55322  0.78023  0.28623  1.0000 -0.1595642544
C   C253      1.0  0.56275  0.19780  0.23193  1.0000 0.130417982
C   C254      1.0  0.78413  0.91918  0.73193  1.0000 0.130417982
C   C255      1.0  0.55606  0.14572  0.22566  1.0000 0.1196117699
C   C256      1.0  0.82994  0.91960  0.72566  1.0000 0.1196117699
C   C257      1.0  0.58721  0.14375  0.27808  1.0000 -0.1679937299
C   C258      1.0  0.88433  0.94087  0.77808  1.0000 -0.1679937299
C   C259      1.0  0.62503  0.19384  0.33679  1.0000 -0.1104846878
C   C260      1.0  0.89295  0.96176  0.83679  1.0000 -0.1104846878
C   C261      1.0  0.63174  0.24592  0.34308  1.0000 -0.0998075491
C   C262      1.0  0.84716  0.96134  0.84308  1.0000 -0.0998075491
C   C263      1.0  0.60059  0.24787  0.29064  1.0000 -0.1679937299
C   C264      1.0  0.79277  0.94005  0.79064  1.0000 -0.1679937299
C   C265      1.0  0.34059  0.18272  0.04583  1.0000 0.1196117699
C   C266      1.0  0.61311  0.95524  0.54583  1.0000 0.1196117699
C   C267      1.0  0.39323  0.22670  0.09071  1.0000 0.11033395
C   C268      1.0  0.61401  0.94748  0.59071  1.0000 0.11033395
C   C269      1.0  0.39743  0.28087  0.12702  1.0000 -0.1595642544
C   C270      1.0  0.59615  0.97959  0.62702  1.0000 -0.1595642544
C   C271      1.0  0.34900  0.29107  0.11847  1.0000 -0.0998075491
C   C272      1.0  0.57740  0.01947  0.61847  1.0000 -0.0998075491
C   C273      1.0  0.29641  0.24703  0.07358  1.0000 -0.0998075491
C   C274      1.0  0.57655  0.02717  0.57358  1.0000 -0.0998075491
C   C275      1.0  0.29219  0.19290  0.03729  1.0000 -0.1500746549
C   C276      1.0  0.59439  0.99510  0.53729  1.0000 -0.1500746549
C   C277      1.0  0.52664  0.97206  0.98208  1.0000 0.0960692924
C   C278      1.0  0.76002  0.70544  0.48208  1.0000 0.0960692924
C   C279      1.0  0.52910  0.97005  0.03047  1.0000 0.11033395
C   C280      1.0  0.81042  0.75137  0.53047  1.0000 0.11033395
C   C281      1.0  0.55393  0.93709  0.04812  1.0000 -0.1679937299
C   C282      1.0  0.86103  0.74419  0.54812  1.0000 -0.1679937299
C   C283      1.0  0.57631  0.90615  0.01740  1.0000 -0.0998075491
C   C284      1.0  0.86125  0.69109  0.51740  1.0000 -0.0998075491
C   C285      1.0  0.57385  0.90817  0.96902  1.0000 -0.1104846878
C   C286      1.0  0.81085  0.64517  0.46902  1.0000 -0.1104846878
C   C287      1.0  0.54902  0.94111  0.95135  1.0000 -0.1595642544
C   C288      1.0  0.76024  0.65233  0.45135  1.0000 -0.1595642544
C   C289      1.0  0.57260  0.21522  0.06400  1.0000 0.1196117699
C   C290      1.0  0.59878  0.74140  0.56400  1.0000 0.1196117699
C   C291      1.0  0.56503  0.16810  0.01271  1.0000 0.1196117699
C   C292      1.0  0.59461  0.69768  0.51271  1.0000 0.1196117699
C   C293      1.0  0.59714  0.17345  0.98925  1.0000 -0.1679937299
C   C294      1.0  0.56580  0.64211  0.48925  1.0000 -0.1679937299
C   C295      1.0  0.63682  0.22588  0.01700  1.0000 -0.0998075491
C   C296      1.0  0.54112  0.63018  0.51700  1.0000 -0.0998075491
C   C297      1.0  0.64438  0.27296  0.06828  1.0000 -0.0998075491
C   C298      1.0  0.54532  0.67390  0.56828  1.0000 -0.0998075491
C   C299      1.0  0.61225  0.26762  0.09177  1.0000 -0.1595642544
C   C300      1.0  0.57415  0.72952  0.59177  1.0000 -0.1595642544
C   C301      1.0  0.35236  0.96497  0.04067  1.0000 0.1196117699
C   C302      1.0  0.82570  0.93831  0.54067  1.0000 0.1196117699
C   C303      1.0  0.30795  0.97208  0.00115  1.0000 0.1196117699
C   C304      1.0  0.77907  0.94320  0.50115  1.0000 0.1196117699
C   C305      1.0  0.25264  0.93993  0.97517  1.0000 -0.1679937299
C   C306      1.0  0.78524  0.97253  0.47517  1.0000 -0.1679937299
C   C307      1.0  0.24172  0.90064  0.98872  1.0000 -0.0998075491
C   C308      1.0  0.83808  0.99700  0.48872  1.0000 -0.0998075491
C   C309      1.0  0.28612  0.89352  0.02822  1.0000 -0.0998075491
C   C310      1.0  0.88470  0.99210  0.52822  1.0000 -0.0998075491
C   C311      1.0  0.34143  0.92567  0.05420  1.0000 -0.1595642544
C   C312      1.0  0.87853  0.96277  0.55420  1.0000 -0.1595642544
C   C313      1.0  0.62133  0.24925  0.67574  1.0000 -0.0025453858
C   C314      1.0  0.17649  0.30441  0.17574  1.0000 -0.0025453858
C   C315      1.0  0.65309  0.29632  0.68577  1.0000 -0.0998075491
C   C316      1.0  0.13945  0.28268  0.18577  1.0000 -0.0998075491
C   C317      1.0  0.71002  0.32106  0.72890  1.0000 -0.1104846878
C   C318      1.0  0.15784  0.26888  0.22890  1.0000 -0.1104846878
C   C319      1.0  0.73521  0.29874  0.76193  1.0000 0.0015964846
C   C320      1.0  0.21319  0.27672  0.26193  1.0000 0.0015964846
C   C321      1.0  0.70344  0.25166  0.75188  1.0000 -0.1177289037
C   C322      1.0  0.25022  0.29844  0.25188  1.0000 -0.1177289037
C   C323      1.0  0.64651  0.22693  0.70878  1.0000 -0.1104846878
C   C324      1.0  0.23185  0.31227  0.20878  1.0000 -0.1104846878
C   C325      1.0  0.55800  0.22230  0.62750  1.0000 0.5314645257
C   C326      1.0  0.15520  0.31950  0.12750  1.0000 0.5314645257
C   C327      1.0  0.79980  0.32750  0.81170  1.0000 0.5024818864
C   C328      1.0  0.23420  0.26190  0.31170  1.0000 0.5024818864
C   C329      1.0  0.16653  0.32859  0.76024  1.0000 -0.0025453858
C   C330      1.0  0.18165  0.84371  0.26024  1.0000 -0.0025453858
C   C331      1.0  0.21834  0.35986  0.77844  1.0000 -0.1104846878
C   C332      1.0  0.16858  0.81010  0.27844  1.0000 -0.1104846878
C   C333      1.0  0.23955  0.33841  0.74282  1.0000 -0.1104846878
C   C334      1.0  0.15441  0.75327  0.24282  1.0000 -0.1104846878
C   C335      1.0  0.20891  0.28565  0.68896  1.0000 -0.0025453858
C   C336      1.0  0.15331  0.73005  0.18896  1.0000 -0.0025453858
C   C337      1.0  0.15710  0.25436  0.67074  1.0000 -0.1104846878
C   C338      1.0  0.16638  0.76364  0.17074  1.0000 -0.1104846878
C   C339      1.0  0.13589  0.27583  0.70636  1.0000 -0.1177289037
C   C340      1.0  0.18053  0.82047  0.20636  1.0000 -0.1177289037
C   C341      1.0  0.14240  0.35060  0.79980  1.0000 0.5199764457
C   C342      1.0  0.19920  0.90740  0.29980  1.0000 0.5199764457
C   C343      1.0  0.23334  0.26104  0.64990  1.0000 0.5141490784
C   C344      1.0  0.13886  0.66656  0.14990  1.0000 0.5141490784
C   C345      1.0  0.16730  0.47117  0.16127  1.0000 0.1196117699
C   C346      1.0  0.44010  0.24397  0.66127  1.0000 0.1196117699
C   C347      1.0  0.17013  0.52236  0.16745  1.0000 0.0942368938
C   C348      1.0  0.39509  0.24732  0.66745  1.0000 0.0942368938
C   C349      1.0  0.20246  0.57212  0.22614  1.0000 -0.1500746549
C   C350      1.0  0.40402  0.27368  0.72614  1.0000 -0.1500746549
C   C351      1.0  0.23194  0.57073  0.27865  1.0000 -0.0998075491
C   C352      1.0  0.45792  0.29671  0.77865  1.0000 -0.0998075491
C   C353      1.0  0.22909  0.51955  0.27246  1.0000 -0.1104846878
C   C354      1.0  0.50291  0.29337  0.77246  1.0000 -0.1104846878
C   C355      1.0  0.19678  0.46977  0.21377  1.0000 -0.1595642544
C   C356      1.0  0.49400  0.26699  0.71377  1.0000 -0.1595642544
C   C357      1.0  0.96587  0.33082  0.76807  1.0000 0.130417982
C   C358      1.0  0.18725  0.05220  0.26807  1.0000 0.130417982
C   C359      1.0  0.92006  0.33040  0.77434  1.0000 0.1196117699
C   C360      1.0  0.19394  0.10428  0.27434  1.0000 0.1196117699
C   C361      1.0  0.86567  0.30913  0.72192  1.0000 -0.1679937299
C   C362      1.0  0.16279  0.10625  0.22192  1.0000 -0.1679937299
C   C363      1.0  0.85705  0.28824  0.66321  1.0000 -0.1104846878
C   C364      1.0  0.12497  0.05616  0.16321  1.0000 -0.1104846878
C   C365      1.0  0.90284  0.28866  0.65692  1.0000 -0.0998075491
C   C366      1.0  0.11826  0.00408  0.15692  1.0000 -0.0998075491
C   C367      1.0  0.95723  0.30995  0.70936  1.0000 -0.1679937299
C   C368      1.0  0.14941  0.00213  0.20936  1.0000 -0.1679937299
C   C369      1.0  0.13689  0.29476  0.95417  1.0000 0.1196117699
C   C370      1.0  0.40941  0.06728  0.45417  1.0000 0.1196117699
C   C371      1.0  0.13599  0.30252  0.90929  1.0000 0.11033395
C   C372      1.0  0.35677  0.02330  0.40929  1.0000 0.11033395
C   C373      1.0  0.15385  0.27041  0.87298  1.0000 -0.1595642544
C   C374      1.0  0.35257  0.96913  0.37298  1.0000 -0.1595642544
C   C375      1.0  0.17260  0.23053  0.88153  1.0000 -0.0998075491
C   C376      1.0  0.40100  0.95893  0.38153  1.0000 -0.0998075491
C   C377      1.0  0.17345  0.22283  0.92642  1.0000 -0.0998075491
C   C378      1.0  0.45359  0.00297  0.42642  1.0000 -0.0998075491
C   C379      1.0  0.15561  0.25490  0.96271  1.0000 -0.1500746549
C   C380      1.0  0.45781  0.05710  0.46271  1.0000 -0.1500746549
C   C381      1.0  0.98998  0.54456  0.01792  1.0000 0.0960692924
C   C382      1.0  0.22336  0.27794  0.51792  1.0000 0.0960692924
C   C383      1.0  0.93958  0.49863  0.96953  1.0000 0.11033395
C   C384      1.0  0.22090  0.27995  0.46953  1.0000 0.11033395
C   C385      1.0  0.88897  0.50581  0.95188  1.0000 -0.1679937299
C   C386      1.0  0.19607  0.31291  0.45188  1.0000 -0.1679937299
C   C387      1.0  0.88875  0.55891  0.98260  1.0000 -0.0998075491
C   C388      1.0  0.17369  0.34385  0.48260  1.0000 -0.0998075491
C   C389      1.0  0.93915  0.60483  0.03098  1.0000 -0.1104846878
C   C390      1.0  0.17615  0.34183  0.53098  1.0000 -0.1104846878
C   C391      1.0  0.98976  0.59767  0.04865  1.0000 -0.1595642544
C   C392      1.0  0.20098  0.30889  0.54865  1.0000 -0.1595642544
C   C393      1.0  0.15122  0.50860  0.93600  1.0000 0.1196117699
C   C394      1.0  0.17740  0.03478  0.43600  1.0000 0.1196117699
C   C395      1.0  0.15539  0.55232  0.98729  1.0000 0.1196117699
C   C396      1.0  0.18497  0.08190  0.48729  1.0000 0.1196117699
C   C397      1.0  0.18420  0.60789  0.01075  1.0000 -0.1679937299
C   C398      1.0  0.15286  0.07655  0.51075  1.0000 -0.1679937299
C   C399      1.0  0.20888  0.61982  0.98300  1.0000 -0.0998075491
C   C400      1.0  0.11318  0.02412  0.48300  1.0000 -0.0998075491
C   C401      1.0  0.20468  0.57610  0.93172  1.0000 -0.0998075491
C   C402      1.0  0.10562  0.97704  0.43172  1.0000 -0.0998075491
C   C403      1.0  0.17585  0.52048  0.90823  1.0000 -0.1595642544
C   C404      1.0  0.13775  0.98238  0.40823  1.0000 -0.1595642544
C   C405      1.0  0.92430  0.31169  0.95933  1.0000 0.1196117699
C   C406      1.0  0.39764  0.28503  0.45933  1.0000 0.1196117699
C   C407      1.0  0.97093  0.30680  0.99885  1.0000 0.1196117699
C   C408      1.0  0.44205  0.27792  0.49885  1.0000 0.1196117699
C   C409      1.0  0.96476  0.27747  0.02483  1.0000 -0.1679937299
C   C410      1.0  0.49736  0.31007  0.52483  1.0000 -0.1679937299
C   C411      1.0  0.91192  0.25300  0.01128  1.0000 -0.0998075491
C   C412      1.0  0.50828  0.34936  0.51128  1.0000 -0.0998075491
C   C413      1.0  0.86530  0.25790  0.97178  1.0000 -0.0998075491
C   C414      1.0  0.46388  0.35648  0.47178  1.0000 -0.0998075491
C   C415      1.0  0.87147  0.28723  0.94580  1.0000 -0.1595642544
C   C416      1.0  0.40857  0.32433  0.44580  1.0000 -0.1595642544
N   N1        1.0  0.77641  0.38594  0.12345  1.0000 -0.2018977302
N   N2        1.0  0.48751  0.59704  0.62345  1.0000 -0.2018977302
N   N3        1.0  0.79458  0.36385  0.15693  1.0000 -0.0218135321
N   N4        1.0  0.54308  0.61235  0.65693  1.0000 -0.0218135321
N   N5        1.0  0.93685  0.26234  0.15671  1.0000 -0.2018977302
N   N6        1.0  0.64437  0.46986  0.65671  1.0000 -0.2018977302
N   N7        1.0  0.78286  0.38162  0.20114  1.0000 -0.2099820252
N   N8        1.0  0.56952  0.66828  0.70114  1.0000 -0.2099820252
N   N9        1.0  0.88072  0.24599  0.12721  1.0000 -0.0298172691
N   N10       1.0  0.63122  0.49649  0.62721  1.0000 -0.0298172691
N   N11       1.0  0.85533  0.19002  0.08755  1.0000 -0.2018977302
N   N12       1.0  0.64753  0.48222  0.58755  1.0000 -0.2018977302
N   N13       1.0  0.95417  0.36396  0.27157  1.0000 -0.1945588819
N   N14       1.0  0.65761  0.56740  0.77157  1.0000 -0.1945588819
N   N15       1.0  0.89924  0.35113  0.24483  1.0000 -0.0139118817
N   N16       1.0  0.64370  0.59559  0.74483  1.0000 -0.0139118817
N   N17       1.0  0.88449  0.36519  0.28584  1.0000 -0.2018977302
N   N18       1.0  0.67065  0.65135  0.78584  1.0000 -0.2018977302
N   N19       1.0  0.75381  0.20200  0.99925  1.0000 -0.2206114473
N   N20       1.0  0.54725  0.49544  0.49925  1.0000 -0.2206114473
N   N21       1.0  0.77543  0.25864  0.03795  1.0000 -0.0298172691
N   N22       1.0  0.52931  0.51252  0.53795  1.0000 -0.0298172691
N   N23       1.0  0.75715  0.28292  0.00683  1.0000 -0.2018977302
N   N24       1.0  0.47391  0.49968  0.50683  1.0000 -0.2018977302
N   N25       1.0  0.94832  0.37165  0.16235  1.0000 -0.2206114473
N   N26       1.0  0.54070  0.46403  0.66235  1.0000 -0.2206114473
N   N27       1.0  0.89208  0.35812  0.13480  1.0000 -0.0298172691
N   N28       1.0  0.52668  0.49272  0.63480  1.0000 -0.0298172691
N   N29       1.0  0.87345  0.37818  0.09913  1.0000 -0.2018977302
N   N30       1.0  0.47095  0.47568  0.59913  1.0000 -0.2018977302
N   N31       1.0  0.75155  0.19299  0.10070  1.0000 -0.2018977302
N   N32       1.0  0.65771  0.59915  0.60070  1.0000 -0.2018977302
N   N33       1.0  0.77926  0.24854  0.14276  1.0000 -0.0218135321
N   N34       1.0  0.64422  0.61350  0.64276  1.0000 -0.0218135321
N   N35       1.0  0.76276  0.26633  0.18227  1.0000 -0.2099820252
N   N36       1.0  0.66594  0.66951  0.68227  1.0000 -0.2099820252
N   N37       1.0  0.26249  0.65296  0.87655  1.0000 -0.2018977302
N   N38       1.0  0.97359  0.86406  0.37655  1.0000 -0.2018977302
N   N39       1.0  0.20692  0.63765  0.84307  1.0000 -0.0218135321
N   N40       1.0  0.95542  0.88615  0.34307  1.0000 -0.0218135321
N   N41       1.0  0.10563  0.78014  0.84329  1.0000 -0.2018977302
N   N42       1.0  0.81315  0.98766  0.34329  1.0000 -0.2018977302
N   N43       1.0  0.18048  0.58172  0.79886  1.0000 -0.2099820252
N   N44       1.0  0.96714  0.86838  0.29886  1.0000 -0.2099820252
N   N45       1.0  0.11878  0.75351  0.87279  1.0000 -0.0298172691
N   N46       1.0  0.86928  0.00401  0.37279  1.0000 -0.0298172691
N   N47       1.0  0.10247  0.76778  0.91245  1.0000 -0.2018977302
N   N48       1.0  0.89467  0.05998  0.41245  1.0000 -0.2018977302
N   N49       1.0  0.09239  0.68260  0.72843  1.0000 -0.1945588819
N   N50       1.0  0.79583  0.88604  0.22843  1.0000 -0.1945588819
N   N51       1.0  0.10630  0.65441  0.75517  1.0000 -0.0139118817
N   N52       1.0  0.85076  0.89887  0.25517  1.0000 -0.0139118817
N   N53       1.0  0.07935  0.59865  0.71416  1.0000 -0.2018977302
N   N54       1.0  0.86551  0.88481  0.21416  1.0000 -0.2018977302
N   N55       1.0  0.20275  0.75456  0.00075  1.0000 -0.2206114473
N   N56       1.0  0.99619  0.04800  0.50075  1.0000 -0.2206114473
N   N57       1.0  0.22069  0.73748  0.96205  1.0000 -0.0298172691
N   N58       1.0  0.97457  0.99136  0.46205  1.0000 -0.0298172691
N   N59       1.0  0.27609  0.75032  0.99317  1.0000 -0.2018977302
N   N60       1.0  0.99285  0.96708  0.49317  1.0000 -0.2018977302
N   N61       1.0  0.20930  0.78597  0.83765  1.0000 -0.2206114473
N   N62       1.0  0.80168  0.87835  0.33765  1.0000 -0.2206114473
N   N63       1.0  0.22332  0.75728  0.86520  1.0000 -0.0298172691
N   N64       1.0  0.85792  0.89188  0.36520  1.0000 -0.0298172691
N   N65       1.0  0.27905  0.77432  0.90087  1.0000 -0.2018977302
N   N66       1.0  0.87655  0.87182  0.40087  1.0000 -0.2018977302
N   N67       1.0  0.09229  0.65085  0.89930  1.0000 -0.2018977302
N   N68       1.0  0.99845  0.05701  0.39930  1.0000 -0.2018977302
N   N69       1.0  0.10578  0.63650  0.85724  1.0000 -0.0218135321
N   N70       1.0  0.97074  0.00146  0.35724  1.0000 -0.0218135321
N   N71       1.0  0.08406  0.58049  0.81773  1.0000 -0.2099820252
N   N72       1.0  0.98724  0.98367  0.31773  1.0000 -0.2099820252
N   N73       1.0  0.40296  0.02641  0.89047  1.0000 -0.2018977302
N   N74       1.0  0.61406  0.73751  0.39047  1.0000 -0.2018977302
N   N75       1.0  0.38765  0.04458  0.93073  1.0000 -0.0218135321
N   N76       1.0  0.63615  0.79308  0.43073  1.0000 -0.0218135321
N   N77       1.0  0.53014  0.18685  0.17451  1.0000 -0.2018977302
N   N78       1.0  0.73766  0.89437  0.67451  1.0000 -0.2018977302
N   N79       1.0  0.33172  0.03286  0.90124  1.0000 -0.2099820252
N   N80       1.0  0.61838  0.81952  0.40124  1.0000 -0.2099820252
N   N81       1.0  0.50351  0.13072  0.13473  1.0000 -0.0298172691
N   N82       1.0  0.75401  0.88122  0.63473  1.0000 -0.0298172691
N   N83       1.0  0.51778  0.10533  0.16531  1.0000 -0.2018977302
N   N84       1.0  0.80998  0.89753  0.66531  1.0000 -0.2018977302
N   N85       1.0  0.43260  0.20417  0.09021  1.0000 -0.1945588819
N   N86       1.0  0.63604  0.90761  0.59021  1.0000 -0.1945588819
N   N87       1.0  0.40441  0.14924  0.04811  1.0000 -0.0139118817
N   N88       1.0  0.64887  0.89370  0.54811  1.0000 -0.0139118817
N   N89       1.0  0.34865  0.13449  0.01930  1.0000 -0.2018977302
N   N90       1.0  0.63481  0.92065  0.51930  1.0000 -0.2018977302
N   N91       1.0  0.50456  0.00381  0.05181  1.0000 -0.2206114473
N   N92       1.0  0.79800  0.79725  0.55181  1.0000 -0.2206114473
N   N93       1.0  0.48748  0.02543  0.01679  1.0000 -0.0298172691
N   N94       1.0  0.74136  0.77931  0.51679  1.0000 -0.0298172691
N   N95       1.0  0.50032  0.00715  0.97423  1.0000 -0.2018977302
N   N96       1.0  0.71708  0.72391  0.47423  1.0000 -0.2018977302
N   N97       1.0  0.53597  0.19832  0.07667  1.0000 -0.2206114473
N   N98       1.0  0.62835  0.79070  0.57667  1.0000 -0.2206114473
N   N99       1.0  0.50728  0.14208  0.03396  1.0000 -0.0298172691
N   N100      1.0  0.64188  0.77668  0.53396  1.0000 -0.0298172691
N   N101      1.0  0.52432  0.12345  0.99527  1.0000 -0.2018977302
N   N102      1.0  0.62182  0.72095  0.49527  1.0000 -0.2018977302
N   N103      1.0  0.40085  0.00155  0.05856  1.0000 -0.2018977302
N   N104      1.0  0.80701  0.90771  0.55856  1.0000 -0.2018977302
N   N105      1.0  0.38650  0.02926  0.03072  1.0000 -0.0218135321
N   N106      1.0  0.75146  0.89422  0.53072  1.0000 -0.0218135321
N   N107      1.0  0.33049  0.01276  0.99643  1.0000 -0.2099820252
N   N108      1.0  0.73367  0.91594  0.49643  1.0000 -0.2099820252
N   N109      1.0  0.13594  0.51249  0.10953  1.0000 -0.2018977302
N   N110      1.0  0.34704  0.22359  0.60953  1.0000 -0.2018977302
N   N111      1.0  0.11385  0.45692  0.06927  1.0000 -0.0218135321
N   N112      1.0  0.36235  0.20542  0.56927  1.0000 -0.0218135321
N   N113      1.0  0.01234  0.35563  0.82549  1.0000 -0.2018977302
N   N114      1.0  0.21986  0.06315  0.32549  1.0000 -0.2018977302
N   N115      1.0  0.13162  0.43048  0.09876  1.0000 -0.2099820252
N   N116      1.0  0.41828  0.21714  0.59876  1.0000 -0.2099820252
N   N117      1.0  0.99599  0.36878  0.86527  1.0000 -0.0298172691
N   N118      1.0  0.24649  0.11928  0.36527  1.0000 -0.0298172691
N   N119      1.0  0.94002  0.35247  0.83469  1.0000 -0.2018977302
N   N120      1.0  0.23222  0.14467  0.33469  1.0000 -0.2018977302
N   N121      1.0  0.11396  0.34239  0.90979  1.0000 -0.1945588819
N   N122      1.0  0.31740  0.04583  0.40979  1.0000 -0.1945588819
N   N123      1.0  0.10113  0.35630  0.95189  1.0000 -0.0139118817
N   N124      1.0  0.34559  0.10076  0.45189  1.0000 -0.0139118817
N   N125      1.0  0.11519  0.32935  0.98070  1.0000 -0.2018977302
N   N126      1.0  0.40135  0.11551  0.48070  1.0000 -0.2018977302
N   N127      1.0  0.95200  0.45275  0.94819  1.0000 -0.2206114473
N   N128      1.0  0.24544  0.24619  0.44819  1.0000 -0.2206114473
N   N129      1.0  0.00864  0.47069  0.98321  1.0000 -0.0298172691
N   N130      1.0  0.26252  0.22457  0.48321  1.0000 -0.0298172691
N   N131      1.0  0.03292  0.52609  0.02577  1.0000 -0.2018977302
N   N132      1.0  0.24968  0.24285  0.52577  1.0000 -0.2018977302
N   N133      1.0  0.12165  0.45930  0.92333  1.0000 -0.2206114473
N   N134      1.0  0.21403  0.05168  0.42333  1.0000 -0.2206114473
N   N135      1.0  0.10812  0.47332  0.96604  1.0000 -0.0298172691
N   N136      1.0  0.24272  0.10792  0.46604  1.0000 -0.0298172691
N   N137      1.0  0.12818  0.52905  0.00473  1.0000 -0.2018977302
N   N138      1.0  0.22568  0.12655  0.50473  1.0000 -0.2018977302
N   N139      1.0  0.94299  0.34229  0.94144  1.0000 -0.2018977302
N   N140      1.0  0.34915  0.24845  0.44144  1.0000 -0.2018977302
N   N141      1.0  0.99854  0.35578  0.96928  1.0000 -0.0218135321
N   N142      1.0  0.36350  0.22074  0.46928  1.0000 -0.0218135321
N   N143      1.0  0.01633  0.33406  0.00357  1.0000 -0.2099820252
N   N144      1.0  0.41951  0.23724  0.50357  1.0000 -0.2099820252
O   O1        1.0  0.66718  0.77908  0.85290  1.0000 -0.5319374565
O   O2        1.0  0.82382  0.43572  0.35290  1.0000 -0.5319374565
O   O3        1.0  0.68099  0.78636  0.78693  1.0000 -0.5112618718
O   O4        1.0  0.75057  0.35594  0.28693  1.0000 -0.5112618718
O   O5        1.0  0.74125  0.07367  0.02062  1.0000 -0.4213044408
O   O6        1.0  0.69695  0.52937  0.52062  1.0000 -0.4213044408
O   O7        1.0  0.75172  0.07676  0.95464  1.0000 -0.4493051122
O   O8        1.0  0.62788  0.45292  0.45464  1.0000 -0.4493051122
O   O9        1.0  0.06381  0.34350  0.26671  1.0000 -0.4635352481
O   O10       1.0  0.67321  0.45290  0.76671  1.0000 -0.4635352481
O   O11       1.0  0.06913  0.42397  0.28136  1.0000 -0.4817443702
O   O12       1.0  0.60739  0.46223  0.78136  1.0000 -0.4817443702
O   O13       1.0  0.35412  0.45304  0.48890  1.0000 -0.4927985247
O   O14       1.0  0.78586  0.38478  0.98890  1.0000 -0.4927985247
O   O15       1.0  0.36301  0.53052  0.49461  1.0000 -0.4733409721
O   O16       1.0  0.71409  0.38160  0.99461  1.0000 -0.4733409721
O   O17       1.0  0.92618  0.81428  0.14710  1.0000 -0.5319374565
O   O18       1.0  0.08282  0.47092  0.64710  1.0000 -0.5319374565
O   O19       1.0  0.99943  0.89406  0.21307  1.0000 -0.5112618718
O   O20       1.0  0.06901  0.46364  0.71307  1.0000 -0.5112618718
O   O21       1.0  0.05305  0.72063  0.97938  1.0000 -0.4213044408
O   O22       1.0  0.00875  0.17633  0.47938  1.0000 -0.4213044408
O   O23       1.0  0.12212  0.79708  0.04536  1.0000 -0.4493051122
O   O24       1.0  0.99828  0.17324  0.54536  1.0000 -0.4493051122
O   O25       1.0  0.07679  0.79710  0.73329  1.0000 -0.4635352481
O   O26       1.0  0.68619  0.90650  0.23329  1.0000 -0.4635352481
O   O27       1.0  0.14261  0.78777  0.71864  1.0000 -0.4817443702
O   O28       1.0  0.68087  0.82603  0.21864  1.0000 -0.4817443702
O   O29       1.0  0.96414  0.86522  0.51110  1.0000 -0.4927985247
O   O30       1.0  0.39588  0.79696  0.01110  1.0000 -0.4927985247
O   O31       1.0  0.03591  0.86840  0.50539  1.0000 -0.4733409721
O   O32       1.0  0.38699  0.71948  0.00539  1.0000 -0.4733409721
O   O33       1.0  0.56428  0.91718  0.38810  1.0000 -0.5319374565
O   O34       1.0  0.22092  0.07382  0.88810  1.0000 -0.5319374565
O   O35       1.0  0.64406  0.93099  0.39463  1.0000 -0.5112618718
O   O36       1.0  0.21364  0.00057  0.89463  1.0000 -0.5112618718
O   O37       1.0  0.47063  0.99125  0.16758  1.0000 -0.4213044408
O   O38       1.0  0.92633  0.94695  0.66758  1.0000 -0.4213044408
O   O39       1.0  0.54708  0.00172  0.17496  1.0000 -0.4493051122
O   O40       1.0  0.92324  0.87788  0.67496  1.0000 -0.4493051122
O   O41       1.0  0.54710  0.31381  0.22031  1.0000 -0.4635352481
O   O42       1.0  0.65650  0.92321  0.72031  1.0000 -0.4635352481
O   O43       1.0  0.53777  0.31913  0.14516  1.0000 -0.4817443702
O   O44       1.0  0.57603  0.85739  0.64516  1.0000 -0.4817443702
O   O45       1.0  0.61522  0.60412  0.40108  1.0000 -0.4927985247
O   O46       1.0  0.54696  0.03586  0.90108  1.0000 -0.4927985247
O   O47       1.0  0.61840  0.61301  0.33249  1.0000 -0.4733409721
O   O48       1.0  0.46948  0.96409  0.83249  1.0000 -0.4733409721
O   O49       1.0  0.52908  0.17618  0.61190  1.0000 -0.5319374565
O   O50       1.0  0.18572  0.33282  0.11190  1.0000 -0.5319374565
O   O51       1.0  0.53636  0.24943  0.60537  1.0000 -0.5112618718
O   O52       1.0  0.10594  0.31901  0.10537  1.0000 -0.5112618718
O   O53       1.0  0.82367  0.30305  0.83242  1.0000 -0.4213044408
O   O54       1.0  0.27937  0.25875  0.33242  1.0000 -0.4213044408
O   O55       1.0  0.82676  0.37212  0.82504  1.0000 -0.4493051122
O   O56       1.0  0.20292  0.24828  0.32504  1.0000 -0.4493051122
O   O57       1.0  0.09350  0.32679  0.77969  1.0000 -0.4635352481
O   O58       1.0  0.20290  0.93619  0.27969  1.0000 -0.4635352481
O   O59       1.0  0.17397  0.39261  0.85484  1.0000 -0.4817443702
O   O60       1.0  0.21223  0.93087  0.35484  1.0000 -0.4817443702
O   O61       1.0  0.20304  0.21414  0.59892  1.0000 -0.4927985247
O   O62       1.0  0.13478  0.64588  0.09892  1.0000 -0.4927985247
O   O63       1.0  0.28052  0.28591  0.66751  1.0000 -0.4733409721
O   O64       1.0  0.13160  0.63699  0.16751  1.0000 -0.4733409721
