# DDEC6 charges by PACMAN v1.1 (https://github.com/mtap-research/PACMAN-charge/)
data_2009[Eu][pcu]3[ASR]2
_chemical_formula_sum              "Eu2 H15 C24 N3 O12"
_cell_length_a       10.4692
_cell_length_b       11.2307
_cell_length_c       12.7358
_cell_angle_alpha    101.237
_cell_angle_beta     110.087
_cell_angle_gamma    99.626

_symmetry_space_group_name_H-M    "P 1"
_symmetry_Int_Tables_number       1

loop_
  _symmetry_equiv_pos_as_xyz
  'x, y, z'

loop_
  _atom_site_type_symbol
  _atom_site_label
  _atom_site_symmetry_multiplicity
  _atom_site_fract_x
  _atom_site_fract_y
  _atom_site_fract_z
  _atom_site_occupancy
  _atom_site_charge
Eu  Eu1       1.0  0.40976  0.44481  0.33602  1.0000 2.0492810291
Eu  Eu2       1.0  0.59793  0.55135  0.66667  1.0000 2.0427693408
H   H1        1.0  0.83866  0.39381  0.29461  1.0000 0.1105019017
H   H2        1.0  0.89326  0.58426  0.64196  1.0000 0.1105019017
H   H3        1.0  0.10240  0.41561  0.35887  1.0000 0.1105019017
H   H4        1.0  0.47707  0.07687  0.32697  1.0000 0.1105019017
H   H5        1.0  0.50521  0.85224  0.32944  1.0000 0.1105019017
H   H6        1.0  0.49554  0.15026  0.67616  1.0000 0.1159892288
H   H7        1.0  0.75471  0.94554  0.98802  1.0000 0.1105019017
H   H8        1.0  0.06736  0.85235  0.86261  1.0000 0.1025969517
H   H9        1.0  0.93413  0.14691  0.13424  1.0000 0.1105019017
H   H10       1.0  0.27692  0.62567  0.75429  1.0000 0.3122482182
H   H11       1.0  0.12288  0.65393  0.78456  1.0000 0.3004950565
H   H12       1.0  0.51730  0.98567  0.76665  1.0000 0.2909798604
H   H13       1.0  0.54357  0.83705  0.70480  1.0000 0.3004950565
H   H14       1.0  0.33716  0.14073  0.06798  1.0000 0.3122482182
H   H15       1.0  0.30121  0.99228  0.95629  1.0000 0.3004950565
C   C1        1.0  0.29957  0.52920  0.57579  1.0000 0.6316525024
C   C2        1.0  0.70025  0.47078  0.42325  1.0000 0.6160425228
C   C3        1.0  0.14513  0.51466  0.53571  1.0000 -0.1496778
C   C4        1.0  0.85507  0.48548  0.46491  1.0000 0.0008835816
C   C5        1.0  0.08591  0.56278  0.61710  1.0000 0.3168189954
C   C6        1.0  0.91197  0.43970  0.38398  1.0000 -0.1213051918
C   C7        1.0  0.93806  0.54631  0.57998  1.0000 -0.2193930763
C   C8        1.0  0.05720  0.45374  0.41988  1.0000 -0.0818891805
C   C9        1.0  0.47282  0.25177  0.50604  1.0000 0.6447485965
C   C10       1.0  0.52646  0.74709  0.49538  1.0000 0.6494176668
C   C11       1.0  0.48775  0.12130  0.50376  1.0000 -0.001009945
C   C12       1.0  0.51320  0.87814  0.50063  1.0000 -0.1496778
C   C13       1.0  0.48853  0.04150  0.40289  1.0000 -0.1309598926
C   C14       1.0  0.50960  0.95912  0.60213  1.0000 0.3168189954
C   C15       1.0  0.50289  0.92047  0.40303  1.0000 -0.0695854816
C   C16       1.0  0.49652  0.08254  0.60165  1.0000 -0.2193930763
C   C17       1.0  0.19794  0.23437  0.16111  1.0000 0.5788380784
C   C18       1.0  0.80285  0.76614  0.83884  1.0000 0.5731014293
C   C19       1.0  0.09914  0.11093  0.08172  1.0000 -0.1309598926
C   C20       1.0  0.90314  0.88962  0.91823  1.0000 0.0089934031
C   C21       1.0  0.14000  0.02647  0.00536  1.0000 0.3122482182
C   C22       1.0  0.86291  0.97161  0.99376  1.0000 -0.1363715697
C   C23       1.0  0.03956  0.91666  0.92336  1.0000 -0.2193930763
C   C24       1.0  0.96091  0.08068  0.07438  1.0000 -0.0818891805
N   N1        1.0  0.16963  0.62548  0.72908  1.0000 -0.6131130773
N   N2        1.0  0.51848  0.92165  0.69830  1.0000 -0.5910616833
N   N3        1.0  0.27411  0.05183  0.01161  1.0000 -0.5988844949
O   O1        1.0  0.34956  0.50017  0.49938  1.0000 -0.7382365781
O   O2        1.0  0.64903  0.49551  0.50090  1.0000 -0.7738648969
O   O3        1.0  0.37552  0.57076  0.68596  1.0000 -0.6294889469
O   O4        1.0  0.62954  0.43525  0.31447  1.0000 -0.6173727233
O   O5        1.0  0.42737  0.27001  0.40599  1.0000 -0.6637091953
O   O6        1.0  0.57007  0.72352  0.59422  1.0000 -0.6824305374
O   O7        1.0  0.50524  0.32791  0.60496  1.0000 -0.6824305374
O   O8        1.0  0.49413  0.67256  0.39615  1.0000 -0.6694961208
O   O9        1.0  0.15808  0.30236  0.22975  1.0000 -0.6400481481
O   O10       1.0  0.84587  0.69623  0.77267  1.0000 -0.6694961208
O   O11       1.0  0.31791  0.26552  0.15204  1.0000 -0.6294889469
O   O12       1.0  0.68280  0.73897  0.84493  1.0000 -0.6400481481
