# DDEC6 charges by PACMAN v1.1 (https://github.com/mtap-research/PACMAN-charge/)
data_2009[Ga][bpq]3[ASR]2
_chemical_formula_sum              "Ga4 H20 C32 O20"
_cell_length_a       6.712
_cell_length_b       11.2486
_cell_length_c       17.965
_cell_angle_alpha    90
_cell_angle_beta     91.975
_cell_angle_gamma    90

_symmetry_space_group_name_H-M    "P 1"
_symmetry_Int_Tables_number       1

loop_
  _symmetry_equiv_pos_as_xyz
  'x, y, z'

loop_
  _atom_site_type_symbol
  _atom_site_label
  _atom_site_symmetry_multiplicity
  _atom_site_fract_x
  _atom_site_fract_y
  _atom_site_fract_z
  _atom_site_occupancy
  _atom_site_charge
Ga  Ga1       1.0  0.50000  0.00000  0.50000  1.0000 1.3904285549
Ga  Ga2       1.0  0.00000  0.50000  0.00000  1.0000 1.3904285549
Ga  Ga3       1.0  1.00000  0.00000  0.50000  1.0000 1.3904285549
Ga  Ga4       1.0  0.50000  0.50000  0.00000  1.0000 1.3904285549
H   H1        1.0  0.55460  0.79000  0.32370  1.0000 0.1082574908
H   H2        1.0  0.56970  0.68900  0.20180  1.0000 0.1082574908
H   H3        1.0  0.25000  0.33420  0.00000  1.0000 0.4050899265
H   H4        1.0  0.05460  0.29000  0.82370  1.0000 0.1082574908
H   H5        1.0  0.06970  0.18900  0.70180  1.0000 0.1082574908
H   H6        1.0  0.75000  0.83420  0.50000  1.0000 0.4050899265
H   H7        1.0  0.94540  0.79000  0.67630  1.0000 0.1082574908
H   H8        1.0  0.93030  0.68900  0.79820  1.0000 0.1082574908
H   H9        1.0  0.44540  0.29000  0.17630  1.0000 0.1082574908
H   H10       1.0  0.43030  0.18900  0.29820  1.0000 0.1082574908
H   H11       1.0  0.44540  0.21000  0.67630  1.0000 0.1082574908
H   H12       1.0  0.43030  0.31100  0.79820  1.0000 0.1082574908
H   H13       1.0  0.94540  0.71000  0.17630  1.0000 0.1082574908
H   H14       1.0  0.93030  0.81100  0.29820  1.0000 0.1082574908
H   H15       1.0  0.25000  0.16580  0.50000  1.0000 0.4050899265
H   H16       1.0  0.05460  0.21000  0.32370  1.0000 0.1082574908
H   H17       1.0  0.06970  0.31100  0.20180  1.0000 0.1082574908
H   H18       1.0  0.75000  0.66580  0.00000  1.0000 0.4050899265
H   H19       1.0  0.55460  0.71000  0.82370  1.0000 0.1082574908
H   H20       1.0  0.56970  0.81100  0.70180  1.0000 0.1082574908
C   C1        1.0  0.23800  0.86920  0.39460  1.0000 0.5901678322
C   C2        1.0  0.24030  0.80300  0.31870  1.0000 -0.0097582667
C   C3        1.0  0.07160  0.78340  0.27780  1.0000 -0.0992868751
C   C4        1.0  0.08060  0.72860  0.20820  1.0000 -0.0992868751
C   C5        1.0  0.73800  0.36920  0.89460  1.0000 0.5901678322
C   C6        1.0  0.74030  0.30300  0.81870  1.0000 -0.0097582667
C   C7        1.0  0.57160  0.28340  0.77780  1.0000 -0.0992868751
C   C8        1.0  0.58060  0.22860  0.70820  1.0000 -0.0992868751
C   C9        1.0  0.26200  0.86920  0.60540  1.0000 0.5901678322
C   C10       1.0  0.25970  0.80300  0.68130  1.0000 -0.0097582667
C   C11       1.0  0.42840  0.78340  0.72220  1.0000 -0.0992868751
C   C12       1.0  0.41940  0.72860  0.79180  1.0000 -0.0992868751
C   C13       1.0  0.76200  0.36920  0.10540  1.0000 0.5901678322
C   C14       1.0  0.75970  0.30300  0.18130  1.0000 -0.0097582667
C   C15       1.0  0.92840  0.28340  0.22220  1.0000 -0.0992868751
C   C16       1.0  0.91940  0.22860  0.29180  1.0000 -0.0992868751
C   C17       1.0  0.76200  0.13080  0.60540  1.0000 0.5901678322
C   C18       1.0  0.75970  0.19700  0.68130  1.0000 -0.0097582667
C   C19       1.0  0.92840  0.21660  0.72220  1.0000 -0.0992868751
C   C20       1.0  0.91940  0.27140  0.79180  1.0000 -0.0992868751
C   C21       1.0  0.26200  0.63080  0.10540  1.0000 0.5901678322
C   C22       1.0  0.25970  0.69700  0.18130  1.0000 -0.0097582667
C   C23       1.0  0.42840  0.71660  0.22220  1.0000 -0.0992868751
C   C24       1.0  0.41940  0.77140  0.29180  1.0000 -0.0992868751
C   C25       1.0  0.73800  0.13080  0.39460  1.0000 0.5901678322
C   C26       1.0  0.74030  0.19700  0.31870  1.0000 -0.0097582667
C   C27       1.0  0.57160  0.21660  0.27780  1.0000 -0.0992868751
C   C28       1.0  0.58060  0.27140  0.20820  1.0000 -0.0992868751
C   C29       1.0  0.23800  0.63080  0.89460  1.0000 0.5901678322
C   C30       1.0  0.24030  0.69700  0.81870  1.0000 -0.0097582667
C   C31       1.0  0.07160  0.71660  0.77780  1.0000 -0.0992868751
C   C32       1.0  0.08060  0.77140  0.70820  1.0000 -0.0992868751
O   O1        1.0  0.39440  0.87850  0.42750  1.0000 -0.5078156175
O   O2        1.0  0.43020  0.59800  0.08750  1.0000 -0.545662153
O   O3        1.0  0.89440  0.37850  0.92750  1.0000 -0.5078156175
O   O4        1.0  0.93020  0.09800  0.58750  1.0000 -0.544647515
O   O5        1.0  0.10560  0.87850  0.57250  1.0000 -0.5078156175
O   O6        1.0  0.06980  0.59800  0.91250  1.0000 -0.545662153
O   O7        1.0  0.60560  0.37850  0.07250  1.0000 -0.5078156175
O   O8        1.0  0.56980  0.09800  0.41250  1.0000 -0.544647515
O   O9        1.0  0.60560  0.12150  0.57250  1.0000 -0.5078156175
O   O10       1.0  0.56980  0.40200  0.91250  1.0000 -0.544647515
O   O11       1.0  0.10560  0.62150  0.07250  1.0000 -0.5078156175
O   O12       1.0  0.06980  0.90200  0.41250  1.0000 -0.544647515
O   O13       1.0  0.89440  0.12150  0.42750  1.0000 -0.5078156175
O   O14       1.0  0.93020  0.40200  0.08750  1.0000 -0.544647515
O   O15       1.0  0.39440  0.62150  0.92750  1.0000 -0.5078156175
O   O16       1.0  0.43020  0.90200  0.58750  1.0000 -0.545662153
O   O17       1.0  0.25000  0.07690  0.50000  1.0000 -0.8865328314
O   O18       1.0  0.75000  0.57690  0.00000  1.0000 -0.8865328314
O   O19       1.0  0.75000  0.92310  0.50000  1.0000 -0.8865328314
O   O20       1.0  0.25000  0.42310  0.00000  1.0000 -0.8865328314
