# DDEC6 charges by PACMAN v1.1 (https://github.com/mtap-research/PACMAN-charge/)
data_2009[Cu][tbo]3[ASR]1
_chemical_formula_sum              "Cu12 H72 C168 O48"
_cell_length_a       26.3256
_cell_length_b       26.3256
_cell_length_c       26.3256
_cell_angle_alpha    60
_cell_angle_beta     60
_cell_angle_gamma    60

_symmetry_space_group_name_H-M    "P 1"
_symmetry_Int_Tables_number       1

loop_
  _symmetry_equiv_pos_as_xyz
  'x, y, z'

loop_
  _atom_site_type_symbol
  _atom_site_label
  _atom_site_symmetry_multiplicity
  _atom_site_fract_x
  _atom_site_fract_y
  _atom_site_fract_z
  _atom_site_occupancy
  _atom_site_charge
Cu  Cu1       1.0  0.50000  0.50000  0.95160  1.0000 0.7940346315
Cu  Cu2       1.0  0.95160  0.04840  0.50000  1.0000 0.7940346315
Cu  Cu3       1.0  0.50000  0.50000  0.04840  1.0000 0.7940346315
Cu  Cu4       1.0  0.04840  0.95160  0.50000  1.0000 0.7940346315
Cu  Cu5       1.0  0.50000  0.95160  0.50000  1.0000 0.7940346315
Cu  Cu6       1.0  0.04840  0.50000  0.95160  1.0000 0.7940346315
Cu  Cu7       1.0  0.50000  0.04840  0.95160  1.0000 0.7940346315
Cu  Cu8       1.0  0.95160  0.50000  0.50000  1.0000 0.7940346315
Cu  Cu9       1.0  0.95160  0.50000  0.04840  1.0000 0.7940346315
Cu  Cu10      1.0  0.04840  0.50000  0.50000  1.0000 0.7940346315
Cu  Cu11      1.0  0.50000  0.04840  0.50000  1.0000 0.7940346315
Cu  Cu12      1.0  0.50000  0.95160  0.04840  1.0000 0.7940346315
H   H1        1.0  0.52160  0.29580  0.13940  1.0000 0.1210396602
H   H2        1.0  0.95680  0.86060  0.47840  1.0000 0.1210396602
H   H3        1.0  0.29580  0.52160  0.04320  1.0000 0.1210396602
H   H4        1.0  0.86060  0.95680  0.70420  1.0000 0.1210396602
H   H5        1.0  0.70420  0.95680  0.47840  1.0000 0.1210396602
H   H6        1.0  0.04320  0.13940  0.29580  1.0000 0.1210396602
H   H7        1.0  0.86060  0.47840  0.95680  1.0000 0.1210396602
H   H8        1.0  0.70420  0.86060  0.95680  1.0000 0.1210396602
H   H9        1.0  0.13940  0.04320  0.52160  1.0000 0.1210396602
H   H10       1.0  0.95680  0.47840  0.70420  1.0000 0.1210396602
H   H11       1.0  0.13940  0.52160  0.29580  1.0000 0.1210396602
H   H12       1.0  0.29580  0.13940  0.52160  1.0000 0.1210396602
H   H13       1.0  0.13940  0.29580  0.04320  1.0000 0.1210396602
H   H14       1.0  0.04320  0.29580  0.52160  1.0000 0.1210396602
H   H15       1.0  0.52160  0.04320  0.29580  1.0000 0.1210396602
H   H16       1.0  0.52160  0.13940  0.04320  1.0000 0.1210396602
H   H17       1.0  0.29580  0.04320  0.13940  1.0000 0.1210396602
H   H18       1.0  0.04320  0.52160  0.13940  1.0000 0.1210396602
H   H19       1.0  0.47840  0.70420  0.95680  1.0000 0.1210396602
H   H20       1.0  0.70420  0.47840  0.86060  1.0000 0.1210396602
H   H21       1.0  0.95680  0.70420  0.86060  1.0000 0.1210396602
H   H22       1.0  0.47840  0.86060  0.70420  1.0000 0.1210396602
H   H23       1.0  0.47840  0.95680  0.86060  1.0000 0.1210396602
H   H24       1.0  0.86060  0.70420  0.47840  1.0000 0.1210396602
H   H25       1.0  0.53400  0.22120  0.00280  1.0000 0.1210396602
H   H26       1.0  0.75800  0.99720  0.46600  1.0000 0.1210396602
H   H27       1.0  0.22120  0.53400  0.24200  1.0000 0.1210396602
H   H28       1.0  0.99720  0.75800  0.77880  1.0000 0.1210396602
H   H29       1.0  0.77880  0.75800  0.46600  1.0000 0.1210396602
H   H30       1.0  0.24200  0.00280  0.22120  1.0000 0.1210396602
H   H31       1.0  0.99720  0.46600  0.75800  1.0000 0.1210396602
H   H32       1.0  0.77880  0.99720  0.75800  1.0000 0.1210396602
H   H33       1.0  0.00280  0.24200  0.53400  1.0000 0.1210396602
H   H34       1.0  0.75800  0.46600  0.77880  1.0000 0.1210396602
H   H35       1.0  0.00280  0.53400  0.22120  1.0000 0.1210396602
H   H36       1.0  0.22120  0.00280  0.53400  1.0000 0.1210396602
H   H37       1.0  0.00280  0.22120  0.24200  1.0000 0.1210396602
H   H38       1.0  0.24200  0.22120  0.53400  1.0000 0.1210396602
H   H39       1.0  0.53400  0.24200  0.22120  1.0000 0.1210396602
H   H40       1.0  0.53400  0.00280  0.24200  1.0000 0.1210396602
H   H41       1.0  0.22120  0.24200  0.00280  1.0000 0.1210396602
H   H42       1.0  0.24200  0.53400  0.00280  1.0000 0.1210396602
H   H43       1.0  0.46600  0.77880  0.75800  1.0000 0.1210396602
H   H44       1.0  0.77880  0.46600  0.99720  1.0000 0.1210396602
H   H45       1.0  0.75800  0.77880  0.99720  1.0000 0.1210396602
H   H46       1.0  0.46600  0.99720  0.77880  1.0000 0.1210396602
H   H47       1.0  0.46600  0.75800  0.99720  1.0000 0.1210396602
H   H48       1.0  0.99720  0.77880  0.46600  1.0000 0.1210396602
H   H49       1.0  0.52890  0.32390  0.96990  1.0000 0.1252290162
H   H50       1.0  0.82270  0.03010  0.47110  1.0000 0.1252290162
H   H51       1.0  0.32390  0.52890  0.17730  1.0000 0.1252290162
H   H52       1.0  0.03010  0.82270  0.67610  1.0000 0.1252290162
H   H53       1.0  0.67610  0.82270  0.47110  1.0000 0.1252290162
H   H54       1.0  0.17730  0.96990  0.32390  1.0000 0.1252290162
H   H55       1.0  0.03010  0.47110  0.82270  1.0000 0.1252290162
H   H56       1.0  0.67610  0.03010  0.82270  1.0000 0.1252290162
H   H57       1.0  0.96990  0.17730  0.52890  1.0000 0.1252290162
H   H58       1.0  0.82270  0.47110  0.67610  1.0000 0.1252290162
H   H59       1.0  0.96990  0.52890  0.32390  1.0000 0.1252290162
H   H60       1.0  0.32390  0.96990  0.52890  1.0000 0.1252290162
H   H61       1.0  0.96990  0.32390  0.17730  1.0000 0.1252290162
H   H62       1.0  0.17730  0.32390  0.52890  1.0000 0.1252290162
H   H63       1.0  0.52890  0.17730  0.32390  1.0000 0.1252290162
H   H64       1.0  0.52890  0.96990  0.17730  1.0000 0.1252290162
H   H65       1.0  0.32390  0.17730  0.96990  1.0000 0.1252290162
H   H66       1.0  0.17730  0.52890  0.96990  1.0000 0.1252290162
H   H67       1.0  0.47110  0.67610  0.82270  1.0000 0.1252290162
H   H68       1.0  0.67610  0.47110  0.03010  1.0000 0.1252290162
H   H69       1.0  0.82270  0.67610  0.03010  1.0000 0.1252290162
H   H70       1.0  0.47110  0.03010  0.67610  1.0000 0.1252290162
H   H71       1.0  0.47110  0.82270  0.03010  1.0000 0.1252290162
H   H72       1.0  0.03010  0.67610  0.47110  1.0000 0.1252290162
C   C1        1.0  0.52368  0.31982  0.05192  1.0000 -0.0461571162
C   C2        1.0  0.89542  0.94808  0.47632  1.0000 -0.0461571162
C   C3        1.0  0.31982  0.52368  0.10458  1.0000 -0.0461571162
C   C4        1.0  0.94808  0.89542  0.68018  1.0000 -0.0461571162
C   C5        1.0  0.68018  0.89542  0.47632  1.0000 -0.0461571162
C   C6        1.0  0.10458  0.05192  0.31982  1.0000 -0.0461571162
C   C7        1.0  0.94808  0.47632  0.89542  1.0000 -0.0461571162
C   C8        1.0  0.68018  0.94808  0.89542  1.0000 -0.0461571162
C   C9        1.0  0.05192  0.10458  0.52368  1.0000 -0.0461571162
C   C10       1.0  0.89542  0.47632  0.68018  1.0000 -0.0461571162
C   C11       1.0  0.05192  0.52368  0.31982  1.0000 -0.0461571162
C   C12       1.0  0.31982  0.05192  0.52368  1.0000 -0.0461571162
C   C13       1.0  0.05192  0.31982  0.10458  1.0000 -0.0461571162
C   C14       1.0  0.10458  0.31982  0.52368  1.0000 -0.0461571162
C   C15       1.0  0.52368  0.10458  0.31982  1.0000 -0.0461571162
C   C16       1.0  0.52368  0.05192  0.10458  1.0000 -0.0461571162
C   C17       1.0  0.31982  0.10458  0.05192  1.0000 -0.0461571162
C   C18       1.0  0.10458  0.52368  0.05192  1.0000 -0.0461571162
C   C19       1.0  0.47632  0.68018  0.89542  1.0000 -0.0461571162
C   C20       1.0  0.68018  0.47632  0.94808  1.0000 -0.0461571162
C   C21       1.0  0.89542  0.68018  0.94808  1.0000 -0.0461571162
C   C22       1.0  0.47632  0.94808  0.68018  1.0000 -0.0461571162
C   C23       1.0  0.47632  0.89542  0.94808  1.0000 -0.0461571162
C   C24       1.0  0.94808  0.68018  0.47632  1.0000 -0.0461571162
C   C25       1.0  0.52322  0.28084  0.11216  1.0000 -0.1233634934
C   C26       1.0  0.91622  0.88784  0.47678  1.0000 -0.1233634934
C   C27       1.0  0.28084  0.52322  0.08378  1.0000 -0.1233634934
C   C28       1.0  0.88784  0.91622  0.71916  1.0000 -0.1233634934
C   C29       1.0  0.71916  0.91622  0.47678  1.0000 -0.1233634934
C   C30       1.0  0.08378  0.11216  0.28084  1.0000 -0.1233634934
C   C31       1.0  0.88784  0.47678  0.91622  1.0000 -0.1233634934
C   C32       1.0  0.71916  0.88784  0.91622  1.0000 -0.1233634934
C   C33       1.0  0.11216  0.08378  0.52322  1.0000 -0.1233634934
C   C34       1.0  0.91622  0.47678  0.71916  1.0000 -0.1233634934
C   C35       1.0  0.11216  0.52322  0.28084  1.0000 -0.1233634934
C   C36       1.0  0.28084  0.11216  0.52322  1.0000 -0.1233634934
C   C37       1.0  0.11216  0.28084  0.08378  1.0000 -0.1233634934
C   C38       1.0  0.08378  0.28084  0.52322  1.0000 -0.1233634934
C   C39       1.0  0.52322  0.08378  0.28084  1.0000 -0.1233634934
C   C40       1.0  0.52322  0.11216  0.08378  1.0000 -0.1233634934
C   C41       1.0  0.28084  0.08378  0.11216  1.0000 -0.1233634934
C   C42       1.0  0.08378  0.52322  0.11216  1.0000 -0.1233634934
C   C43       1.0  0.47678  0.71916  0.91622  1.0000 -0.1233634934
C   C44       1.0  0.71916  0.47678  0.88784  1.0000 -0.1233634934
C   C45       1.0  0.91622  0.71916  0.88784  1.0000 -0.1233634934
C   C46       1.0  0.47678  0.88784  0.71916  1.0000 -0.1233634934
C   C47       1.0  0.47678  0.91622  0.88784  1.0000 -0.1233634934
C   C48       1.0  0.88784  0.71916  0.47678  1.0000 -0.1233634934
C   C49       1.0  0.52499  0.22041  0.13277  1.0000 0.0261300106
C   C50       1.0  0.87817  0.86723  0.47501  1.0000 0.0261300106
C   C51       1.0  0.22041  0.52499  0.12183  1.0000 0.0261300106
C   C52       1.0  0.86723  0.87817  0.77959  1.0000 0.0261300106
C   C53       1.0  0.77959  0.87817  0.47501  1.0000 0.0261300106
C   C54       1.0  0.12183  0.13277  0.22041  1.0000 0.0261300106
C   C55       1.0  0.86723  0.47501  0.87817  1.0000 0.0261300106
C   C56       1.0  0.77959  0.86723  0.87817  1.0000 0.0261300106
C   C57       1.0  0.13277  0.12183  0.52499  1.0000 0.0261300106
C   C58       1.0  0.87817  0.47501  0.77959  1.0000 0.0261300106
C   C59       1.0  0.13277  0.52499  0.22041  1.0000 0.0261300106
C   C60       1.0  0.22041  0.13277  0.52499  1.0000 0.0261300106
C   C61       1.0  0.13277  0.22041  0.12183  1.0000 0.0261300106
C   C62       1.0  0.12183  0.22041  0.52499  1.0000 0.0261300106
C   C63       1.0  0.52499  0.12183  0.22041  1.0000 0.0261300106
C   C64       1.0  0.52499  0.13277  0.12183  1.0000 0.0261300106
C   C65       1.0  0.22041  0.12183  0.13277  1.0000 0.0261300106
C   C66       1.0  0.12183  0.52499  0.13277  1.0000 0.0261300106
C   C67       1.0  0.47501  0.77959  0.87817  1.0000 0.0261300106
C   C68       1.0  0.77959  0.47501  0.86723  1.0000 0.0261300106
C   C69       1.0  0.87817  0.77959  0.86723  1.0000 0.0261300106
C   C70       1.0  0.47501  0.86723  0.77959  1.0000 0.0261300106
C   C71       1.0  0.47501  0.87817  0.86723  1.0000 0.0261300106
C   C72       1.0  0.86723  0.77959  0.47501  1.0000 0.0261300106
C   C73       1.0  0.52903  0.19733  0.09217  1.0000 0.0453450483
C   C74       1.0  0.81853  0.90783  0.47097  1.0000 0.0453450483
C   C75       1.0  0.19733  0.52903  0.18147  1.0000 0.0443587616
C   C76       1.0  0.90783  0.81853  0.80267  1.0000 0.0453450483
C   C77       1.0  0.80267  0.81853  0.47097  1.0000 0.0453450483
C   C78       1.0  0.18147  0.09217  0.19733  1.0000 0.0443587616
C   C79       1.0  0.90783  0.47097  0.81853  1.0000 0.0453450483
C   C80       1.0  0.80267  0.90783  0.81853  1.0000 0.0453450483
C   C81       1.0  0.09217  0.18147  0.52903  1.0000 0.0453450483
C   C82       1.0  0.81853  0.47097  0.80267  1.0000 0.0453450483
C   C83       1.0  0.09217  0.52903  0.19733  1.0000 0.0443587616
C   C84       1.0  0.19733  0.09217  0.52903  1.0000 0.0453450483
C   C85       1.0  0.09217  0.19733  0.18147  1.0000 0.0443587616
C   C86       1.0  0.18147  0.19733  0.52903  1.0000 0.0453450483
C   C87       1.0  0.52903  0.18147  0.19733  1.0000 0.0453450483
C   C88       1.0  0.52903  0.09217  0.18147  1.0000 0.0453450483
C   C89       1.0  0.19733  0.18147  0.09217  1.0000 0.0443587616
C   C90       1.0  0.18147  0.52903  0.09217  1.0000 0.0443587616
C   C91       1.0  0.47097  0.80267  0.81853  1.0000 0.0453450483
C   C92       1.0  0.80267  0.47097  0.90783  1.0000 0.0453450483
C   C93       1.0  0.81853  0.80267  0.90783  1.0000 0.0453450483
C   C94       1.0  0.47097  0.90783  0.80267  1.0000 0.0453450483
C   C95       1.0  0.47097  0.81853  0.90783  1.0000 0.0453450483
C   C96       1.0  0.90783  0.80267  0.47097  1.0000 0.0453450483
C   C97       1.0  0.53085  0.23629  0.03067  1.0000 -0.1567160435
C   C98       1.0  0.79781  0.96933  0.46915  1.0000 -0.1567160435
C   C99       1.0  0.23629  0.53085  0.20219  1.0000 -0.1567160435
C   C100      1.0  0.96933  0.79781  0.76371  1.0000 -0.1567160435
C   C101      1.0  0.76371  0.79781  0.46915  1.0000 -0.1567160435
C   C102      1.0  0.20219  0.03067  0.23629  1.0000 -0.1567160435
C   C103      1.0  0.96933  0.46915  0.79781  1.0000 -0.1567160435
C   C104      1.0  0.76371  0.96933  0.79781  1.0000 -0.1567160435
C   C105      1.0  0.03067  0.20219  0.53085  1.0000 -0.1567160435
C   C106      1.0  0.79781  0.46915  0.76371  1.0000 -0.1567160435
C   C107      1.0  0.03067  0.53085  0.23629  1.0000 -0.1567160435
C   C108      1.0  0.23629  0.03067  0.53085  1.0000 -0.1567160435
C   C109      1.0  0.03067  0.23629  0.20219  1.0000 -0.1567160435
C   C110      1.0  0.20219  0.23629  0.53085  1.0000 -0.1567160435
C   C111      1.0  0.53085  0.20219  0.23629  1.0000 -0.1567160435
C   C112      1.0  0.53085  0.03067  0.20219  1.0000 -0.1567160435
C   C113      1.0  0.23629  0.20219  0.03067  1.0000 -0.1567160435
C   C114      1.0  0.20219  0.53085  0.03067  1.0000 -0.1567160435
C   C115      1.0  0.46915  0.76371  0.79781  1.0000 -0.1567160435
C   C116      1.0  0.76371  0.46915  0.96933  1.0000 -0.1567160435
C   C117      1.0  0.79781  0.76371  0.96933  1.0000 -0.1567160435
C   C118      1.0  0.46915  0.96933  0.76371  1.0000 -0.1567160435
C   C119      1.0  0.46915  0.79781  0.96933  1.0000 -0.1567160435
C   C120      1.0  0.96933  0.76371  0.46915  1.0000 -0.1567160435
C   C121      1.0  0.52796  0.29732  0.01124  1.0000 -0.0871142169
C   C122      1.0  0.83652  0.98876  0.47204  1.0000 -0.0871142169
C   C123      1.0  0.29732  0.52796  0.16348  1.0000 -0.0871142169
C   C124      1.0  0.98876  0.83652  0.70268  1.0000 -0.0871142169
C   C125      1.0  0.70268  0.83652  0.47204  1.0000 -0.0871142169
C   C126      1.0  0.16348  0.01124  0.29732  1.0000 -0.0871142169
C   C127      1.0  0.98876  0.47204  0.83652  1.0000 -0.0871142169
C   C128      1.0  0.70268  0.98876  0.83652  1.0000 -0.0871142169
C   C129      1.0  0.01124  0.16348  0.52796  1.0000 -0.0871142169
C   C130      1.0  0.83652  0.47204  0.70268  1.0000 -0.0871142169
C   C131      1.0  0.01124  0.52796  0.29732  1.0000 -0.0871142169
C   C132      1.0  0.29732  0.01124  0.52796  1.0000 -0.0871142169
C   C133      1.0  0.01124  0.29732  0.16348  1.0000 -0.0871142169
C   C134      1.0  0.16348  0.29732  0.52796  1.0000 -0.0871142169
C   C135      1.0  0.52796  0.16348  0.29732  1.0000 -0.0871142169
C   C136      1.0  0.52796  0.01124  0.16348  1.0000 -0.0871142169
C   C137      1.0  0.29732  0.16348  0.01124  1.0000 -0.0871142169
C   C138      1.0  0.16348  0.52796  0.01124  1.0000 -0.0871142169
C   C139      1.0  0.47204  0.70268  0.83652  1.0000 -0.0871142169
C   C140      1.0  0.70268  0.47204  0.98876  1.0000 -0.0871142169
C   C141      1.0  0.83652  0.70268  0.98876  1.0000 -0.0871142169
C   C142      1.0  0.47204  0.98876  0.70268  1.0000 -0.0871142169
C   C143      1.0  0.47204  0.83652  0.98876  1.0000 -0.0871142169
C   C144      1.0  0.98876  0.70268  0.47204  1.0000 -0.0871142169
C   C145      1.0  0.52040  0.38440  0.03040  1.0000 0.5693074976
C   C146      1.0  0.93520  0.96960  0.47960  1.0000 0.5693074976
C   C147      1.0  0.38440  0.52040  0.06480  1.0000 0.5693074976
C   C148      1.0  0.96960  0.93520  0.61560  1.0000 0.5693074976
C   C149      1.0  0.61560  0.93520  0.47960  1.0000 0.5693074976
C   C150      1.0  0.06480  0.03040  0.38440  1.0000 0.5693074976
C   C151      1.0  0.96960  0.47960  0.93520  1.0000 0.5693074976
C   C152      1.0  0.61560  0.96960  0.93520  1.0000 0.5693074976
C   C153      1.0  0.03040  0.06480  0.52040  1.0000 0.5693074976
C   C154      1.0  0.93520  0.47960  0.61560  1.0000 0.5693074976
C   C155      1.0  0.03040  0.52040  0.38440  1.0000 0.5693074976
C   C156      1.0  0.38440  0.03040  0.52040  1.0000 0.5693074976
C   C157      1.0  0.03040  0.38440  0.06480  1.0000 0.5693074976
C   C158      1.0  0.06480  0.38440  0.52040  1.0000 0.5693074976
C   C159      1.0  0.52040  0.06480  0.38440  1.0000 0.5693074976
C   C160      1.0  0.52040  0.03040  0.06480  1.0000 0.5693074976
C   C161      1.0  0.38440  0.06480  0.03040  1.0000 0.5693074976
C   C162      1.0  0.06480  0.52040  0.03040  1.0000 0.5693074976
C   C163      1.0  0.47960  0.61560  0.93520  1.0000 0.5693074976
C   C164      1.0  0.61560  0.47960  0.96960  1.0000 0.5693074976
C   C165      1.0  0.93520  0.61560  0.96960  1.0000 0.5693074976
C   C166      1.0  0.47960  0.96960  0.61560  1.0000 0.5693074976
C   C167      1.0  0.47960  0.93520  0.96960  1.0000 0.5693074976
C   C168      1.0  0.96960  0.61560  0.47960  1.0000 0.5693074976
O   O1        1.0  0.51585  0.41191  0.97833  1.0000 -0.4580374706
O   O2        1.0  0.90609  0.02167  0.48415  1.0000 -0.4580374706
O   O3        1.0  0.41191  0.51585  0.09391  1.0000 -0.4580374706
O   O4        1.0  0.02167  0.90609  0.58809  1.0000 -0.4580374706
O   O5        1.0  0.58809  0.90609  0.48415  1.0000 -0.4580374706
O   O6        1.0  0.09391  0.97833  0.41191  1.0000 -0.4580374706
O   O7        1.0  0.02167  0.48415  0.90609  1.0000 -0.4580374706
O   O8        1.0  0.58809  0.02167  0.90609  1.0000 -0.4580374706
O   O9        1.0  0.97833  0.09391  0.51585  1.0000 -0.4580374706
O   O10       1.0  0.90609  0.48415  0.58809  1.0000 -0.4580374706
O   O11       1.0  0.97833  0.51585  0.41191  1.0000 -0.4580374706
O   O12       1.0  0.41191  0.97833  0.51585  1.0000 -0.4580374706
O   O13       1.0  0.97833  0.41191  0.09391  1.0000 -0.4580374706
O   O14       1.0  0.09391  0.41191  0.51585  1.0000 -0.4580374706
O   O15       1.0  0.51585  0.09391  0.41191  1.0000 -0.4580374706
O   O16       1.0  0.51585  0.97833  0.09391  1.0000 -0.4580374706
O   O17       1.0  0.41191  0.09391  0.97833  1.0000 -0.4580374706
O   O18       1.0  0.09391  0.51585  0.97833  1.0000 -0.4580374706
O   O19       1.0  0.48415  0.58809  0.90609  1.0000 -0.4580374706
O   O20       1.0  0.58809  0.48415  0.02167  1.0000 -0.4580374706
O   O21       1.0  0.90609  0.58809  0.02167  1.0000 -0.4580374706
O   O22       1.0  0.48415  0.02167  0.58809  1.0000 -0.4580374706
O   O23       1.0  0.48415  0.90609  0.02167  1.0000 -0.4580374706
O   O24       1.0  0.02167  0.58809  0.48415  1.0000 -0.4580374706
O   O25       1.0  0.51633  0.40257  0.06715  1.0000 -0.5334732966
O   O26       1.0  0.98605  0.93285  0.48367  1.0000 -0.5334732966
O   O27       1.0  0.40257  0.51633  0.01395  1.0000 -0.5334732966
O   O28       1.0  0.93285  0.98605  0.59743  1.0000 -0.5334732966
O   O29       1.0  0.59743  0.98605  0.48367  1.0000 -0.5334732966
O   O30       1.0  0.01395  0.06715  0.40257  1.0000 -0.5334732966
O   O31       1.0  0.93285  0.48367  0.98605  1.0000 -0.5334732966
O   O32       1.0  0.59743  0.93285  0.98605  1.0000 -0.5334732966
O   O33       1.0  0.06715  0.01395  0.51633  1.0000 -0.5334732966
O   O34       1.0  0.98605  0.48367  0.59743  1.0000 -0.5334732966
O   O35       1.0  0.06715  0.51633  0.40257  1.0000 -0.5334732966
O   O36       1.0  0.40257  0.06715  0.51633  1.0000 -0.5334732966
O   O37       1.0  0.06715  0.40257  0.01395  1.0000 -0.5334732966
O   O38       1.0  0.01395  0.40257  0.51633  1.0000 -0.5334732966
O   O39       1.0  0.51633  0.01395  0.40257  1.0000 -0.5334732966
O   O40       1.0  0.51633  0.06715  0.01395  1.0000 -0.5334732966
O   O41       1.0  0.40257  0.01395  0.06715  1.0000 -0.5334732966
O   O42       1.0  0.01395  0.51633  0.06715  1.0000 -0.5334732966
O   O43       1.0  0.48367  0.59743  0.98605  1.0000 -0.5334732966
O   O44       1.0  0.59743  0.48367  0.93285  1.0000 -0.5334732966
O   O45       1.0  0.98605  0.59743  0.93285  1.0000 -0.5334732966
O   O46       1.0  0.48367  0.93285  0.59743  1.0000 -0.5334732966
O   O47       1.0  0.48367  0.98605  0.93285  1.0000 -0.5334732966
O   O48       1.0  0.93285  0.59743  0.48367  1.0000 -0.5334732966
