# DDEC6 charges by PACMAN v1.1 (https://github.com/mtap-research/PACMAN-charge/)
data_2009[Cd][nuc]3[ASR]4
_chemical_formula_sum              "Cd4 H144 C192 N48"
_cell_length_a       15.8267
_cell_length_b       15.8267
_cell_length_c       21.778
_cell_angle_alpha    90
_cell_angle_beta     90
_cell_angle_gamma    90

_symmetry_space_group_name_H-M    "P 1"
_symmetry_Int_Tables_number       1

loop_
  _symmetry_equiv_pos_as_xyz
  'x, y, z'

loop_
  _atom_site_type_symbol
  _atom_site_label
  _atom_site_symmetry_multiplicity
  _atom_site_fract_x
  _atom_site_fract_y
  _atom_site_fract_z
  _atom_site_occupancy
  _atom_site_charge
Cd  Cd1       1.0  0.93988  0.06012  0.75000  1.0000 0.6419040867
Cd  Cd2       1.0  0.06012  0.93988  0.25000  1.0000 0.6419040867
Cd  Cd3       1.0  0.43988  0.43988  0.50000  1.0000 0.6419040867
Cd  Cd4       1.0  0.56012  0.56012  0.00000  1.0000 0.6419040867
H   H1        1.0  0.64070  0.73130  0.95760  1.0000 0.0983922737
H   H2        1.0  0.35930  0.26870  0.45760  1.0000 0.0983922737
H   H3        1.0  0.76870  0.14070  0.70760  1.0000 0.0983922737
H   H4        1.0  0.23130  0.85930  0.20760  1.0000 0.0983922737
H   H5        1.0  0.85930  0.23130  0.79240  1.0000 0.0983922737
H   H6        1.0  0.14070  0.76870  0.29240  1.0000 0.0983922737
H   H7        1.0  0.73130  0.64070  0.04240  1.0000 0.0983922737
H   H8        1.0  0.26870  0.35930  0.54240  1.0000 0.0983922737
H   H9        1.0  0.73670  0.79060  0.89350  1.0000 0.1277934358
H   H10       1.0  0.26330  0.20940  0.39350  1.0000 0.1277934358
H   H11       1.0  0.70940  0.23670  0.64350  1.0000 0.1277934358
H   H12       1.0  0.29060  0.76330  0.14350  1.0000 0.1277934358
H   H13       1.0  0.76330  0.29060  0.85650  1.0000 0.1277934358
H   H14       1.0  0.23670  0.70940  0.35650  1.0000 0.1277934358
H   H15       1.0  0.79060  0.73670  0.10650  1.0000 0.1277934358
H   H16       1.0  0.20940  0.26330  0.60650  1.0000 0.1277934358
H   H17       1.0  0.71390  0.58700  0.78500  1.0000 0.1277934358
H   H18       1.0  0.28610  0.41300  0.28500  1.0000 0.1277934358
H   H19       1.0  0.91300  0.21390  0.53500  1.0000 0.1277934358
H   H20       1.0  0.08700  0.78610  0.03500  1.0000 0.1277934358
H   H21       1.0  0.78610  0.08700  0.96500  1.0000 0.1277934358
H   H22       1.0  0.21390  0.91300  0.46500  1.0000 0.1277934358
H   H23       1.0  0.58700  0.71390  0.21500  1.0000 0.1277934358
H   H24       1.0  0.41300  0.28610  0.71500  1.0000 0.1277934358
H   H25       1.0  0.61470  0.53620  0.85160  1.0000 0.0983922737
H   H26       1.0  0.38530  0.46380  0.35160  1.0000 0.0983922737
H   H27       1.0  0.96380  0.11470  0.60160  1.0000 0.0983922737
H   H28       1.0  0.03620  0.88530  0.10160  1.0000 0.0983922737
H   H29       1.0  0.88530  0.03620  0.89840  1.0000 0.0983922737
H   H30       1.0  0.11470  0.96380  0.39840  1.0000 0.0983922737
H   H31       1.0  0.53620  0.61470  0.14840  1.0000 0.0983922737
H   H32       1.0  0.46380  0.38530  0.64840  1.0000 0.0983922737
H   H33       1.0  0.79420  0.65720  0.71790  1.0000 0.0983922737
H   H34       1.0  0.20580  0.34280  0.21790  1.0000 0.0983922737
H   H35       1.0  0.84280  0.29420  0.46790  1.0000 0.0983922737
H   H36       1.0  0.15720  0.70580  0.96790  1.0000 0.0983922737
H   H37       1.0  0.70580  0.15720  0.03210  1.0000 0.0983922737
H   H38       1.0  0.29420  0.84280  0.53210  1.0000 0.0983922737
H   H39       1.0  0.65720  0.79420  0.28210  1.0000 0.0983922737
H   H40       1.0  0.34280  0.20580  0.78210  1.0000 0.0983922737
H   H41       1.0  0.90830  0.70810  0.66370  1.0000 0.110180016
H   H42       1.0  0.09170  0.29190  0.16370  1.0000 0.110180016
H   H43       1.0  0.79190  0.40830  0.41370  1.0000 0.110180016
H   H44       1.0  0.20810  0.59170  0.91370  1.0000 0.110180016
H   H45       1.0  0.59170  0.20810  0.08630  1.0000 0.110180016
H   H46       1.0  0.40830  0.79190  0.58630  1.0000 0.110180016
H   H47       1.0  0.70810  0.90830  0.33630  1.0000 0.110180016
H   H48       1.0  0.29190  0.09170  0.83630  1.0000 0.110180016
H   H49       1.0  0.00190  0.80140  0.70810  1.0000 0.110180016
H   H50       1.0  0.99810  0.19860  0.20810  1.0000 0.110180016
H   H51       1.0  0.69860  0.50190  0.45810  1.0000 0.110180016
H   H52       1.0  0.30140  0.49810  0.95810  1.0000 0.110180016
H   H53       1.0  0.49810  0.30140  0.04190  1.0000 0.110180016
H   H54       1.0  0.50190  0.69860  0.54190  1.0000 0.110180016
H   H55       1.0  0.80140  0.00190  0.29190  1.0000 0.110180016
H   H56       1.0  0.19860  0.99810  0.79190  1.0000 0.110180016
H   H57       1.0  0.86000  0.80380  0.86040  1.0000 0.110180016
H   H58       1.0  0.14000  0.19620  0.36040  1.0000 0.110180016
H   H59       1.0  0.69620  0.36000  0.61040  1.0000 0.110180016
H   H60       1.0  0.30380  0.64000  0.11040  1.0000 0.110180016
H   H61       1.0  0.64000  0.30380  0.88960  1.0000 0.110180016
H   H62       1.0  0.36000  0.69620  0.38960  1.0000 0.110180016
H   H63       1.0  0.80380  0.86000  0.13960  1.0000 0.110180016
H   H64       1.0  0.19620  0.14000  0.63960  1.0000 0.110180016
H   H65       1.0  0.12080  0.04610  0.95770  1.0000 0.110180016
H   H66       1.0  0.87920  0.95390  0.45770  1.0000 0.110180016
H   H67       1.0  0.45390  0.62080  0.70770  1.0000 0.110180016
H   H68       1.0  0.54610  0.37920  0.20770  1.0000 0.110180016
H   H69       1.0  0.37920  0.54610  0.79230  1.0000 0.110180016
H   H70       1.0  0.62080  0.45390  0.29230  1.0000 0.110180016
H   H71       1.0  0.04610  0.12080  0.04230  1.0000 0.110180016
H   H72       1.0  0.95390  0.87920  0.54230  1.0000 0.110180016
H   H73       1.0  0.23240  0.06870  0.02280  1.0000 0.110180016
H   H74       1.0  0.76760  0.93130  0.52280  1.0000 0.110180016
H   H75       1.0  0.43130  0.73240  0.77280  1.0000 0.110180016
H   H76       1.0  0.56870  0.26760  0.27280  1.0000 0.110180016
H   H77       1.0  0.26760  0.56870  0.72720  1.0000 0.110180016
H   H78       1.0  0.73240  0.43130  0.22720  1.0000 0.110180016
H   H79       1.0  0.06870  0.23240  0.97720  1.0000 0.110180016
H   H80       1.0  0.93130  0.76760  0.47720  1.0000 0.110180016
H   H81       1.0  0.33880  0.97010  0.03080  1.0000 0.1154269435
H   H82       1.0  0.66120  0.02990  0.53080  1.0000 0.1154269435
H   H83       1.0  0.52990  0.83880  0.78080  1.0000 0.1154269435
H   H84       1.0  0.47010  0.16120  0.28080  1.0000 0.1154269435
H   H85       1.0  0.16120  0.47010  0.71920  1.0000 0.1154269435
H   H86       1.0  0.83880  0.52990  0.21920  1.0000 0.1154269435
H   H87       1.0  0.97010  0.33880  0.96920  1.0000 0.1154269435
H   H88       1.0  0.02990  0.66120  0.46920  1.0000 0.1154269435
H   H89       1.0  0.22450  0.82820  0.90290  1.0000 0.110180016
H   H90       1.0  0.77550  0.17180  0.40290  1.0000 0.110180016
H   H91       1.0  0.67180  0.72450  0.65290  1.0000 0.110180016
H   H92       1.0  0.32820  0.27550  0.15290  1.0000 0.110180016
H   H93       1.0  0.27550  0.32820  0.84710  1.0000 0.110180016
H   H94       1.0  0.72450  0.67180  0.34710  1.0000 0.110180016
H   H95       1.0  0.82820  0.22450  0.09710  1.0000 0.110180016
H   H96       1.0  0.17180  0.77550  0.59710  1.0000 0.110180016
H   H97       1.0  0.40280  0.85380  0.05900  1.0000 0.1277934358
H   H98       1.0  0.59720  0.14620  0.55900  1.0000 0.1277934358
H   H99       1.0  0.64620  0.90280  0.80900  1.0000 0.1277934358
H   H100      1.0  0.35380  0.09720  0.30900  1.0000 0.1277934358
H   H101      1.0  0.09720  0.35380  0.69100  1.0000 0.1277934358
H   H102      1.0  0.90280  0.64620  0.19100  1.0000 0.1277934358
H   H103      1.0  0.85380  0.40280  0.94100  1.0000 0.1277934358
H   H104      1.0  0.14620  0.59720  0.44100  1.0000 0.1277934358
H   H105      1.0  0.49450  0.74250  0.07010  1.0000 0.0983922737
H   H106      1.0  0.50550  0.25750  0.57010  1.0000 0.0983922737
H   H107      1.0  0.75750  0.99450  0.82010  1.0000 0.0983922737
H   H108      1.0  0.24250  0.00550  0.32010  1.0000 0.0983922737
H   H109      1.0  0.00550  0.24250  0.67990  1.0000 0.0983922737
H   H110      1.0  0.99450  0.75750  0.17990  1.0000 0.0983922737
H   H111      1.0  0.74250  0.49450  0.92990  1.0000 0.0983922737
H   H112      1.0  0.25750  0.50550  0.42990  1.0000 0.0983922737
H   H113      1.0  0.44200  0.66000  0.90770  1.0000 0.0983922737
H   H114      1.0  0.55800  0.34000  0.40770  1.0000 0.0983922737
H   H115      1.0  0.84000  0.94200  0.65770  1.0000 0.0983922737
H   H116      1.0  0.16000  0.05800  0.15770  1.0000 0.0983922737
H   H117      1.0  0.05800  0.16000  0.84230  1.0000 0.0983922737
H   H118      1.0  0.94200  0.84000  0.34230  1.0000 0.0983922737
H   H119      1.0  0.66000  0.44200  0.09230  1.0000 0.0983922737
H   H120      1.0  0.34000  0.55800  0.59230  1.0000 0.0983922737
H   H121      1.0  0.34840  0.76740  0.89160  1.0000 0.1277934358
H   H122      1.0  0.65160  0.23260  0.39160  1.0000 0.1277934358
H   H123      1.0  0.73260  0.84840  0.64160  1.0000 0.1277934358
H   H124      1.0  0.26740  0.15160  0.14160  1.0000 0.1277934358
H   H125      1.0  0.15160  0.26740  0.85840  1.0000 0.1277934358
H   H126      1.0  0.84840  0.73260  0.35840  1.0000 0.1277934358
H   H127      1.0  0.76740  0.34840  0.10840  1.0000 0.1277934358
H   H128      1.0  0.23260  0.65160  0.60840  1.0000 0.1277934358
H   H129      1.0  0.02610  0.75850  0.89770  1.0000 0.2492378679
H   H130      1.0  0.97390  0.24150  0.39770  1.0000 0.2492378679
H   H131      1.0  0.74150  0.52610  0.64770  1.0000 0.2492378679
H   H132      1.0  0.25850  0.47390  0.14770  1.0000 0.2492378679
H   H133      1.0  0.47390  0.25850  0.85230  1.0000 0.2492378679
H   H134      1.0  0.52610  0.74150  0.35230  1.0000 0.2492378679
H   H135      1.0  0.75850  0.02610  0.10230  1.0000 0.2492378679
H   H136      1.0  0.24150  0.97390  0.60230  1.0000 0.2492378679
H   H137      1.0  0.09700  0.74380  0.84620  1.0000 0.2492378679
H   H138      1.0  0.90300  0.25620  0.34620  1.0000 0.2492378679
H   H139      1.0  0.75620  0.59700  0.59620  1.0000 0.2492378679
H   H140      1.0  0.24380  0.40300  0.09620  1.0000 0.2492378679
H   H141      1.0  0.40300  0.24380  0.90380  1.0000 0.2492378679
H   H142      1.0  0.59700  0.75620  0.40380  1.0000 0.2492378679
H   H143      1.0  0.74380  0.09700  0.15380  1.0000 0.2492378679
H   H144      1.0  0.25620  0.90300  0.65380  1.0000 0.2492378679
C   C1        1.0  0.65680  0.70120  0.92278  1.0000 0.0331896514
C   C2        1.0  0.34320  0.29880  0.42278  1.0000 0.0331896514
C   C3        1.0  0.79880  0.15680  0.67278  1.0000 0.0331896514
C   C4        1.0  0.20120  0.84320  0.17278  1.0000 0.0331896514
C   C5        1.0  0.84320  0.20120  0.82722  1.0000 0.0331896514
C   C6        1.0  0.15680  0.79880  0.32722  1.0000 0.0331896514
C   C7        1.0  0.70120  0.65680  0.07722  1.0000 0.0331896514
C   C8        1.0  0.29880  0.34320  0.57722  1.0000 0.0331896514
C   C9        1.0  0.71530  0.73720  0.88476  1.0000 -0.2107967621
C   C10       1.0  0.28470  0.26280  0.38476  1.0000 -0.2107967621
C   C11       1.0  0.76280  0.21530  0.63476  1.0000 -0.2107967621
C   C12       1.0  0.23720  0.78470  0.13476  1.0000 -0.2107967621
C   C13       1.0  0.78470  0.23720  0.86524  1.0000 -0.2107967621
C   C14       1.0  0.21530  0.76280  0.36524  1.0000 -0.2107967621
C   C15       1.0  0.73720  0.71530  0.11524  1.0000 -0.2107967621
C   C16       1.0  0.26280  0.28470  0.61524  1.0000 -0.2107967621
C   C17       1.0  0.74270  0.69380  0.83315  1.0000 0.110180016
C   C18       1.0  0.25730  0.30620  0.33315  1.0000 0.110180016
C   C19       1.0  0.80620  0.24270  0.58315  1.0000 0.110180016
C   C20       1.0  0.19380  0.75730  0.08315  1.0000 0.110180016
C   C21       1.0  0.75730  0.19380  0.91685  1.0000 0.110180016
C   C22       1.0  0.24270  0.80620  0.41685  1.0000 0.110180016
C   C23       1.0  0.69380  0.74270  0.16685  1.0000 0.110180016
C   C24       1.0  0.30620  0.25730  0.66685  1.0000 0.110180016
C   C25       1.0  0.70120  0.61710  0.82056  1.0000 -0.2107967621
C   C26       1.0  0.29880  0.38290  0.32056  1.0000 -0.2107967621
C   C27       1.0  0.88290  0.20120  0.57056  1.0000 -0.2107967621
C   C28       1.0  0.11710  0.79880  0.07056  1.0000 -0.2107967621
C   C29       1.0  0.79880  0.11710  0.92944  1.0000 -0.2107967621
C   C30       1.0  0.20120  0.88290  0.42944  1.0000 -0.2107967621
C   C31       1.0  0.61710  0.70120  0.17944  1.0000 -0.2107967621
C   C32       1.0  0.38290  0.29880  0.67944  1.0000 -0.2107967621
C   C33       1.0  0.64180  0.58660  0.86111  1.0000 0.0521271218
C   C34       1.0  0.35820  0.41340  0.36111  1.0000 0.0521271218
C   C35       1.0  0.91340  0.14180  0.61111  1.0000 0.0521271218
C   C36       1.0  0.08660  0.85820  0.11111  1.0000 0.0521271218
C   C37       1.0  0.85820  0.08660  0.88889  1.0000 0.0521271218
C   C38       1.0  0.14180  0.91340  0.38889  1.0000 0.0521271218
C   C39       1.0  0.58660  0.64180  0.13889  1.0000 0.0521271218
C   C40       1.0  0.41340  0.35820  0.63889  1.0000 0.0521271218
C   C41       1.0  0.81420  0.72490  0.79574  1.0000 0.0692923813
C   C42       1.0  0.18580  0.27510  0.29574  1.0000 0.0692923813
C   C43       1.0  0.77510  0.31420  0.54574  1.0000 0.0692923813
C   C44       1.0  0.22490  0.68580  0.04574  1.0000 0.0692923813
C   C45       1.0  0.68580  0.22490  0.95426  1.0000 0.0692923813
C   C46       1.0  0.31420  0.77510  0.45426  1.0000 0.0692923813
C   C47       1.0  0.72490  0.81420  0.20426  1.0000 0.0692923813
C   C48       1.0  0.27510  0.18580  0.70426  1.0000 0.0692923813
C   C49       1.0  0.83010  0.69650  0.73600  1.0000 -0.1687953986
C   C50       1.0  0.16990  0.30350  0.23600  1.0000 -0.1687953986
C   C51       1.0  0.80350  0.33010  0.48600  1.0000 -0.1687953986
C   C52       1.0  0.19650  0.66990  0.98600  1.0000 -0.1687953986
C   C53       1.0  0.66990  0.19650  0.01400  1.0000 -0.1687953986
C   C54       1.0  0.33010  0.80350  0.51400  1.0000 -0.1687953986
C   C55       1.0  0.69650  0.83010  0.26400  1.0000 -0.1687953986
C   C56       1.0  0.30350  0.16990  0.76400  1.0000 -0.1687953986
C   C57       1.0  0.89920  0.72650  0.70370  1.0000 -0.1030602419
C   C58       1.0  0.10080  0.27350  0.20370  1.0000 -0.1030602419
C   C59       1.0  0.77350  0.39920  0.45370  1.0000 -0.1030602419
C   C60       1.0  0.22650  0.60080  0.95370  1.0000 -0.1030602419
C   C61       1.0  0.60080  0.22650  0.04630  1.0000 -0.1030602419
C   C62       1.0  0.39920  0.77350  0.54630  1.0000 -0.1030602419
C   C63       1.0  0.72650  0.89920  0.29630  1.0000 -0.1030602419
C   C64       1.0  0.27350  0.10080  0.79630  1.0000 -0.1030602419
C   C65       1.0  0.95460  0.78330  0.72970  1.0000 -0.1687953986
C   C66       1.0  0.04540  0.21670  0.22970  1.0000 -0.1687953986
C   C67       1.0  0.71670  0.45460  0.47970  1.0000 -0.1687953986
C   C68       1.0  0.28330  0.54540  0.97970  1.0000 -0.1687953986
C   C69       1.0  0.54540  0.28330  0.02030  1.0000 -0.1687953986
C   C70       1.0  0.45460  0.71670  0.52030  1.0000 -0.1687953986
C   C71       1.0  0.78330  0.95460  0.27030  1.0000 -0.1687953986
C   C72       1.0  0.21670  0.04540  0.77030  1.0000 -0.1687953986
C   C73       1.0  0.93890  0.81320  0.78890  1.0000 0.0205035069
C   C74       1.0  0.06110  0.18680  0.28890  1.0000 0.0205035069
C   C75       1.0  0.68680  0.43890  0.53890  1.0000 0.0205035069
C   C76       1.0  0.31320  0.56110  0.03890  1.0000 0.0205035069
C   C77       1.0  0.56110  0.31320  0.96110  1.0000 0.0205035069
C   C78       1.0  0.43890  0.68680  0.46110  1.0000 0.0205035069
C   C79       1.0  0.81320  0.93890  0.21110  1.0000 0.0205035069
C   C80       1.0  0.18680  0.06110  0.71110  1.0000 0.0205035069
C   C81       1.0  0.86990  0.78380  0.82084  1.0000 -0.203974723
C   C82       1.0  0.13010  0.21620  0.32084  1.0000 -0.203974723
C   C83       1.0  0.71620  0.36990  0.57084  1.0000 -0.203974723
C   C84       1.0  0.28380  0.63010  0.07084  1.0000 -0.203974723
C   C85       1.0  0.63010  0.28380  0.92916  1.0000 -0.203974723
C   C86       1.0  0.36990  0.71620  0.42916  1.0000 -0.203974723
C   C87       1.0  0.78380  0.86990  0.17916  1.0000 -0.203974723
C   C88       1.0  0.21620  0.13010  0.67916  1.0000 -0.203974723
C   C89       1.0  0.99520  0.87490  0.81887  1.0000 0.1613584709
C   C90       1.0  0.00480  0.12510  0.31887  1.0000 0.1613584709
C   C91       1.0  0.62510  0.49520  0.56887  1.0000 0.1613584709
C   C92       1.0  0.37490  0.50480  0.06887  1.0000 0.1613584709
C   C93       1.0  0.50480  0.37490  0.93113  1.0000 0.1613584709
C   C94       1.0  0.49520  0.62510  0.43113  1.0000 0.1613584709
C   C95       1.0  0.87490  0.99520  0.18113  1.0000 0.1613584709
C   C96       1.0  0.12510  0.00480  0.68113  1.0000 0.1613584709
C   C97       1.0  0.09080  0.92540  0.88082  1.0000 0.1820588288
C   C98       1.0  0.90920  0.07460  0.38082  1.0000 0.1820588288
C   C99       1.0  0.57460  0.59080  0.63082  1.0000 0.1820588288
C   C100      1.0  0.42540  0.40920  0.13082  1.0000 0.1820588288
C   C101      1.0  0.40920  0.42540  0.86918  1.0000 0.1820588288
C   C102      1.0  0.59080  0.57460  0.36918  1.0000 0.1820588288
C   C103      1.0  0.92540  0.09080  0.11918  1.0000 0.1820588288
C   C104      1.0  0.07460  0.90920  0.61918  1.0000 0.1820588288
C   C105      1.0  0.16140  0.93370  0.92438  1.0000 0.0401789992
C   C106      1.0  0.83860  0.06630  0.42438  1.0000 0.0401789992
C   C107      1.0  0.56630  0.66140  0.67438  1.0000 0.0401789992
C   C108      1.0  0.43370  0.33860  0.17438  1.0000 0.0401789992
C   C109      1.0  0.33860  0.43370  0.82562  1.0000 0.0401789992
C   C110      1.0  0.66140  0.56630  0.32562  1.0000 0.0401789992
C   C111      1.0  0.93370  0.16140  0.07562  1.0000 0.0401789992
C   C112      1.0  0.06630  0.83860  0.57562  1.0000 0.0401789992
C   C113      1.0  0.16410  0.00660  0.96030  1.0000 -0.1609813358
C   C114      1.0  0.83590  0.99340  0.46030  1.0000 -0.1609813358
C   C115      1.0  0.49340  0.66410  0.71030  1.0000 -0.1609813358
C   C116      1.0  0.50660  0.33590  0.21030  1.0000 -0.1609813358
C   C117      1.0  0.33590  0.50660  0.78970  1.0000 -0.1609813358
C   C118      1.0  0.66410  0.49340  0.28970  1.0000 -0.1609813358
C   C119      1.0  0.00660  0.16410  0.03970  1.0000 -0.1609813358
C   C120      1.0  0.99340  0.83590  0.53970  1.0000 -0.1609813358
C   C121      1.0  0.23030  0.01980  0.99920  1.0000 -0.1104610638
C   C122      1.0  0.76970  0.98020  0.49920  1.0000 -0.1104610638
C   C123      1.0  0.48020  0.73030  0.74920  1.0000 -0.1104610638
C   C124      1.0  0.51980  0.26970  0.24920  1.0000 -0.1104610638
C   C125      1.0  0.26970  0.51980  0.75080  1.0000 -0.1104610638
C   C126      1.0  0.73030  0.48020  0.25080  1.0000 -0.1104610638
C   C127      1.0  0.01980  0.23030  0.00080  1.0000 -0.1104610638
C   C128      1.0  0.98020  0.76970  0.50080  1.0000 -0.1104610638
C   C129      1.0  0.29430  0.96080  0.00370  1.0000 -0.1609813358
C   C130      1.0  0.70570  0.03920  0.50370  1.0000 -0.1609813358
C   C131      1.0  0.53920  0.79430  0.75370  1.0000 -0.1609813358
C   C132      1.0  0.46080  0.20570  0.25370  1.0000 -0.1609813358
C   C133      1.0  0.20570  0.46080  0.74630  1.0000 -0.1609813358
C   C134      1.0  0.79430  0.53920  0.24630  1.0000 -0.1609813358
C   C135      1.0  0.96080  0.29430  0.99630  1.0000 -0.1609813358
C   C136      1.0  0.03920  0.70570  0.49630  1.0000 -0.1609813358
C   C137      1.0  0.29310  0.88790  0.96850  1.0000 0.0692923813
C   C138      1.0  0.70690  0.11210  0.46850  1.0000 0.0692923813
C   C139      1.0  0.61210  0.79310  0.71850  1.0000 0.0692923813
C   C140      1.0  0.38790  0.20690  0.21850  1.0000 0.0692923813
C   C141      1.0  0.20690  0.38790  0.78150  1.0000 0.0692923813
C   C142      1.0  0.79310  0.61210  0.28150  1.0000 0.0692923813
C   C143      1.0  0.88790  0.29310  0.03150  1.0000 0.0692923813
C   C144      1.0  0.11210  0.70690  0.53150  1.0000 0.0692923813
C   C145      1.0  0.22570  0.87590  0.92779  1.0000 -0.1930681012
C   C146      1.0  0.77430  0.12410  0.42779  1.0000 -0.1930681012
C   C147      1.0  0.62410  0.72570  0.67779  1.0000 -0.1930681012
C   C148      1.0  0.37590  0.27430  0.17779  1.0000 -0.1930681012
C   C149      1.0  0.27430  0.37590  0.82221  1.0000 -0.1930681012
C   C150      1.0  0.72570  0.62410  0.32221  1.0000 -0.1930681012
C   C151      1.0  0.87590  0.22570  0.07221  1.0000 -0.1930681012
C   C152      1.0  0.12410  0.77430  0.57221  1.0000 -0.1930681012
C   C153      1.0  0.36100  0.82180  0.97531  1.0000 0.110180016
C   C154      1.0  0.63900  0.17820  0.47531  1.0000 0.110180016
C   C155      1.0  0.67820  0.86100  0.72531  1.0000 0.110180016
C   C156      1.0  0.32180  0.13900  0.22531  1.0000 0.110180016
C   C157      1.0  0.13900  0.32180  0.77469  1.0000 0.110180016
C   C158      1.0  0.86100  0.67820  0.27469  1.0000 0.110180016
C   C159      1.0  0.82180  0.36100  0.02469  1.0000 0.110180016
C   C160      1.0  0.17820  0.63900  0.52469  1.0000 0.110180016
C   C161      1.0  0.40810  0.81420  0.02770  1.0000 -0.2107967621
C   C162      1.0  0.59190  0.18580  0.52770  1.0000 -0.2107967621
C   C163      1.0  0.68580  0.90810  0.77770  1.0000 -0.2107967621
C   C164      1.0  0.31420  0.09190  0.27770  1.0000 -0.2107967621
C   C165      1.0  0.09190  0.31420  0.72230  1.0000 -0.2107967621
C   C166      1.0  0.90810  0.68580  0.22230  1.0000 -0.2107967621
C   C167      1.0  0.81420  0.40810  0.97230  1.0000 -0.2107967621
C   C168      1.0  0.18580  0.59190  0.47230  1.0000 -0.2107967621
C   C169      1.0  0.46410  0.74710  0.03380  1.0000 0.0521271218
C   C170      1.0  0.53590  0.25290  0.53380  1.0000 0.0521271218
C   C171      1.0  0.75290  0.96410  0.78380  1.0000 0.0521271218
C   C172      1.0  0.24710  0.03590  0.28380  1.0000 0.0521271218
C   C173      1.0  0.03590  0.24710  0.71620  1.0000 0.0521271218
C   C174      1.0  0.96410  0.75290  0.21620  1.0000 0.0521271218
C   C175      1.0  0.74710  0.46410  0.96620  1.0000 0.0521271218
C   C176      1.0  0.25290  0.53590  0.46620  1.0000 0.0521271218
C   C177      1.0  0.43340  0.69890  0.93906  1.0000 0.0692923813
C   C178      1.0  0.56660  0.30110  0.43906  1.0000 0.0692923813
C   C179      1.0  0.80110  0.93340  0.68906  1.0000 0.0692923813
C   C180      1.0  0.19890  0.06660  0.18906  1.0000 0.0692923813
C   C181      1.0  0.06660  0.19890  0.81094  1.0000 0.0692923813
C   C182      1.0  0.93340  0.80110  0.31094  1.0000 0.0692923813
C   C183      1.0  0.69890  0.43340  0.06094  1.0000 0.0692923813
C   C184      1.0  0.30110  0.56660  0.56094  1.0000 0.0692923813
C   C185      1.0  0.37630  0.76320  0.92901  1.0000 -0.203974723
C   C186      1.0  0.62370  0.23680  0.42901  1.0000 -0.203974723
C   C187      1.0  0.73680  0.87630  0.67901  1.0000 -0.203974723
C   C188      1.0  0.26320  0.12370  0.17901  1.0000 -0.203974723
C   C189      1.0  0.12370  0.26320  0.82099  1.0000 -0.203974723
C   C190      1.0  0.87630  0.73680  0.32099  1.0000 -0.203974723
C   C191      1.0  0.76320  0.37630  0.07099  1.0000 -0.203974723
C   C192      1.0  0.23680  0.62370  0.57099  1.0000 -0.203974723
N   N1        1.0  0.05340  0.98931  0.85461  1.0000 -0.275759793
N   N2        1.0  0.94660  0.01069  0.35461  1.0000 -0.275759793
N   N3        1.0  0.51069  0.55340  0.60461  1.0000 -0.275759793
N   N4        1.0  0.48931  0.44660  0.10461  1.0000 -0.275759793
N   N5        1.0  0.44660  0.48931  0.89539  1.0000 -0.275759793
N   N6        1.0  0.55340  0.51069  0.39539  1.0000 -0.275759793
N   N7        1.0  0.98931  0.05340  0.14539  1.0000 -0.275759793
N   N8        1.0  0.01069  0.94660  0.64539  1.0000 -0.275759793
N   N9        1.0  0.99256  0.95708  0.81566  1.0000 -0.2303492326
N   N10       1.0  0.00744  0.04292  0.31566  1.0000 -0.2303492326
N   N11       1.0  0.54292  0.49256  0.56566  1.0000 -0.2303492326
N   N12       1.0  0.45708  0.50744  0.06566  1.0000 -0.2303492326
N   N13       1.0  0.50744  0.45708  0.93434  1.0000 -0.2303492326
N   N14       1.0  0.49256  0.54292  0.43434  1.0000 -0.2303492326
N   N15       1.0  0.95708  0.99256  0.18434  1.0000 -0.2303492326
N   N16       1.0  0.04292  0.00744  0.68434  1.0000 -0.2303492326
N   N17       1.0  0.05620  0.85252  0.85995  1.0000 0.0401789992
N   N18       1.0  0.94380  0.14748  0.35995  1.0000 0.0401789992
N   N19       1.0  0.64748  0.55620  0.60995  1.0000 0.0401789992
N   N20       1.0  0.35252  0.44380  0.10995  1.0000 0.0401789992
N   N21       1.0  0.44380  0.35252  0.89005  1.0000 0.0401789992
N   N22       1.0  0.55620  0.64748  0.39005  1.0000 0.0401789992
N   N23       1.0  0.85252  0.05620  0.14005  1.0000 0.0401789992
N   N24       1.0  0.14748  0.94380  0.64005  1.0000 0.0401789992
N   N25       1.0  0.07590  0.76980  0.87986  1.0000 -0.5291824034
N   N26       1.0  0.92410  0.23020  0.37986  1.0000 -0.5291824034
N   N27       1.0  0.73020  0.57590  0.62986  1.0000 -0.5291824034
N   N28       1.0  0.26980  0.42410  0.12986  1.0000 -0.5291824034
N   N29       1.0  0.42410  0.26980  0.87014  1.0000 -0.5291824034
N   N30       1.0  0.57590  0.73020  0.37014  1.0000 -0.5291824034
N   N31       1.0  0.76980  0.07590  0.12014  1.0000 -0.5291824034
N   N32       1.0  0.23020  0.92410  0.62014  1.0000 -0.5291824034
N   N33       1.0  0.47680  0.68900  0.99065  1.0000 -0.236906537
N   N34       1.0  0.52320  0.31100  0.49065  1.0000 -0.236906537
N   N35       1.0  0.81100  0.97680  0.74065  1.0000 -0.236906537
N   N36       1.0  0.18900  0.02320  0.24065  1.0000 -0.236906537
N   N37       1.0  0.02320  0.18900  0.75935  1.0000 -0.236906537
N   N38       1.0  0.97680  0.81100  0.25935  1.0000 -0.236906537
N   N39       1.0  0.68900  0.47680  0.00935  1.0000 -0.236906537
N   N40       1.0  0.31100  0.52320  0.50935  1.0000 -0.236906537
N   N41       1.0  0.62090  0.62580  0.91337  1.0000 -0.2303492326
N   N42       1.0  0.37910  0.37420  0.41337  1.0000 -0.2303492326
N   N43       1.0  0.87420  0.12090  0.66337  1.0000 -0.2303492326
N   N44       1.0  0.12580  0.87910  0.16337  1.0000 -0.2303492326
N   N45       1.0  0.87910  0.12580  0.83663  1.0000 -0.2303492326
N   N46       1.0  0.12090  0.87420  0.33663  1.0000 -0.2303492326
N   N47       1.0  0.62580  0.62090  0.08663  1.0000 -0.2303492326
N   N48       1.0  0.37420  0.37910  0.58663  1.0000 -0.2303492326
