# DDEC6 charges by PACMAN v1.1 (https://github.com/mtap-research/PACMAN-charge/)
data_2010[Cu][ins]3[ASR]1
_chemical_formula_sum              "Cu4 H24 C52 N12 O16"
_cell_length_a       4.713
_cell_length_b       26.797
_cell_length_c       11.101
_cell_angle_alpha    90
_cell_angle_beta     96.52
_cell_angle_gamma    90

_symmetry_space_group_name_H-M    "P 1"
_symmetry_Int_Tables_number       1

loop_
  _symmetry_equiv_pos_as_xyz
  'x, y, z'

loop_
  _atom_site_type_symbol
  _atom_site_label
  _atom_site_symmetry_multiplicity
  _atom_site_fract_x
  _atom_site_fract_y
  _atom_site_fract_z
  _atom_site_occupancy
  _atom_site_charge
Cu  Cu1       1.0  0.38800  0.81940  0.12000  1.0000 0.666975613
Cu  Cu2       1.0  0.61200  0.31940  0.38000  1.0000 0.666975613
Cu  Cu3       1.0  0.61200  0.18060  0.88000  1.0000 0.666975613
Cu  Cu4       1.0  0.38800  0.68060  0.62000  1.0000 0.666975613
H   H1        1.0  0.21400  0.70870  0.03630  1.0000 0.1279400395
H   H2        1.0  0.78600  0.20870  0.46370  1.0000 0.1279400395
H   H3        1.0  0.78600  0.29130  0.96370  1.0000 0.1279400395
H   H4        1.0  0.21400  0.79130  0.53630  1.0000 0.1279400395
H   H5        1.0  0.37590  0.63740  0.13530  1.0000 0.1169574813
H   H6        1.0  0.62410  0.13740  0.36470  1.0000 0.1169574813
H   H7        1.0  0.62410  0.36260  0.86470  1.0000 0.1169574813
H   H8        1.0  0.37590  0.86260  0.63530  1.0000 0.1169574813
H   H9        1.0  0.07990  0.89520  0.20930  1.0000 0.1169574813
H   H10       1.0  0.92010  0.39520  0.29070  1.0000 0.1169574813
H   H11       1.0  0.92010  0.10480  0.79070  1.0000 0.1169574813
H   H12       1.0  0.07990  0.60480  0.70930  1.0000 0.1169574813
H   H13       1.0  0.40860  0.89170  0.89810  1.0000 0.1055538313
H   H14       1.0  0.59140  0.39170  0.60190  1.0000 0.1055538313
H   H15       1.0  0.59140  0.10830  0.10190  1.0000 0.1055538313
H   H16       1.0  0.40860  0.60830  0.39810  1.0000 0.1055538313
H   H17       1.0  0.39280  0.96210  0.76160  1.0000 0.1279400395
H   H18       1.0  0.60720  0.46210  0.73840  1.0000 0.1279400395
H   H19       1.0  0.60720  0.03790  0.23840  1.0000 0.1279400395
H   H20       1.0  0.39280  0.53790  0.26160  1.0000 0.1279400395
H   H21       1.0  0.86470  0.96450  0.27690  1.0000 0.1279400395
H   H22       1.0  0.13530  0.46450  0.22310  1.0000 0.1279400395
H   H23       1.0  0.13530  0.03550  0.72310  1.0000 0.1279400395
H   H24       1.0  0.86470  0.53550  0.77690  1.0000 0.1279400395
C   C1        1.0  0.65090  0.80250  0.32080  1.0000 0.5093652265
C   C2        1.0  0.34910  0.30250  0.17920  1.0000 0.5093652265
C   C3        1.0  0.34910  0.19750  0.67920  1.0000 0.5093652265
C   C4        1.0  0.65090  0.69750  0.82080  1.0000 0.5093652265
C   C5        1.0  0.58630  0.75240  0.26870  1.0000 -0.0304297196
C   C6        1.0  0.41370  0.25240  0.23130  1.0000 -0.0304297196
C   C7        1.0  0.41370  0.24760  0.73130  1.0000 -0.0304297196
C   C8        1.0  0.58630  0.74760  0.76870  1.0000 -0.0304297196
C   C9        1.0  0.33460  0.71000  0.11090  1.0000 0.0905514391
C   C10       1.0  0.66540  0.21000  0.38910  1.0000 0.0905514391
C   C11       1.0  0.66540  0.29000  0.88910  1.0000 0.0905514391
C   C12       1.0  0.33460  0.79000  0.61090  1.0000 0.0905514391
C   C13       1.0  0.43340  0.66880  0.16970  1.0000 0.0012827488
C   C14       1.0  0.56660  0.16880  0.33030  1.0000 0.0012827488
C   C15       1.0  0.56660  0.33120  0.83030  1.0000 0.0012827488
C   C16       1.0  0.43340  0.83120  0.66970  1.0000 0.0012827488
C   C17       1.0  0.68520  0.71040  0.32350  1.0000 0.1033252956
C   C18       1.0  0.31480  0.21040  0.17650  1.0000 0.1033252956
C   C19       1.0  0.31480  0.28960  0.67650  1.0000 0.1033252956
C   C20       1.0  0.68520  0.78960  0.82350  1.0000 0.1033252956
C   C21       1.0  0.86840  0.70500  0.44230  1.0000 0.4953396873
C   C22       1.0  0.13160  0.20500  0.05770  1.0000 0.4953396873
C   C23       1.0  0.13160  0.29500  0.55770  1.0000 0.4953396873
C   C24       1.0  0.86840  0.79500  0.94230  1.0000 0.4953396873
C   C25       1.0  0.11300  0.91140  0.13610  1.0000 -0.0063014658
C   C26       1.0  0.88700  0.41140  0.36390  1.0000 -0.0063014658
C   C27       1.0  0.88700  0.08860  0.86390  1.0000 -0.0063014658
C   C28       1.0  0.11300  0.58860  0.63610  1.0000 -0.0063014658
C   C29       1.0  0.30590  0.90940  0.95330  1.0000 0.0012827488
C   C30       1.0  0.69410  0.40940  0.54670  1.0000 0.0012827488
C   C31       1.0  0.69410  0.09060  0.04670  1.0000 0.0012827488
C   C32       1.0  0.30590  0.59060  0.45330  1.0000 0.0012827488
C   C33       1.0  0.21450  0.95580  0.92490  1.0000 0.0012827488
C   C34       1.0  0.78550  0.45580  0.57510  1.0000 0.0012827488
C   C35       1.0  0.78550  0.04420  0.07510  1.0000 0.0012827488
C   C36       1.0  0.21450  0.54420  0.42490  1.0000 0.0012827488
C   C37       1.0  0.01390  0.95790  0.11490  1.0000 0.0133263845
C   C38       1.0  0.98610  0.45790  0.38510  1.0000 0.0133263845
C   C39       1.0  0.98610  0.04210  0.88510  1.0000 0.0133263845
C   C40       1.0  0.01390  0.54210  0.61490  1.0000 0.0133263845
C   C41       1.0  0.06310  0.98120  0.00780  1.0000 0.0322437429
C   C42       1.0  0.93690  0.48120  0.49220  1.0000 0.0322437429
C   C43       1.0  0.93690  0.01880  0.99220  1.0000 0.0322437429
C   C44       1.0  0.06310  0.51880  0.50780  1.0000 0.0322437429
C   C45       1.0  0.27290  0.97640  0.81560  1.0000 -0.1402698203
C   C46       1.0  0.72710  0.47640  0.68440  1.0000 -0.1402698203
C   C47       1.0  0.72710  0.02360  0.18440  1.0000 -0.1402698203
C   C48       1.0  0.27290  0.52360  0.31560  1.0000 -0.1402698203
C   C49       1.0  0.86630  0.98070  0.20090  1.0000 -0.1616569652
C   C50       1.0  0.13370  0.48070  0.29910  1.0000 -0.1616569652
C   C51       1.0  0.13370  0.01930  0.79910  1.0000 -0.1616569652
C   C52       1.0  0.86630  0.51930  0.70090  1.0000 -0.1616569652
N   N1        1.0  0.41600  0.75220  0.16350  1.0000 -0.2276787727
N   N2        1.0  0.58400  0.25220  0.33650  1.0000 -0.2276787727
N   N3        1.0  0.58400  0.24780  0.83650  1.0000 -0.2276787727
N   N4        1.0  0.41600  0.74780  0.66350  1.0000 -0.2276787727
N   N5        1.0  0.60580  0.66880  0.27250  1.0000 -0.2276787727
N   N6        1.0  0.39420  0.16880  0.22750  1.0000 -0.2276787727
N   N7        1.0  0.39420  0.33120  0.72750  1.0000 -0.2276787727
N   N8        1.0  0.60580  0.83120  0.77250  1.0000 -0.2276787727
N   N9        1.0  0.25670  0.88740  0.05700  1.0000 -0.220889066
N   N10       1.0  0.74330  0.38740  0.44300  1.0000 -0.220889066
N   N11       1.0  0.74330  0.11260  0.94300  1.0000 -0.220889066
N   N12       1.0  0.25670  0.61260  0.55700  1.0000 -0.220889066
O   O1        1.0  0.53300  0.83520  0.25830  1.0000 -0.3667060776
O   O2        1.0  0.46700  0.33520  0.24170  1.0000 -0.3667060776
O   O3        1.0  0.46700  0.16480  0.74170  1.0000 -0.3667060776
O   O4        1.0  0.53300  0.66480  0.75830  1.0000 -0.3667060776
O   O5        1.0  0.78900  0.80660  0.42040  1.0000 -0.4705851121
O   O6        1.0  0.21100  0.30660  0.07960  1.0000 -0.4705851121
O   O7        1.0  0.21100  0.19340  0.57960  1.0000 -0.4705851121
O   O8        1.0  0.78900  0.69340  0.92040  1.0000 -0.4705851121
O   O9        1.0  0.11900  0.71200  0.48800  1.0000 -0.379240994
O   O10       1.0  0.88100  0.21200  0.01200  1.0000 -0.379240994
O   O11       1.0  0.88100  0.28800  0.51200  1.0000 -0.379240994
O   O12       1.0  0.11900  0.78800  0.98800  1.0000 -0.379240994
O   O13       1.0  0.75500  0.69430  0.53410  1.0000 -0.406827782
O   O14       1.0  0.24500  0.19430  0.96590  1.0000 -0.406827782
O   O15       1.0  0.24500  0.30570  0.46590  1.0000 -0.406827782
O   O16       1.0  0.75500  0.80570  0.03410  1.0000 -0.406827782
