# DDEC6 charges by PACMAN v1.1 (https://github.com/mtap-research/PACMAN-charge/)
data_2010[Cu][wbl]3[ASR]2
_chemical_formula_sum              "Cu8 H64 C128 O40"
_cell_length_a       32.5422
_cell_length_b       32.5422
_cell_length_c       32.5422
_cell_angle_alpha    142.261
_cell_angle_beta     142.261
_cell_angle_gamma    54.4353

_symmetry_space_group_name_H-M    "P 1"
_symmetry_Int_Tables_number       1

loop_
  _symmetry_equiv_pos_as_xyz
  'x, y, z'

loop_
  _atom_site_type_symbol
  _atom_site_label
  _atom_site_symmetry_multiplicity
  _atom_site_fract_x
  _atom_site_fract_y
  _atom_site_fract_z
  _atom_site_occupancy
  _atom_site_charge
Cu  Cu1       1.0  0.09035  0.10465  0.91432  1.0000 0.8829779923
Cu  Cu2       1.0  0.19033  0.17603  0.08568  1.0000 0.8829779923
Cu  Cu3       1.0  0.85465  0.44033  0.51430  1.0000 0.8829779923
Cu  Cu4       1.0  0.92603  0.34035  0.48570  1.0000 0.8829779923
Cu  Cu5       1.0  0.55967  0.14535  0.48570  1.0000 0.8829779923
Cu  Cu6       1.0  0.65965  0.07397  0.51430  1.0000 0.8829779923
Cu  Cu7       1.0  0.82397  0.80967  0.91432  1.0000 0.8829779923
Cu  Cu8       1.0  0.89535  0.90965  0.08568  1.0000 0.8829779923
H   H1        1.0  0.32780  0.05610  0.92470  1.0000 0.1300688905
H   H2        1.0  0.13140  0.40310  0.07530  1.0000 0.1300688905
H   H3        1.0  0.80610  0.38140  0.22830  1.0000 0.1300688905
H   H4        1.0  0.15310  0.57780  0.77170  1.0000 0.1300688905
H   H5        1.0  0.61860  0.19390  0.77170  1.0000 0.1300688905
H   H6        1.0  0.42220  0.84690  0.22830  1.0000 0.1300688905
H   H7        1.0  0.59690  0.86860  0.92470  1.0000 0.1300688905
H   H8        1.0  0.94390  0.67220  0.07530  1.0000 0.1300688905
H   H9        1.0  0.25660  0.04700  0.91460  1.0000 0.1511697769
H   H10       1.0  0.13240  0.34200  0.08540  1.0000 0.1511697769
H   H11       1.0  0.79700  0.38240  0.29040  1.0000 0.1511697769
H   H12       1.0  0.09200  0.50660  0.70960  1.0000 0.1511697769
H   H13       1.0  0.61760  0.20300  0.70960  1.0000 0.1511697769
H   H14       1.0  0.49340  0.90800  0.29040  1.0000 0.1511697769
H   H15       1.0  0.65800  0.86760  0.91460  1.0000 0.1511697769
H   H16       1.0  0.95300  0.74340  0.08540  1.0000 0.1511697769
H   H17       1.0  0.50500  0.09060  0.27680  1.0000 0.1300688905
H   H18       1.0  0.81380  0.22820  0.72320  1.0000 0.1300688905
H   H19       1.0  0.84060  0.06380  0.08560  1.0000 0.1300688905
H   H20       1.0  0.97820  0.75500  0.91440  1.0000 0.1300688905
H   H21       1.0  0.93620  0.15940  0.91440  1.0000 0.1300688905
H   H22       1.0  0.24500  0.02180  0.08560  1.0000 0.1300688905
H   H23       1.0  0.77180  0.18620  0.27680  1.0000 0.1300688905
H   H24       1.0  0.90940  0.49500  0.72320  1.0000 0.1300688905
H   H25       1.0  0.43080  0.07730  0.15050  1.0000 0.1202933747
H   H26       1.0  0.92680  0.28030  0.84950  1.0000 0.1202933747
H   H27       1.0  0.82730  0.17680  0.14650  1.0000 0.1202933747
H   H28       1.0  0.03030  0.68080  0.85350  1.0000 0.1202933747
H   H29       1.0  0.82320  0.17270  0.85350  1.0000 0.1202933747
H   H30       1.0  0.31920  0.96970  0.14650  1.0000 0.1202933747
H   H31       1.0  0.71970  0.07320  0.15050  1.0000 0.1202933747
H   H32       1.0  0.92270  0.56920  0.84950  1.0000 0.1202933747
H   H33       1.0  0.59350  0.01100  0.14090  1.0000 0.1202933747
H   H34       1.0  0.87010  0.45260  0.85910  1.0000 0.1202933747
H   H35       1.0  0.76100  0.12010  0.91750  1.0000 0.1202933747
H   H36       1.0  0.20260  0.84350  0.08250  1.0000 0.1202933747
H   H37       1.0  0.87990  0.23900  0.08250  1.0000 0.1202933747
H   H38       1.0  0.15650  0.79740  0.91750  1.0000 0.1202933747
H   H39       1.0  0.54740  0.12990  0.14090  1.0000 0.1202933747
H   H40       1.0  0.98900  0.40650  0.85910  1.0000 0.1202933747
H   H41       1.0  0.61530  0.02260  0.23710  1.0000 0.1300688905
H   H42       1.0  0.78550  0.37820  0.76290  1.0000 0.1300688905
H   H43       1.0  0.77260  0.03550  0.90730  1.0000 0.1300688905
H   H44       1.0  0.12820  0.86530  0.09270  1.0000 0.1300688905
H   H45       1.0  0.96450  0.22740  0.09270  1.0000 0.1300688905
H   H46       1.0  0.13470  0.87180  0.90730  1.0000 0.1300688905
H   H47       1.0  0.62180  0.21450  0.23710  1.0000 0.1300688905
H   H48       1.0  0.97740  0.38470  0.76290  1.0000 0.1300688905
H   H49       1.0  0.61728  0.02948  0.31340  1.0000 0.1696946938
H   H50       1.0  0.71608  0.30388  0.68660  1.0000 0.1696946938
H   H51       1.0  0.77948  0.96608  0.91220  1.0000 0.1696946938
H   H52       1.0  0.05388  0.86728  0.08780  1.0000 0.1696946938
H   H53       1.0  0.03392  0.22052  0.08780  1.0000 0.1696946938
H   H54       1.0  0.13272  0.94612  0.91220  1.0000 0.1696946938
H   H55       1.0  0.69612  0.28392  0.31340  1.0000 0.1696946938
H   H56       1.0  0.97052  0.38272  0.68660  1.0000 0.1696946938
H   H57       1.0  0.35370  0.11670  0.09240  1.0000 0.1300688905
H   H58       1.0  0.02430  0.26130  0.90760  1.0000 0.1300688905
H   H59       1.0  0.86670  0.27430  0.26300  1.0000 0.1300688905
H   H60       1.0  0.01130  0.60370  0.73700  1.0000 0.1300688905
H   H61       1.0  0.72570  0.13330  0.73700  1.0000 0.1300688905
H   H62       1.0  0.39630  0.98870  0.26300  1.0000 0.1300688905
H   H63       1.0  0.73870  0.97570  0.09240  1.0000 0.1300688905
H   H64       1.0  0.88330  0.64630  0.90760  1.0000 0.1300688905
C   C1        1.0  0.59150  0.07340  0.38050  1.0000 0.6133110449
C   C2        1.0  0.69290  0.21100  0.61950  1.0000 0.6133110449
C   C3        1.0  0.82340  0.94290  0.98190  1.0000 0.6133110449
C   C4        1.0  0.96100  0.84150  0.01810  1.0000 0.6133110449
C   C5        1.0  0.05710  0.17660  0.01810  1.0000 0.6133110449
C   C6        1.0  0.15850  0.03900  0.98190  1.0000 0.6133110449
C   C7        1.0  0.78900  0.30710  0.38050  1.0000 0.6133110449
C   C8        1.0  0.92660  0.40850  0.61950  1.0000 0.6133110449
C   C9        1.0  0.38357  0.06147  0.02550  1.0000 0.0571233318
C   C10       1.0  0.03597  0.35807  0.97450  1.0000 0.0571233318
C   C11       1.0  0.81147  0.28597  0.17790  1.0000 0.0571233318
C   C12       1.0  0.10807  0.63357  0.82210  1.0000 0.0571233318
C   C13       1.0  0.71403  0.18853  0.82210  1.0000 0.0571233318
C   C14       1.0  0.36643  0.89193  0.17790  1.0000 0.0571233318
C   C15       1.0  0.64193  0.96403  0.02550  1.0000 0.0571233318
C   C16       1.0  0.93853  0.61643  0.97450  1.0000 0.0571233318
C   C17       1.0  0.37035  0.04995  0.96440  1.0000 -0.2418316044
C   C18       1.0  0.08555  0.40595  0.03560  1.0000 -0.2418316044
C   C19       1.0  0.79995  0.33555  0.17960  1.0000 -0.2418316044
C   C20       1.0  0.15595  0.62035  0.82040  1.0000 -0.2418316044
C   C21       1.0  0.66445  0.20005  0.82040  1.0000 -0.2418316044
C   C22       1.0  0.37965  0.84405  0.17960  1.0000 -0.2418316044
C   C23       1.0  0.59405  0.91445  0.96440  1.0000 -0.2418316044
C   C24       1.0  0.95005  0.62965  0.03560  1.0000 -0.2418316044
C   C25       1.0  0.42021  0.02931  0.96210  1.0000 0.2711185217
C   C26       1.0  0.06721  0.45811  0.03790  1.0000 0.2711185217
C   C27       1.0  0.77931  0.31721  0.10910  1.0000 0.2711185217
C   C28       1.0  0.20811  0.67021  0.89090  1.0000 0.2711185217
C   C29       1.0  0.68279  0.22069  0.89090  1.0000 0.2711185217
C   C30       1.0  0.32979  0.79189  0.10910  1.0000 0.2711185217
C   C31       1.0  0.54189  0.93279  0.96210  1.0000 0.2711185217
C   C32       1.0  0.97069  0.57979  0.03790  1.0000 0.2711185217
C   C33       1.0  0.48309  0.02019  0.02070  1.0000 -0.0571900662
C   C34       1.0  0.99949  0.46239  0.97930  1.0000 -0.0571900662
C   C35       1.0  0.77019  0.24949  0.03710  1.0000 -0.0571900662
C   C36       1.0  0.21239  0.73309  0.96290  1.0000 -0.0571900662
C   C37       1.0  0.75051  0.22981  0.96290  1.0000 -0.0571900662
C   C38       1.0  0.26691  0.78761  0.03710  1.0000 -0.0571900662
C   C39       1.0  0.53761  0.00051  0.02070  1.0000 -0.0571900662
C   C40       1.0  0.97981  0.51691  0.97930  1.0000 -0.0571900662
C   C41       1.0  0.49622  0.03172  0.08170  1.0000 0.0468747747
C   C42       1.0  0.95002  0.41452  0.91830  1.0000 0.0468747747
C   C43       1.0  0.78172  0.20002  0.03550  1.0000 0.0468747747
C   C44       1.0  0.16452  0.74622  0.96450  1.0000 0.0468747747
C   C45       1.0  0.79998  0.21828  0.96450  1.0000 0.0468747747
C   C46       1.0  0.25378  0.83548  0.03550  1.0000 0.0468747747
C   C47       1.0  0.58548  0.04998  0.08170  1.0000 0.0468747747
C   C48       1.0  0.96828  0.50378  0.91830  1.0000 0.0468747747
C   C49       1.0  0.44646  0.05236  0.08410  1.0000 0.0321404289
C   C50       1.0  0.96826  0.36236  0.91590  1.0000 0.0321404289
C   C51       1.0  0.80236  0.21826  0.10590  1.0000 0.0321404289
C   C52       1.0  0.11236  0.69646  0.89410  1.0000 0.0321404289
C   C53       1.0  0.78174  0.19764  0.89410  1.0000 0.0321404289
C   C54       1.0  0.30354  0.88764  0.10590  1.0000 0.0321404289
C   C55       1.0  0.63764  0.03174  0.08410  1.0000 0.0321404289
C   C56       1.0  0.94764  0.55354  0.91590  1.0000 0.0321404289
C   C57       1.0  0.22490  0.10280  0.98630  1.0000 0.6368771121
C   C58       1.0  0.11650  0.23860  0.01370  1.0000 0.6368771121
C   C59       1.0  0.85280  0.36650  0.37790  1.0000 0.6368771121
C   C60       1.0  0.98860  0.47490  0.62210  1.0000 0.6368771121
C   C61       1.0  0.63350  0.14720  0.62210  1.0000 0.6368771121
C   C62       1.0  0.52510  0.01140  0.37790  1.0000 0.6368771121
C   C63       1.0  0.76140  0.88350  0.98630  1.0000 0.6368771121
C   C64       1.0  0.89720  0.77510  0.01370  1.0000 0.6368771121
C   C65       1.0  0.27448  0.07458  0.97230  1.0000 -0.1542931758
C   C66       1.0  0.10228  0.30218  0.02770  1.0000 -0.1542931758
C   C67       1.0  0.82458  0.35228  0.30010  1.0000 -0.1542931758
C   C68       1.0  0.05218  0.52448  0.69990  1.0000 -0.1542931758
C   C69       1.0  0.64772  0.17542  0.69990  1.0000 -0.1542931758
C   C70       1.0  0.47552  0.94782  0.30010  1.0000 -0.1542931758
C   C71       1.0  0.69782  0.89772  0.97230  1.0000 -0.1542931758
C   C72       1.0  0.92542  0.72552  0.02770  1.0000 -0.1542931758
C   C73       1.0  0.53720  0.06720  0.27040  1.0000 -0.0286679128
C   C74       1.0  0.79680  0.26680  0.72960  1.0000 -0.0286679128
C   C75       1.0  0.81720  0.04680  0.03000  1.0000 -0.0286679128
C   C76       1.0  0.01680  0.78720  0.97000  1.0000 -0.0286679128
C   C77       1.0  0.95320  0.18280  0.97000  1.0000 -0.0286679128
C   C78       1.0  0.21280  0.98320  0.03000  1.0000 -0.0286679128
C   C79       1.0  0.73320  0.20320  0.27040  1.0000 -0.0286679128
C   C80       1.0  0.93280  0.46280  0.72960  1.0000 -0.0286679128
C   C81       1.0  0.46326  0.06206  0.14660  1.0000 -0.1921654977
C   C82       1.0  0.91546  0.31666  0.85340  1.0000 -0.1921654977
C   C83       1.0  0.81206  0.16546  0.09880  1.0000 -0.1921654977
C   C84       1.0  0.06666  0.71326  0.90120  1.0000 -0.1921654977
C   C85       1.0  0.83454  0.18794  0.90120  1.0000 -0.1921654977
C   C86       1.0  0.28674  0.93334  0.09880  1.0000 -0.1921654977
C   C87       1.0  0.68334  0.08454  0.14660  1.0000 -0.1921654977
C   C88       1.0  0.93794  0.53674  0.85340  1.0000 -0.1921654977
C   C89       1.0  0.52360  0.05090  0.20190  1.0000 0.1074383073
C   C90       1.0  0.84900  0.32170  0.79810  1.0000 0.1074383073
C   C91       1.0  0.80090  0.09900  0.02730  1.0000 0.1074383073
C   C92       1.0  0.07170  0.77360  0.97270  1.0000 0.1074383073
C   C93       1.0  0.90100  0.19910  0.97270  1.0000 0.1074383073
C   C94       1.0  0.22640  0.92830  0.02730  1.0000 0.1074383073
C   C95       1.0  0.67830  0.15100  0.20190  1.0000 0.1074383073
C   C96       1.0  0.94910  0.47640  0.79810  1.0000 0.1074383073
C   C97       1.0  0.55944  0.02274  0.14090  1.0000 -0.1318851821
C   C98       1.0  0.88184  0.41854  0.85910  1.0000 -0.1318851821
C   C99       1.0  0.77274  0.13184  0.96330  1.0000 -0.1318851821
C   C100      1.0  0.16854  0.80944  0.03670  1.0000 -0.1318851821
C   C101      1.0  0.86816  0.22726  0.03670  1.0000 -0.1318851821
C   C102      1.0  0.19056  0.83146  0.96330  1.0000 -0.1318851821
C   C103      1.0  0.58146  0.11816  0.14090  1.0000 -0.1318851821
C   C104      1.0  0.97726  0.44056  0.85910  1.0000 -0.1318851821
C   C105      1.0  0.57319  0.03069  0.19950  1.0000 -0.1449427455
C   C106      1.0  0.83119  0.37369  0.80050  1.0000 -0.1449427455
C   C107      1.0  0.78069  0.08119  0.95750  1.0000 -0.1449427455
C   C108      1.0  0.12369  0.82319  0.04250  1.0000 -0.1449427455
C   C109      1.0  0.91881  0.21931  0.04250  1.0000 -0.1449427455
C   C110      1.0  0.17681  0.87631  0.95750  1.0000 -0.1449427455
C   C111      1.0  0.62631  0.16881  0.19950  1.0000 -0.1449427455
C   C112      1.0  0.96931  0.42681  0.80050  1.0000 -0.1449427455
C   C113      1.0  0.58452  0.05392  0.31860  1.0000 -0.2284244373
C   C114      1.0  0.73532  0.26592  0.68140  1.0000 -0.2284244373
C   C115      1.0  0.80392  0.98532  0.96940  1.0000 -0.2284244373
C   C116      1.0  0.01592  0.83452  0.03060  1.0000 -0.2284244373
C   C117      1.0  0.01468  0.19608  0.03060  1.0000 -0.2284244373
C   C118      1.0  0.16548  0.98408  0.96940  1.0000 -0.2284244373
C   C119      1.0  0.73408  0.26468  0.31860  1.0000 -0.2284244373
C   C120      1.0  0.94608  0.41548  0.68140  1.0000 -0.2284244373
C   C121      1.0  0.33673  0.08733  0.03460  1.0000 -0.0864940146
C   C122      1.0  0.05273  0.30213  0.96540  1.0000 -0.0864940146
C   C123      1.0  0.83733  0.30273  0.25060  1.0000 -0.0864940146
C   C124      1.0  0.05213  0.58673  0.74940  1.0000 -0.0864940146
C   C125      1.0  0.69727  0.16267  0.74940  1.0000 -0.0864940146
C   C126      1.0  0.41327  0.94787  0.25060  1.0000 -0.0864940146
C   C127      1.0  0.69787  0.94727  0.03460  1.0000 -0.0864940146
C   C128      1.0  0.91267  0.66327  0.96540  1.0000 -0.0864940146
O   O1        1.0  0.15986  0.07486  0.90880  1.0000 -0.5668307394
O   O2        1.0  0.16606  0.25106  0.09120  1.0000 -0.5668307394
O   O3        1.0  0.82486  0.41606  0.41500  1.0000 -0.5668307394
O   O4        1.0  0.00106  0.40986  0.58500  1.0000 -0.5668307394
O   O5        1.0  0.58394  0.17514  0.58500  1.0000 -0.5668307394
O   O6        1.0  0.59014  0.99894  0.41500  1.0000 -0.5668307394
O   O7        1.0  0.74894  0.83394  0.90880  1.0000 -0.5668307394
O   O8        1.0  0.92514  0.84014  0.09120  1.0000 -0.5668307394
O   O9        1.0  0.55027  0.10887  0.39500  1.0000 -0.5420563519
O   O10       1.0  0.71387  0.15527  0.60500  1.0000 -0.5420563519
O   O11       1.0  0.85887  0.96387  0.05860  1.0000 -0.5420563519
O   O12       1.0  0.90527  0.80027  0.94140  1.0000 -0.5420563519
O   O13       1.0  0.03613  0.14113  0.94140  1.0000 -0.5420563519
O   O14       1.0  0.19973  0.09473  0.05860  1.0000 -0.5420563519
O   O15       1.0  0.84473  0.28613  0.39500  1.0000 -0.5420563519
O   O16       1.0  0.89113  0.44973  0.60500  1.0000 -0.5420563519
O   O17       1.0  0.63936  0.05696  0.42700  1.0000 -0.5170026719
O   O18       1.0  0.62996  0.21236  0.57300  1.0000 -0.5170026719
O   O19       1.0  0.80696  0.87996  0.91760  1.0000 -0.5170026719
O   O20       1.0  0.96236  0.88936  0.08240  1.0000 -0.5170026719
O   O21       1.0  0.12004  0.19304  0.08240  1.0000 -0.5170026719
O   O22       1.0  0.11064  0.03764  0.91760  1.0000 -0.5170026719
O   O23       1.0  0.78764  0.37004  0.42700  1.0000 -0.5170026719
O   O24       1.0  0.94304  0.36064  0.57300  1.0000 -0.5170026719
O   O25       1.0  0.24276  0.14536  0.05840  1.0000 -0.4358078316
O   O26       1.0  0.08696  0.18436  0.94160  1.0000 -0.4358078316
O   O27       1.0  0.89536  0.33696  0.40260  1.0000 -0.4358078316
O   O28       1.0  0.93436  0.49276  0.59740  1.0000 -0.4358078316
O   O29       1.0  0.66304  0.10464  0.59740  1.0000 -0.4358078316
O   O30       1.0  0.50724  0.06564  0.40260  1.0000 -0.4358078316
O   O31       1.0  0.81564  0.91304  0.05840  1.0000 -0.4358078316
O   O32       1.0  0.85464  0.75724  0.94160  1.0000 -0.4358078316
O   O33       1.0  0.40398  0.01658  0.89980  1.0000 -0.4019960649
O   O34       1.0  0.11678  0.50418  0.10020  1.0000 -0.4019960649
O   O35       1.0  0.76658  0.36678  0.11260  1.0000 -0.4019960649
O   O36       1.0  0.25418  0.65398  0.88740  1.0000 -0.4019960649
O   O37       1.0  0.63322  0.23342  0.88740  1.0000 -0.4019960649
O   O38       1.0  0.34602  0.74582  0.11260  1.0000 -0.4019960649
O   O39       1.0  0.49582  0.88322  0.89980  1.0000 -0.4019960649
O   O40       1.0  0.98342  0.59602  0.10020  1.0000 -0.4019960649
