# DDEC6 charges by PACMAN v1.1 (https://github.com/mtap-research/PACMAN-charge/)
data_2010[Cd][nan]3[ASR]9
_chemical_formula_sum              "Cd8 H16 C8 S4 N16 O20"
_cell_length_a       7.1301
_cell_length_b       9.6227
_cell_length_c       16.7625
_cell_angle_alpha    90
_cell_angle_beta     90
_cell_angle_gamma    90

_symmetry_space_group_name_H-M    "P 1"
_symmetry_Int_Tables_number       1

loop_
  _symmetry_equiv_pos_as_xyz
  'x, y, z'

loop_
  _atom_site_type_symbol
  _atom_site_label
  _atom_site_symmetry_multiplicity
  _atom_site_fract_x
  _atom_site_fract_y
  _atom_site_fract_z
  _atom_site_occupancy
  _atom_site_charge
Cd  Cd1       1.0  0.29290  0.71741  0.34303  1.0000 1.001688288
Cd  Cd2       1.0  0.79290  0.28259  0.65697  1.0000 1.001688288
Cd  Cd3       1.0  0.79290  0.78259  0.84303  1.0000 1.001688288
Cd  Cd4       1.0  0.29290  0.21741  0.15697  1.0000 1.001688288
Cd  Cd5       1.0  0.04240  0.50048  0.49976  1.0000 0.9404609664
Cd  Cd6       1.0  0.54240  0.49952  0.50024  1.0000 0.9404609664
Cd  Cd7       1.0  0.54240  0.99952  0.99976  1.0000 0.9404609664
Cd  Cd8       1.0  0.04240  0.00048  0.00024  1.0000 0.9404609664
H   H1        1.0  0.26700  0.70200  0.49800  1.0000 0.3749868436
H   H2        1.0  0.76700  0.29800  0.50200  1.0000 0.3749868436
H   H3        1.0  0.76700  0.79800  0.99800  1.0000 0.3749868436
H   H4        1.0  0.26700  0.20200  0.00200  1.0000 0.3749868436
H   H5        1.0  0.93800  0.90080  0.24180  1.0000 0.1589831183
H   H6        1.0  0.43800  0.09920  0.75820  1.0000 0.1589831183
H   H7        1.0  0.43800  0.59920  0.74180  1.0000 0.1589831183
H   H8        1.0  0.93800  0.40080  0.25820  1.0000 0.1589831183
H   H9        1.0  0.74870  0.96470  0.27200  1.0000 0.1589831183
H   H10       1.0  0.24870  0.03530  0.72800  1.0000 0.1589831183
H   H11       1.0  0.24870  0.53530  0.77200  1.0000 0.1589831183
H   H12       1.0  0.74870  0.46470  0.22800  1.0000 0.1589831183
H   H13       1.0  0.74680  0.84760  0.20700  1.0000 0.1665713652
H   H14       1.0  0.24680  0.15240  0.79300  1.0000 0.1665713652
H   H15       1.0  0.24680  0.65240  0.70700  1.0000 0.1665713652
H   H16       1.0  0.74680  0.34760  0.29300  1.0000 0.1665713652
C   C1        1.0  0.79900  0.77410  0.31760  1.0000 0.3796342923
C   C2        1.0  0.29900  0.22590  0.68240  1.0000 0.3796342923
C   C3        1.0  0.29900  0.72590  0.81760  1.0000 0.3796342923
C   C4        1.0  0.79900  0.27410  0.18240  1.0000 0.3796342923
C   C5        1.0  0.80910  0.88130  0.25400  1.0000 -0.5125312345
C   C6        1.0  0.30910  0.11870  0.74600  1.0000 -0.5125312345
C   C7        1.0  0.30910  0.61870  0.75400  1.0000 -0.5125312345
C   C8        1.0  0.80910  0.38130  0.24600  1.0000 -0.5125312345
S   S1        1.0  0.29480  0.85679  0.15172  1.0000 1.4177668853
S   S2        1.0  0.79480  0.14321  0.84828  1.0000 1.4177668853
S   S3        1.0  0.79480  0.64321  0.65172  1.0000 1.4177668853
S   S4        1.0  0.29480  0.35679  0.34828  1.0000 1.4177668853
N   N1        1.0  0.95350  0.71790  0.35090  1.0000 -0.2767552571
N   N2        1.0  0.45350  0.28210  0.64910  1.0000 -0.2767552571
N   N3        1.0  0.45350  0.78210  0.85090  1.0000 -0.2767552571
N   N4        1.0  0.95350  0.21790  0.14910  1.0000 -0.2767552571
N   N5        1.0  0.87570  0.63190  0.40790  1.0000 -0.0790403658
N   N6        1.0  0.37570  0.36810  0.59210  1.0000 -0.0790403658
N   N7        1.0  0.37570  0.86810  0.90790  1.0000 -0.0790403658
N   N8        1.0  0.87570  0.13190  0.09210  1.0000 -0.0790403658
N   N9        1.0  0.69370  0.63110  0.40420  1.0000 -0.0346190637
N   N10       1.0  0.19370  0.36890  0.59580  1.0000 -0.0346190637
N   N11       1.0  0.19370  0.86890  0.90420  1.0000 -0.0346190637
N   N12       1.0  0.69370  0.13110  0.09580  1.0000 -0.0346190637
N   N13       1.0  0.64200  0.72150  0.35050  1.0000 -0.2376429872
N   N14       1.0  0.14200  0.27850  0.64950  1.0000 -0.2376429872
N   N15       1.0  0.14200  0.77850  0.85050  1.0000 -0.2376429872
N   N16       1.0  0.64200  0.22150  0.14950  1.0000 -0.2376429872
O   O1        1.0  0.28300  0.74070  0.20840  1.0000 -0.6168086664
O   O2        1.0  0.78300  0.25930  0.79160  1.0000 -0.6168086664
O   O3        1.0  0.78300  0.75930  0.70840  1.0000 -0.6168086664
O   O4        1.0  0.28300  0.24070  0.29160  1.0000 -0.6168086664
O   O5        1.0  0.27600  0.98890  0.19520  1.0000 -0.6672807471
O   O6        1.0  0.77600  0.01110  0.80480  1.0000 -0.6672807471
O   O7        1.0  0.77600  0.51110  0.69520  1.0000 -0.6672807471
O   O8        1.0  0.27600  0.48890  0.30480  1.0000 -0.6672807471
O   O9        1.0  0.46440  0.84820  0.09920  1.0000 -0.694725229
O   O10       1.0  0.96440  0.15180  0.90080  1.0000 -0.694725229
O   O11       1.0  0.96440  0.65180  0.59920  1.0000 -0.694725229
O   O12       1.0  0.46440  0.34820  0.40080  1.0000 -0.694725229
O   O13       1.0  0.12920  0.84750  0.10290  1.0000 -0.6301627295
O   O14       1.0  0.62920  0.15250  0.89710  1.0000 -0.6301627295
O   O15       1.0  0.62920  0.65250  0.60290  1.0000 -0.6301627295
O   O16       1.0  0.12920  0.34750  0.39710  1.0000 -0.6301627295
O   O17       1.0  0.30300  0.63450  0.46970  1.0000 -0.8495085971
O   O18       1.0  0.80300  0.36550  0.53030  1.0000 -0.8495085971
O   O19       1.0  0.80300  0.86550  0.96970  1.0000 -0.8495085971
O   O20       1.0  0.30300  0.13450  0.03030  1.0000 -0.8495085971
