# DDEC6 charges by PACMAN v1.1 (https://github.com/mtap-research/PACMAN-charge/)
data_2010[Zn][dia]3[ASR]1
_chemical_formula_sum              "Zn8 H96 C144 N48 O32"
_cell_length_a       15.8012
_cell_length_b       16.968
_cell_length_c       19.7665
_cell_angle_alpha    90
_cell_angle_beta     90
_cell_angle_gamma    90

_symmetry_space_group_name_H-M    "P 1"
_symmetry_Int_Tables_number       1

loop_
  _symmetry_equiv_pos_as_xyz
  'x, y, z'

loop_
  _atom_site_type_symbol
  _atom_site_label
  _atom_site_symmetry_multiplicity
  _atom_site_fract_x
  _atom_site_fract_y
  _atom_site_fract_z
  _atom_site_occupancy
  _atom_site_charge
Zn  Zn1       1.0  0.47712  0.00657  0.78538  1.0000 0.7542493164
Zn  Zn2       1.0  0.02288  0.50657  0.71462  1.0000 0.7542493164
Zn  Zn3       1.0  0.47712  0.49343  0.21462  1.0000 0.7542493164
Zn  Zn4       1.0  0.02288  0.99343  0.28538  1.0000 0.7542493164
Zn  Zn5       1.0  0.52288  0.99343  0.21462  1.0000 0.7542493164
Zn  Zn6       1.0  0.97712  0.49343  0.28538  1.0000 0.7542493164
Zn  Zn7       1.0  0.52288  0.50657  0.78538  1.0000 0.7542493164
Zn  Zn8       1.0  0.97712  0.00657  0.71462  1.0000 0.7542493164
H   H1        1.0  0.58020  0.75410  0.88280  1.0000 0.1203909102
H   H2        1.0  0.91980  0.25410  0.61720  1.0000 0.1203909102
H   H3        1.0  0.58020  0.74590  0.11720  1.0000 0.1203909102
H   H4        1.0  0.91980  0.24590  0.38280  1.0000 0.1203909102
H   H5        1.0  0.62230  0.89760  0.73210  1.0000 0.1381318855
H   H6        1.0  0.87770  0.39760  0.76790  1.0000 0.1381318855
H   H7        1.0  0.62230  0.60240  0.26790  1.0000 0.1381318855
H   H8        1.0  0.87770  0.10240  0.23210  1.0000 0.1381318855
H   H9        1.0  0.65160  0.65750  0.79760  1.0000 0.1291919637
H   H10       1.0  0.84840  0.15750  0.70240  1.0000 0.1291919637
H   H11       1.0  0.65160  0.84250  0.20240  1.0000 0.1291919637
H   H12       1.0  0.84840  0.34250  0.29760  1.0000 0.1291919637
H   H13       1.0  0.77440  0.58740  0.77700  1.0000 0.1132766723
H   H14       1.0  0.72560  0.08740  0.72300  1.0000 0.1132766723
H   H15       1.0  0.77440  0.91260  0.22300  1.0000 0.1132766723
H   H16       1.0  0.72560  0.41260  0.27700  1.0000 0.1132766723
H   H17       1.0  0.89800  0.78900  0.73820  1.0000 0.1203909102
H   H18       1.0  0.60200  0.28900  0.76180  1.0000 0.1203909102
H   H19       1.0  0.89800  0.71100  0.26180  1.0000 0.1203909102
H   H20       1.0  0.60200  0.21100  0.23820  1.0000 0.1203909102
H   H21       1.0  0.77480  0.86050  0.76190  1.0000 0.1203909102
H   H22       1.0  0.72520  0.36050  0.73810  1.0000 0.1203909102
H   H23       1.0  0.77480  0.63950  0.23810  1.0000 0.1203909102
H   H24       1.0  0.72520  0.13950  0.26190  1.0000 0.1203909102
H   H25       1.0  0.31270  0.99280  0.88530  1.0000 0.1381318855
H   H26       1.0  0.18730  0.49280  0.61470  1.0000 0.1381318855
H   H27       1.0  0.31270  0.50720  0.11470  1.0000 0.1381318855
H   H28       1.0  0.18730  0.00720  0.38530  1.0000 0.1381318855
H   H29       1.0  0.45430  0.10090  0.01980  1.0000 0.1203909102
H   H30       1.0  0.04570  0.60090  0.48020  1.0000 0.1203909102
H   H31       1.0  0.45430  0.39910  0.98020  1.0000 0.1203909102
H   H32       1.0  0.04570  0.89910  0.51980  1.0000 0.1203909102
H   H33       1.0  0.37260  0.01290  0.09850  1.0000 0.1291919637
H   H34       1.0  0.12740  0.51290  0.40150  1.0000 0.1291919637
H   H35       1.0  0.37260  0.48710  0.90150  1.0000 0.1291919637
H   H36       1.0  0.12740  0.98710  0.59850  1.0000 0.1291919637
H   H37       1.0  0.26690  0.99910  0.17880  1.0000 0.1203909102
H   H38       1.0  0.23310  0.49910  0.32120  1.0000 0.1203909102
H   H39       1.0  0.26690  0.50090  0.82120  1.0000 0.1203909102
H   H40       1.0  0.23310  0.00090  0.67880  1.0000 0.1203909102
H   H41       1.0  0.09080  0.04800  0.03950  1.0000 0.1291919637
H   H42       1.0  0.40920  0.54800  0.46050  1.0000 0.1291919637
H   H43       1.0  0.09080  0.45200  0.96050  1.0000 0.1291919637
H   H44       1.0  0.40920  0.95200  0.53950  1.0000 0.1291919637
H   H45       1.0  0.19610  0.06270  0.95850  1.0000 0.1381318855
H   H46       1.0  0.30390  0.56270  0.54150  1.0000 0.1381318855
H   H47       1.0  0.19610  0.43730  0.04150  1.0000 0.1381318855
H   H48       1.0  0.30390  0.93730  0.45850  1.0000 0.1381318855
H   H49       1.0  0.41980  0.24590  0.11720  1.0000 0.1203909102
H   H50       1.0  0.08020  0.74590  0.38280  1.0000 0.1203909102
H   H51       1.0  0.41980  0.25410  0.88280  1.0000 0.1203909102
H   H52       1.0  0.08020  0.75410  0.61720  1.0000 0.1203909102
H   H53       1.0  0.37770  0.10240  0.26790  1.0000 0.1381318855
H   H54       1.0  0.12230  0.60240  0.23210  1.0000 0.1381318855
H   H55       1.0  0.37770  0.39760  0.73210  1.0000 0.1381318855
H   H56       1.0  0.12230  0.89760  0.76790  1.0000 0.1381318855
H   H57       1.0  0.34840  0.34250  0.20240  1.0000 0.1291919637
H   H58       1.0  0.15160  0.84250  0.29760  1.0000 0.1291919637
H   H59       1.0  0.34840  0.15750  0.79760  1.0000 0.1291919637
H   H60       1.0  0.15160  0.65750  0.70240  1.0000 0.1291919637
H   H61       1.0  0.22560  0.41260  0.22300  1.0000 0.1132766723
H   H62       1.0  0.27440  0.91260  0.27700  1.0000 0.1132766723
H   H63       1.0  0.22560  0.08740  0.77700  1.0000 0.1132766723
H   H64       1.0  0.27440  0.58740  0.72300  1.0000 0.1132766723
H   H65       1.0  0.10200  0.21100  0.26180  1.0000 0.1203909102
H   H66       1.0  0.39800  0.71100  0.23820  1.0000 0.1203909102
H   H67       1.0  0.10200  0.28900  0.73820  1.0000 0.1203909102
H   H68       1.0  0.39800  0.78900  0.76180  1.0000 0.1203909102
H   H69       1.0  0.22520  0.13950  0.23810  1.0000 0.1203909102
H   H70       1.0  0.27480  0.63950  0.26190  1.0000 0.1203909102
H   H71       1.0  0.22520  0.36050  0.76190  1.0000 0.1203909102
H   H72       1.0  0.27480  0.86050  0.73810  1.0000 0.1203909102
H   H73       1.0  0.68730  0.00720  0.11470  1.0000 0.1381318855
H   H74       1.0  0.81270  0.50720  0.38530  1.0000 0.1381318855
H   H75       1.0  0.68730  0.49280  0.88530  1.0000 0.1381318855
H   H76       1.0  0.81270  0.99280  0.61470  1.0000 0.1381318855
H   H77       1.0  0.54570  0.89910  0.98020  1.0000 0.1203909102
H   H78       1.0  0.95430  0.39910  0.51980  1.0000 0.1203909102
H   H79       1.0  0.54570  0.60090  0.01980  1.0000 0.1203909102
H   H80       1.0  0.95430  0.10090  0.48020  1.0000 0.1203909102
H   H81       1.0  0.62740  0.98710  0.90150  1.0000 0.1291919637
H   H82       1.0  0.87260  0.48710  0.59850  1.0000 0.1291919637
H   H83       1.0  0.62740  0.51290  0.09850  1.0000 0.1291919637
H   H84       1.0  0.87260  0.01290  0.40150  1.0000 0.1291919637
H   H85       1.0  0.73310  0.00090  0.82120  1.0000 0.1203909102
H   H86       1.0  0.76690  0.50090  0.67880  1.0000 0.1203909102
H   H87       1.0  0.73310  0.49910  0.17880  1.0000 0.1203909102
H   H88       1.0  0.76690  0.99910  0.32120  1.0000 0.1203909102
H   H89       1.0  0.90920  0.95200  0.96050  1.0000 0.1291919637
H   H90       1.0  0.59080  0.45200  0.53950  1.0000 0.1291919637
H   H91       1.0  0.90920  0.54800  0.03950  1.0000 0.1291919637
H   H92       1.0  0.59080  0.04800  0.46050  1.0000 0.1291919637
H   H93       1.0  0.80390  0.93730  0.04150  1.0000 0.1381318855
H   H94       1.0  0.69610  0.43730  0.45850  1.0000 0.1381318855
H   H95       1.0  0.80390  0.56270  0.95850  1.0000 0.1381318855
H   H96       1.0  0.69610  0.06270  0.54150  1.0000 0.1381318855
C   C1        1.0  0.57520  0.79630  0.85300  1.0000 0.1132766723
C   C2        1.0  0.92480  0.29630  0.64700  1.0000 0.1132766723
C   C3        1.0  0.57520  0.70370  0.14700  1.0000 0.1132766723
C   C4        1.0  0.92480  0.20370  0.35300  1.0000 0.1132766723
C   C5        1.0  0.59910  0.87410  0.77030  1.0000 0.1291919637
C   C6        1.0  0.90090  0.37410  0.72970  1.0000 0.1291919637
C   C7        1.0  0.59910  0.62590  0.22970  1.0000 0.1291919637
C   C8        1.0  0.90090  0.12590  0.27030  1.0000 0.1291919637
C   C9        1.0  0.70250  0.76530  0.78220  1.0000 0.1620072841
C   C10       1.0  0.79750  0.26530  0.71780  1.0000 0.1620072841
C   C11       1.0  0.70250  0.73470  0.21780  1.0000 0.1620072841
C   C12       1.0  0.79750  0.23470  0.28220  1.0000 0.1620072841
C   C13       1.0  0.70130  0.68380  0.78630  1.0000 -0.1760323656
C   C14       1.0  0.79870  0.18380  0.71370  1.0000 -0.1760323656
C   C15       1.0  0.70130  0.81620  0.21370  1.0000 -0.1760323656
C   C16       1.0  0.79870  0.31620  0.28630  1.0000 -0.1760323656
C   C17       1.0  0.77440  0.64200  0.77350  1.0000 -0.0854303132
C   C18       1.0  0.72560  0.14200  0.72650  1.0000 -0.0854303132
C   C19       1.0  0.77440  0.85800  0.22650  1.0000 -0.0854303132
C   C20       1.0  0.72560  0.35800  0.27350  1.0000 -0.0854303132
C   C21       1.0  0.84820  0.68130  0.75520  1.0000 -0.0116888271
C   C22       1.0  0.65180  0.18130  0.74480  1.0000 -0.0116888271
C   C23       1.0  0.84820  0.81870  0.24480  1.0000 -0.0116888271
C   C24       1.0  0.65180  0.31870  0.25520  1.0000 -0.0116888271
C   C25       1.0  0.84870  0.76280  0.75060  1.0000 -0.079009413
C   C26       1.0  0.65130  0.26280  0.74940  1.0000 -0.079009413
C   C27       1.0  0.84870  0.73720  0.24940  1.0000 -0.079009413
C   C28       1.0  0.65130  0.23720  0.25060  1.0000 -0.079009413
C   C29       1.0  0.77490  0.80580  0.76450  1.0000 -0.189287144
C   C30       1.0  0.72510  0.30580  0.73550  1.0000 -0.189287144
C   C31       1.0  0.77490  0.69420  0.23550  1.0000 -0.189287144
C   C32       1.0  0.72510  0.19420  0.26450  1.0000 -0.189287144
C   C33       1.0  0.92800  0.63540  0.74020  1.0000 0.5552265763
C   C34       1.0  0.57200  0.13540  0.75980  1.0000 0.5552265763
C   C35       1.0  0.92800  0.86460  0.25980  1.0000 0.5552265763
C   C36       1.0  0.57200  0.36460  0.24020  1.0000 0.5552265763
C   C37       1.0  0.35780  0.01840  0.90610  1.0000 0.0868527337
C   C38       1.0  0.14220  0.51840  0.59390  1.0000 0.0868527337
C   C39       1.0  0.35780  0.48160  0.09390  1.0000 0.0868527337
C   C40       1.0  0.14220  0.98160  0.40610  1.0000 0.0868527337
C   C41       1.0  0.43590  0.07800  0.97960  1.0000 0.0828897177
C   C42       1.0  0.06410  0.57800  0.52040  1.0000 0.0828897177
C   C43       1.0  0.43590  0.42200  0.02040  1.0000 0.0828897177
C   C44       1.0  0.06410  0.92200  0.47960  1.0000 0.0828897177
C   C45       1.0  0.29400  0.03630  0.02160  1.0000 0.1504756331
C   C46       1.0  0.20600  0.53630  0.47840  1.0000 0.1504756331
C   C47       1.0  0.29400  0.46370  0.97840  1.0000 0.1504756331
C   C48       1.0  0.20600  0.96370  0.52160  1.0000 0.1504756331
C   C49       1.0  0.31610  0.01930  0.08660  1.0000 -0.1760323656
C   C50       1.0  0.18390  0.51930  0.41340  1.0000 -0.1760323656
C   C51       1.0  0.31610  0.48070  0.91340  1.0000 -0.1760323656
C   C52       1.0  0.18390  0.98070  0.58660  1.0000 -0.1760323656
C   C53       1.0  0.25270  0.01190  0.13440  1.0000 -0.0854303132
C   C54       1.0  0.24730  0.51190  0.36560  1.0000 -0.0854303132
C   C55       1.0  0.25270  0.48810  0.86560  1.0000 -0.0854303132
C   C56       1.0  0.24730  0.98810  0.63440  1.0000 -0.0854303132
C   C57       1.0  0.16930  0.02300  0.11760  1.0000 -0.0116888271
C   C58       1.0  0.33070  0.52300  0.38240  1.0000 -0.0116888271
C   C59       1.0  0.16930  0.47700  0.88240  1.0000 -0.0116888271
C   C60       1.0  0.33070  0.97700  0.61760  1.0000 -0.0116888271
C   C61       1.0  0.14740  0.04120  0.05120  1.0000 -0.079009413
C   C62       1.0  0.35260  0.54120  0.44880  1.0000 -0.079009413
C   C63       1.0  0.14740  0.45880  0.94880  1.0000 -0.079009413
C   C64       1.0  0.35260  0.95880  0.55120  1.0000 -0.079009413
C   C65       1.0  0.20980  0.04910  0.00270  1.0000 -0.189287144
C   C66       1.0  0.29020  0.54910  0.49730  1.0000 -0.189287144
C   C67       1.0  0.20980  0.45090  0.99730  1.0000 -0.189287144
C   C68       1.0  0.29020  0.95090  0.50270  1.0000 -0.189287144
C   C69       1.0  0.10030  0.01690  0.17010  1.0000 0.5524826168
C   C70       1.0  0.39970  0.51690  0.32990  1.0000 0.5524826168
C   C71       1.0  0.10030  0.48310  0.82990  1.0000 0.5524826168
C   C72       1.0  0.39970  0.98310  0.67010  1.0000 0.5524826168
C   C73       1.0  0.42480  0.20370  0.14700  1.0000 0.1132766723
C   C74       1.0  0.07520  0.70370  0.35300  1.0000 0.1132766723
C   C75       1.0  0.42480  0.29630  0.85300  1.0000 0.1132766723
C   C76       1.0  0.07520  0.79630  0.64700  1.0000 0.1132766723
C   C77       1.0  0.40090  0.12590  0.22970  1.0000 0.1291919637
C   C78       1.0  0.09910  0.62590  0.27030  1.0000 0.1291919637
C   C79       1.0  0.40090  0.37410  0.77030  1.0000 0.1291919637
C   C80       1.0  0.09910  0.87410  0.72970  1.0000 0.1291919637
C   C81       1.0  0.29750  0.23470  0.21780  1.0000 0.1620072841
C   C82       1.0  0.20250  0.73470  0.28220  1.0000 0.1620072841
C   C83       1.0  0.29750  0.26530  0.78220  1.0000 0.1620072841
C   C84       1.0  0.20250  0.76530  0.71780  1.0000 0.1620072841
C   C85       1.0  0.29870  0.31620  0.21370  1.0000 -0.1760323656
C   C86       1.0  0.20130  0.81620  0.28630  1.0000 -0.1760323656
C   C87       1.0  0.29870  0.18380  0.78630  1.0000 -0.1760323656
C   C88       1.0  0.20130  0.68380  0.71370  1.0000 -0.1760323656
C   C89       1.0  0.22560  0.35800  0.22650  1.0000 -0.0854303132
C   C90       1.0  0.27440  0.85800  0.27350  1.0000 -0.0854303132
C   C91       1.0  0.22560  0.14200  0.77350  1.0000 -0.0854303132
C   C92       1.0  0.27440  0.64200  0.72650  1.0000 -0.0854303132
C   C93       1.0  0.15180  0.31870  0.24480  1.0000 -0.0116888271
C   C94       1.0  0.34820  0.81870  0.25520  1.0000 -0.0116888271
C   C95       1.0  0.15180  0.18130  0.75520  1.0000 -0.0116888271
C   C96       1.0  0.34820  0.68130  0.74480  1.0000 -0.0116888271
C   C97       1.0  0.15130  0.23720  0.24940  1.0000 -0.079009413
C   C98       1.0  0.34870  0.73720  0.25060  1.0000 -0.079009413
C   C99       1.0  0.15130  0.26280  0.75060  1.0000 -0.079009413
C   C100      1.0  0.34870  0.76280  0.74940  1.0000 -0.079009413
C   C101      1.0  0.22510  0.19420  0.23550  1.0000 -0.189287144
C   C102      1.0  0.27490  0.69420  0.26450  1.0000 -0.189287144
C   C103      1.0  0.22510  0.30580  0.76450  1.0000 -0.189287144
C   C104      1.0  0.27490  0.80580  0.73550  1.0000 -0.189287144
C   C105      1.0  0.07200  0.36460  0.25980  1.0000 0.5552265763
C   C106      1.0  0.42800  0.86460  0.24020  1.0000 0.5552265763
C   C107      1.0  0.07200  0.13540  0.74020  1.0000 0.5552265763
C   C108      1.0  0.42800  0.63540  0.75980  1.0000 0.5552265763
C   C109      1.0  0.64220  0.98160  0.09390  1.0000 0.0868527337
C   C110      1.0  0.85780  0.48160  0.40610  1.0000 0.0868527337
C   C111      1.0  0.64220  0.51840  0.90610  1.0000 0.0868527337
C   C112      1.0  0.85780  0.01840  0.59390  1.0000 0.0868527337
C   C113      1.0  0.56410  0.92200  0.02040  1.0000 0.0828897177
C   C114      1.0  0.93590  0.42200  0.47960  1.0000 0.0828897177
C   C115      1.0  0.56410  0.57800  0.97960  1.0000 0.0828897177
C   C116      1.0  0.93590  0.07800  0.52040  1.0000 0.0828897177
C   C117      1.0  0.70600  0.96370  0.97840  1.0000 0.1504756331
C   C118      1.0  0.79400  0.46370  0.52160  1.0000 0.1504756331
C   C119      1.0  0.70600  0.53630  0.02160  1.0000 0.1504756331
C   C120      1.0  0.79400  0.03630  0.47840  1.0000 0.1504756331
C   C121      1.0  0.68390  0.98070  0.91340  1.0000 -0.1760323656
C   C122      1.0  0.81610  0.48070  0.58660  1.0000 -0.1760323656
C   C123      1.0  0.68390  0.51930  0.08660  1.0000 -0.1760323656
C   C124      1.0  0.81610  0.01930  0.41340  1.0000 -0.1760323656
C   C125      1.0  0.74730  0.98810  0.86560  1.0000 -0.0854303132
C   C126      1.0  0.75270  0.48810  0.63440  1.0000 -0.0854303132
C   C127      1.0  0.74730  0.51190  0.13440  1.0000 -0.0854303132
C   C128      1.0  0.75270  0.01190  0.36560  1.0000 -0.0854303132
C   C129      1.0  0.83070  0.97700  0.88240  1.0000 -0.0116888271
C   C130      1.0  0.66930  0.47700  0.61760  1.0000 -0.0116888271
C   C131      1.0  0.83070  0.52300  0.11760  1.0000 -0.0116888271
C   C132      1.0  0.66930  0.02300  0.38240  1.0000 -0.0116888271
C   C133      1.0  0.85260  0.95880  0.94880  1.0000 -0.079009413
C   C134      1.0  0.64740  0.45880  0.55120  1.0000 -0.079009413
C   C135      1.0  0.85260  0.54120  0.05120  1.0000 -0.079009413
C   C136      1.0  0.64740  0.04120  0.44880  1.0000 -0.079009413
C   C137      1.0  0.79020  0.95090  0.99730  1.0000 -0.189287144
C   C138      1.0  0.70980  0.45090  0.50270  1.0000 -0.189287144
C   C139      1.0  0.79020  0.54910  0.00270  1.0000 -0.189287144
C   C140      1.0  0.70980  0.04910  0.49730  1.0000 -0.189287144
C   C141      1.0  0.89970  0.98310  0.82990  1.0000 0.5524826168
C   C142      1.0  0.60030  0.48310  0.67010  1.0000 0.5524826168
C   C143      1.0  0.89970  0.51690  0.17010  1.0000 0.5524826168
C   C144      1.0  0.60030  0.01690  0.32990  1.0000 0.5524826168
N   N1        1.0  0.51730  0.84920  0.85690  1.0000 -0.2199358822
N   N2        1.0  0.98270  0.34920  0.64310  1.0000 -0.2199358822
N   N3        1.0  0.51730  0.65080  0.14310  1.0000 -0.2199358822
N   N4        1.0  0.98270  0.15080  0.35690  1.0000 -0.2199358822
N   N5        1.0  0.53270  0.90000  0.80280  1.0000 -0.1995381036
N   N6        1.0  0.96730  0.40000  0.69720  1.0000 -0.1995381036
N   N7        1.0  0.53270  0.60000  0.19720  1.0000 -0.1995381036
N   N8        1.0  0.96730  0.10000  0.30280  1.0000 -0.1995381036
N   N9        1.0  0.62860  0.80920  0.79980  1.0000 -0.0116888271
N   N10       1.0  0.87140  0.30920  0.70020  1.0000 -0.0116888271
N   N11       1.0  0.62860  0.69080  0.20020  1.0000 -0.0116888271
N   N12       1.0  0.87140  0.19080  0.29980  1.0000 -0.0116888271
N   N13       1.0  0.48110  0.07370  0.92400  1.0000 -0.1995381036
N   N14       1.0  0.01890  0.57370  0.57600  1.0000 -0.1995381036
N   N15       1.0  0.48110  0.42630  0.07600  1.0000 -0.1995381036
N   N16       1.0  0.01890  0.92630  0.42400  1.0000 -0.1995381036
N   N17       1.0  0.43050  0.03450  0.87710  1.0000 -0.189287144
N   N18       1.0  0.06950  0.53450  0.62290  1.0000 -0.189287144
N   N19       1.0  0.43050  0.46550  0.12290  1.0000 -0.189287144
N   N20       1.0  0.06950  0.96550  0.37710  1.0000 -0.189287144
N   N21       1.0  0.35850  0.04450  0.97090  1.0000 -0.0154339273
N   N22       1.0  0.14150  0.54450  0.52910  1.0000 -0.0154339273
N   N23       1.0  0.35850  0.45550  0.02910  1.0000 -0.0154339273
N   N24       1.0  0.14150  0.95550  0.47090  1.0000 -0.0154339273
N   N25       1.0  0.48270  0.15080  0.14310  1.0000 -0.2199358822
N   N26       1.0  0.01730  0.65080  0.35690  1.0000 -0.2199358822
N   N27       1.0  0.48270  0.34920  0.85690  1.0000 -0.2199358822
N   N28       1.0  0.01730  0.84920  0.64310  1.0000 -0.2199358822
N   N29       1.0  0.46730  0.10000  0.19720  1.0000 -0.1995381036
N   N30       1.0  0.03270  0.60000  0.30280  1.0000 -0.1995381036
N   N31       1.0  0.46730  0.40000  0.80280  1.0000 -0.1995381036
N   N32       1.0  0.03270  0.90000  0.69720  1.0000 -0.1995381036
N   N33       1.0  0.37140  0.19080  0.20020  1.0000 -0.0116888271
N   N34       1.0  0.12860  0.69080  0.29980  1.0000 -0.0116888271
N   N35       1.0  0.37140  0.30920  0.79980  1.0000 -0.0116888271
N   N36       1.0  0.12860  0.80920  0.70020  1.0000 -0.0116888271
N   N37       1.0  0.51890  0.92630  0.07600  1.0000 -0.1995381036
N   N38       1.0  0.98110  0.42630  0.42400  1.0000 -0.1995381036
N   N39       1.0  0.51890  0.57370  0.92400  1.0000 -0.1995381036
N   N40       1.0  0.98110  0.07370  0.57600  1.0000 -0.1995381036
N   N41       1.0  0.56950  0.96550  0.12290  1.0000 -0.189287144
N   N42       1.0  0.93050  0.46550  0.37710  1.0000 -0.189287144
N   N43       1.0  0.56950  0.53450  0.87710  1.0000 -0.189287144
N   N44       1.0  0.93050  0.03450  0.62290  1.0000 -0.189287144
N   N45       1.0  0.64150  0.95550  0.02910  1.0000 -0.0154339273
N   N46       1.0  0.85850  0.45550  0.47090  1.0000 -0.0154339273
N   N47       1.0  0.64150  0.54450  0.97090  1.0000 -0.0154339273
N   N48       1.0  0.85850  0.04450  0.52910  1.0000 -0.0154339273
O   O1        1.0  0.99640  0.66930  0.73670  1.0000 -0.5508314203
O   O2        1.0  0.50360  0.16930  0.76330  1.0000 -0.5508314203
O   O3        1.0  0.99640  0.83070  0.26330  1.0000 -0.5508314203
O   O4        1.0  0.50360  0.33070  0.23670  1.0000 -0.5508314203
O   O5        1.0  0.91740  0.56200  0.73110  1.0000 -0.5508314203
O   O6        1.0  0.58260  0.06200  0.76890  1.0000 -0.5508314203
O   O7        1.0  0.91740  0.93800  0.26890  1.0000 -0.5508314203
O   O8        1.0  0.58260  0.43800  0.23110  1.0000 -0.5508314203
O   O9        1.0  0.12470  0.00190  0.23000  1.0000 -0.5508314203
O   O10       1.0  0.37530  0.50190  0.27000  1.0000 -0.5508314203
O   O11       1.0  0.12470  0.49810  0.77000  1.0000 -0.5508314203
O   O12       1.0  0.37530  0.99810  0.73000  1.0000 -0.5508314203
O   O13       1.0  0.02550  0.02440  0.15470  1.0000 -0.5330429108
O   O14       1.0  0.47450  0.52440  0.34530  1.0000 -0.5330429108
O   O15       1.0  0.02550  0.47560  0.84530  1.0000 -0.5330429108
O   O16       1.0  0.47450  0.97560  0.65470  1.0000 -0.5330429108
O   O17       1.0  0.00360  0.33070  0.26330  1.0000 -0.5508314203
O   O18       1.0  0.49640  0.83070  0.23670  1.0000 -0.5508314203
O   O19       1.0  0.00360  0.16930  0.73670  1.0000 -0.5508314203
O   O20       1.0  0.49640  0.66930  0.76330  1.0000 -0.5508314203
O   O21       1.0  0.08260  0.43800  0.26890  1.0000 -0.5508314203
O   O22       1.0  0.41740  0.93800  0.23110  1.0000 -0.5508314203
O   O23       1.0  0.08260  0.06200  0.73110  1.0000 -0.5508314203
O   O24       1.0  0.41740  0.56200  0.76890  1.0000 -0.5508314203
O   O25       1.0  0.87530  0.99810  0.77000  1.0000 -0.5508314203
O   O26       1.0  0.62470  0.49810  0.73000  1.0000 -0.5508314203
O   O27       1.0  0.87530  0.50190  0.23000  1.0000 -0.5508314203
O   O28       1.0  0.62470  0.00190  0.27000  1.0000 -0.5508314203
O   O29       1.0  0.97450  0.97560  0.84530  1.0000 -0.5330429108
O   O30       1.0  0.52550  0.47560  0.65470  1.0000 -0.5330429108
O   O31       1.0  0.97450  0.52440  0.15470  1.0000 -0.5330429108
O   O32       1.0  0.52550  0.02440  0.34530  1.0000 -0.5330429108
