# DDEC6 charges by PACMAN v1.1 (https://github.com/mtap-research/PACMAN-charge/)
data_2010[Cd][nan]3[ASR]7
_chemical_formula_sum              "Cd8 H72 C112 N8 O40"
_cell_length_a       18.5271
_cell_length_b       18.5271
_cell_length_c       16.679
_cell_angle_alpha    73.7726
_cell_angle_beta     106.227
_cell_angle_gamma    148.5

_symmetry_space_group_name_H-M    "P 1"
_symmetry_Int_Tables_number       1

loop_
  _symmetry_equiv_pos_as_xyz
  'x, y, z'

loop_
  _atom_site_type_symbol
  _atom_site_label
  _atom_site_symmetry_multiplicity
  _atom_site_fract_x
  _atom_site_fract_y
  _atom_site_fract_z
  _atom_site_occupancy
  _atom_site_charge
Cd  Cd1       1.0  0.00744  0.58906  0.87757  1.0000 1.0597447766
Cd  Cd2       1.0  0.58906  0.00744  0.62243  1.0000 1.0597447766
Cd  Cd3       1.0  0.99256  0.41094  0.12243  1.0000 1.0597447766
Cd  Cd4       1.0  0.41094  0.99256  0.37757  1.0000 1.0597447766
Cd  Cd5       1.0  0.88142  0.18766  0.78206  1.0000 0.8883716477
Cd  Cd6       1.0  0.18766  0.88142  0.71794  1.0000 0.8883716477
Cd  Cd7       1.0  0.11858  0.81234  0.21794  1.0000 0.8883716477
Cd  Cd8       1.0  0.81234  0.11858  0.28206  1.0000 0.8883716477
H   H1        1.0  0.70930  0.48350  0.85410  1.0000 0.1309841729
H   H2        1.0  0.48350  0.70930  0.64590  1.0000 0.1309841729
H   H3        1.0  0.29070  0.51650  0.14590  1.0000 0.1309841729
H   H4        1.0  0.51650  0.29070  0.35410  1.0000 0.1309841729
H   H5        1.0  0.79550  0.80250  0.86240  1.0000 0.1309841729
H   H6        1.0  0.80250  0.79550  0.63760  1.0000 0.1309841729
H   H7        1.0  0.20450  0.19750  0.13760  1.0000 0.1309841729
H   H8        1.0  0.19750  0.20450  0.36240  1.0000 0.1309841729
H   H9        1.0  0.96030  0.87350  0.82070  1.0000 0.1185293797
H   H10       1.0  0.87350  0.96030  0.67930  1.0000 0.1185293797
H   H11       1.0  0.03970  0.12650  0.17930  1.0000 0.1185293797
H   H12       1.0  0.12650  0.03970  0.32070  1.0000 0.1185293797
H   H13       1.0  0.38420  0.21280  0.83000  1.0000 0.1185293797
H   H14       1.0  0.21280  0.38420  0.67000  1.0000 0.1185293797
H   H15       1.0  0.61580  0.78720  0.17000  1.0000 0.1185293797
H   H16       1.0  0.78720  0.61580  0.33000  1.0000 0.1185293797
H   H17       1.0  0.51700  0.28340  0.88270  1.0000 0.1125285806
H   H18       1.0  0.28340  0.51700  0.61730  1.0000 0.1125285806
H   H19       1.0  0.48300  0.71660  0.11730  1.0000 0.1125285806
H   H20       1.0  0.71660  0.48300  0.38270  1.0000 0.1125285806
H   H21       1.0  0.17570  0.97850  0.89240  1.0000 0.1423620418
H   H22       1.0  0.97850  0.17570  0.60760  1.0000 0.1423620418
H   H23       1.0  0.82430  0.02150  0.10760  1.0000 0.1423620418
H   H24       1.0  0.02150  0.82430  0.39240  1.0000 0.1423620418
H   H25       1.0  0.05910  0.82450  0.00630  1.0000 0.1125285806
H   H26       1.0  0.82450  0.05910  0.49370  1.0000 0.1125285806
H   H27       1.0  0.94090  0.17550  0.99370  1.0000 0.1125285806
H   H28       1.0  0.17550  0.94090  0.50630  1.0000 0.1125285806
H   H29       1.0  0.37660  0.11740  0.15560  1.0000 0.1001172712
H   H30       1.0  0.11740  0.37660  0.34440  1.0000 0.1001172712
H   H31       1.0  0.62340  0.88260  0.84440  1.0000 0.1001172712
H   H32       1.0  0.88260  0.62340  0.65560  1.0000 0.1001172712
H   H33       1.0  0.50120  0.27560  0.04510  1.0000 0.1309841729
H   H34       1.0  0.27560  0.50120  0.45490  1.0000 0.1309841729
H   H35       1.0  0.49880  0.72440  0.95490  1.0000 0.1309841729
H   H36       1.0  0.72440  0.49880  0.54510  1.0000 0.1309841729
H   H37       1.0  0.58200  0.67340  0.91490  1.0000 0.1125285806
H   H38       1.0  0.67340  0.58200  0.58510  1.0000 0.1125285806
H   H39       1.0  0.41800  0.32660  0.08510  1.0000 0.1125285806
H   H40       1.0  0.32660  0.41800  0.41490  1.0000 0.1125285806
H   H41       1.0  0.57880  0.67180  0.82020  1.0000 0.1001172712
H   H42       1.0  0.67180  0.57880  0.67980  1.0000 0.1001172712
H   H43       1.0  0.42120  0.32820  0.17980  1.0000 0.1001172712
H   H44       1.0  0.32820  0.42120  0.32020  1.0000 0.1001172712
H   H45       1.0  0.42740  0.65880  0.80180  1.0000 0.1423620418
H   H46       1.0  0.65880  0.42740  0.69820  1.0000 0.1423620418
H   H47       1.0  0.57260  0.34120  0.19820  1.0000 0.1423620418
H   H48       1.0  0.34120  0.57260  0.30180  1.0000 0.1423620418
H   H49       1.0  0.20080  0.51120  0.78020  1.0000 0.1185293797
H   H50       1.0  0.51120  0.20080  0.71980  1.0000 0.1185293797
H   H51       1.0  0.79920  0.48880  0.21980  1.0000 0.1185293797
H   H52       1.0  0.48880  0.79920  0.28020  1.0000 0.1185293797
H   H53       1.0  0.07020  0.19640  0.87360  1.0000 0.1125285806
H   H54       1.0  0.19640  0.07020  0.62640  1.0000 0.1125285806
H   H55       1.0  0.92980  0.80360  0.12640  1.0000 0.1125285806
H   H56       1.0  0.80360  0.92980  0.37360  1.0000 0.1125285806
H   H57       1.0  0.29050  0.33850  0.90700  1.0000 0.1575009389
H   H58       1.0  0.33850  0.29050  0.59300  1.0000 0.1575009389
H   H59       1.0  0.70950  0.66150  0.09300  1.0000 0.1575009389
H   H60       1.0  0.66150  0.70950  0.40700  1.0000 0.1575009389
H   H61       1.0  0.55870  0.16570  0.90650  1.0000 0.1185293797
H   H62       1.0  0.16570  0.55870  0.59350  1.0000 0.1185293797
H   H63       1.0  0.44130  0.83430  0.09350  1.0000 0.1185293797
H   H64       1.0  0.83430  0.44130  0.40650  1.0000 0.1185293797
H   H65       1.0  0.28310  0.86750  0.07990  1.0000 0.1309841729
H   H66       1.0  0.86750  0.28310  0.42010  1.0000 0.1309841729
H   H67       1.0  0.71690  0.13250  0.92010  1.0000 0.1309841729
H   H68       1.0  0.13250  0.71690  0.57990  1.0000 0.1309841729
H   H69       1.0  0.67970  0.23810  0.14850  1.0000 0.1309841729
H   H70       1.0  0.23810  0.67970  0.35150  1.0000 0.1309841729
H   H71       1.0  0.32030  0.76190  0.85150  1.0000 0.1309841729
H   H72       1.0  0.76190  0.32030  0.64850  1.0000 0.1309841729
C   C1        1.0  0.95900  0.73680  0.79780  1.0000 0.5597532851
C   C2        1.0  0.73680  0.95900  0.70220  1.0000 0.5597532851
C   C3        1.0  0.04100  0.26320  0.20220  1.0000 0.5597532851
C   C4        1.0  0.26320  0.04100  0.29780  1.0000 0.5597532851
C   C5        1.0  0.85500  0.68960  0.83150  1.0000 -0.0380011343
C   C6        1.0  0.68960  0.85500  0.66850  1.0000 -0.0380011343
C   C7        1.0  0.14500  0.31040  0.16850  1.0000 -0.0380011343
C   C8        1.0  0.31040  0.14500  0.33150  1.0000 -0.0380011343
C   C9        1.0  0.72570  0.54710  0.85350  1.0000 -0.2477919459
C   C10       1.0  0.54710  0.72570  0.64650  1.0000 -0.2477919459
C   C11       1.0  0.27430  0.45290  0.14650  1.0000 -0.2477919459
C   C12       1.0  0.45290  0.27430  0.35350  1.0000 -0.2477919459
C   C13       1.0  0.62420  0.50300  0.87410  1.0000 0.1423620418
C   C14       1.0  0.50300  0.62420  0.62590  1.0000 0.1423620418
C   C15       1.0  0.37580  0.49700  0.12590  1.0000 0.1423620418
C   C16       1.0  0.49700  0.37580  0.37410  1.0000 0.1423620418
C   C17       1.0  0.64810  0.59610  0.87560  1.0000 0.1423620418
C   C18       1.0  0.59610  0.64810  0.62440  1.0000 0.1423620418
C   C19       1.0  0.35190  0.40390  0.12440  1.0000 0.1423620418
C   C20       1.0  0.40390  0.35190  0.37560  1.0000 0.1423620418
C   C21       1.0  0.77690  0.73850  0.85840  1.0000 -0.2423999893
C   C22       1.0  0.73850  0.77690  0.64160  1.0000 -0.2423999893
C   C23       1.0  0.22310  0.26150  0.14160  1.0000 -0.2423999893
C   C24       1.0  0.26150  0.22310  0.35840  1.0000 -0.2423999893
C   C25       1.0  0.87560  0.77980  0.83490  1.0000 -0.1088453183
C   C26       1.0  0.77980  0.87560  0.66510  1.0000 -0.1088453183
C   C27       1.0  0.12440  0.22020  0.16510  1.0000 -0.1088453183
C   C28       1.0  0.22020  0.12440  0.33490  1.0000 -0.1088453183
C   C29       1.0  0.44080  0.25240  0.88260  1.0000 -0.0697549215
C   C30       1.0  0.25240  0.44080  0.61740  1.0000 -0.0697549215
C   C31       1.0  0.55920  0.74760  0.11740  1.0000 -0.0697549215
C   C32       1.0  0.74760  0.55920  0.38260  1.0000 -0.0697549215
C   C33       1.0  0.35620  0.14800  0.95470  1.0000 0.1471566757
C   C34       1.0  0.14800  0.35620  0.54530  1.0000 0.1471566757
C   C35       1.0  0.64380  0.85200  0.04530  1.0000 0.1471566757
C   C36       1.0  0.85200  0.64380  0.45470  1.0000 0.1471566757
C   C37       1.0  0.21920  0.00900  0.94570  1.0000 -0.189291746
C   C38       1.0  0.00900  0.21920  0.55430  1.0000 -0.189291746
C   C39       1.0  0.78080  0.99100  0.05430  1.0000 -0.189291746
C   C40       1.0  0.99100  0.78080  0.44570  1.0000 -0.189291746
C   C41       1.0  0.14850  0.91730  0.01420  1.0000 0.090663101
C   C42       1.0  0.91730  0.14850  0.48580  1.0000 0.090663101
C   C43       1.0  0.85150  0.08270  0.98580  1.0000 0.090663101
C   C44       1.0  0.08270  0.85150  0.51420  1.0000 0.090663101
C   C45       1.0  0.33530  0.08930  0.10160  1.0000 0.069694755
C   C46       1.0  0.08930  0.33530  0.39840  1.0000 0.069694755
C   C47       1.0  0.66470  0.91070  0.89840  1.0000 0.069694755
C   C48       1.0  0.91070  0.66470  0.60160  1.0000 0.069694755
C   C49       1.0  0.41070  0.18430  0.03530  1.0000 -0.1797695147
C   C50       1.0  0.18430  0.41070  0.46470  1.0000 -0.1797695147
C   C51       1.0  0.58930  0.81570  0.96470  1.0000 -0.1797695147
C   C52       1.0  0.81570  0.58930  0.53530  1.0000 -0.1797695147
C   C53       1.0  0.53300  0.61380  0.87130  1.0000 -0.0697549215
C   C54       1.0  0.61380  0.53300  0.62870  1.0000 -0.0697549215
C   C55       1.0  0.46700  0.38620  0.12870  1.0000 -0.0697549215
C   C56       1.0  0.38620  0.46700  0.37130  1.0000 -0.0697549215
C   C57       1.0  0.38350  0.51490  0.85760  1.0000 0.1309841729
C   C58       1.0  0.51490  0.38350  0.64240  1.0000 0.1309841729
C   C59       1.0  0.61650  0.48510  0.14240  1.0000 0.1309841729
C   C60       1.0  0.48510  0.61650  0.35760  1.0000 0.1309841729
C   C61       1.0  0.35550  0.56490  0.81880  1.0000 -0.2035732405
C   C62       1.0  0.56490  0.35550  0.68120  1.0000 -0.2035732405
C   C63       1.0  0.64450  0.43510  0.18120  1.0000 -0.2035732405
C   C64       1.0  0.43510  0.64450  0.31880  1.0000 -0.2035732405
C   C65       1.0  0.21840  0.47500  0.80460  1.0000 0.1001172712
C   C66       1.0  0.47500  0.21840  0.69540  1.0000 0.1001172712
C   C67       1.0  0.78160  0.52500  0.19540  1.0000 0.1001172712
C   C68       1.0  0.52500  0.78160  0.30460  1.0000 0.1001172712
C   C69       1.0  0.14290  0.29130  0.86100  1.0000 0.0592659222
C   C70       1.0  0.29130  0.14290  0.63900  1.0000 0.0592659222
C   C71       1.0  0.85710  0.70870  0.13900  1.0000 0.0592659222
C   C72       1.0  0.70870  0.85710  0.36100  1.0000 0.0592659222
C   C73       1.0  0.27420  0.37540  0.87950  1.0000 -0.1736007357
C   C74       1.0  0.37540  0.27420  0.62050  1.0000 -0.1736007357
C   C75       1.0  0.72580  0.62460  0.12050  1.0000 -0.1736007357
C   C76       1.0  0.62460  0.72580  0.37950  1.0000 -0.1736007357
C   C77       1.0  0.78740  0.36480  0.00110  1.0000 0.5806784643
C   C78       1.0  0.36480  0.78740  0.49890  1.0000 0.5806784643
C   C79       1.0  0.21260  0.63520  0.99890  1.0000 0.5806784643
C   C80       1.0  0.63520  0.21260  0.50110  1.0000 0.5806784643
C   C81       1.0  0.64350  0.22390  0.02470  1.0000 -0.0380011343
C   C82       1.0  0.22390  0.64350  0.47530  1.0000 -0.0380011343
C   C83       1.0  0.35650  0.77610  0.97530  1.0000 -0.0380011343
C   C84       1.0  0.77610  0.35650  0.52470  1.0000 -0.0380011343
C   C85       1.0  0.53850  0.13570  0.96230  1.0000 -0.1169141593
C   C86       1.0  0.13570  0.53850  0.53770  1.0000 -0.1169141593
C   C87       1.0  0.46150  0.86430  0.03770  1.0000 -0.1169141593
C   C88       1.0  0.86430  0.46150  0.46230  1.0000 -0.1169141593
C   C89       1.0  0.40110  0.00030  0.98290  1.0000 -0.0380011343
C   C90       1.0  0.00030  0.40110  0.51710  1.0000 -0.0380011343
C   C91       1.0  0.59890  0.99970  0.01710  1.0000 -0.0380011343
C   C92       1.0  0.99970  0.59890  0.48290  1.0000 -0.0380011343
C   C93       1.0  0.37240  0.95720  0.06580  1.0000 -0.1088453183
C   C94       1.0  0.95720  0.37240  0.43420  1.0000 -0.1088453183
C   C95       1.0  0.62760  0.04280  0.93420  1.0000 -0.1088453183
C   C96       1.0  0.04280  0.62760  0.56580  1.0000 -0.1088453183
C   C97       1.0  0.47360  0.04500  0.12820  1.0000 -0.0314166617
C   C98       1.0  0.04500  0.47360  0.37180  1.0000 -0.0314166617
C   C99       1.0  0.52640  0.95500  0.87180  1.0000 -0.0314166617
C   C100      1.0  0.95500  0.52640  0.62820  1.0000 -0.0314166617
C   C101      1.0  0.61060  0.17900  0.10650  1.0000 -0.1169141593
C   C102      1.0  0.17900  0.61060  0.39350  1.0000 -0.1169141593
C   C103      1.0  0.38940  0.82100  0.89350  1.0000 -0.1169141593
C   C104      1.0  0.82100  0.38940  0.60650  1.0000 -0.1169141593
C   C105      1.0  0.29050  0.90650  0.91380  1.0000 0.5806784643
C   C106      1.0  0.90650  0.29050  0.58620  1.0000 0.5806784643
C   C107      1.0  0.70950  0.09350  0.08620  1.0000 0.5806784643
C   C108      1.0  0.09350  0.70950  0.41380  1.0000 0.5806784643
C   C109      1.0  0.44110  0.00870  0.21650  1.0000 0.5597532851
C   C110      1.0  0.00870  0.44110  0.28350  1.0000 0.5597532851
C   C111      1.0  0.55890  0.99130  0.78350  1.0000 0.5597532851
C   C112      1.0  0.99130  0.55890  0.71650  1.0000 0.5597532851
N   N1        1.0  0.11220  0.33920  0.82490  1.0000 -0.2477919459
N   N2        1.0  0.33920  0.11220  0.67510  1.0000 -0.2477919459
N   N3        1.0  0.88780  0.66080  0.17510  1.0000 -0.2477919459
N   N4        1.0  0.66080  0.88780  0.32490  1.0000 -0.2477919459
N   N5        1.0  0.20350  0.95670  0.09170  1.0000 -0.2477919459
N   N6        1.0  0.95670  0.20350  0.40830  1.0000 -0.2477919459
N   N7        1.0  0.79650  0.04330  0.90830  1.0000 -0.2477919459
N   N8        1.0  0.04330  0.79650  0.59170  1.0000 -0.2477919459
O   O1        1.0  0.93220  0.64700  0.79760  1.0000 -0.5963185119
O   O2        1.0  0.64700  0.93220  0.70240  1.0000 -0.5963185119
O   O3        1.0  0.06780  0.35300  0.20240  1.0000 -0.5963185119
O   O4        1.0  0.35300  0.06780  0.29760  1.0000 -0.5963185119
O   O5        1.0  0.06310  0.86030  0.76800  1.0000 -0.5635710346
O   O6        1.0  0.86030  0.06310  0.73200  1.0000 -0.5635710346
O   O7        1.0  0.93690  0.13970  0.23200  1.0000 -0.5635710346
O   O8        1.0  0.13970  0.93690  0.26800  1.0000 -0.5635710346
O   O9        1.0  0.49200  0.36560  0.89330  1.0000 -0.189291746
O   O10       1.0  0.36560  0.49200  0.60670  1.0000 -0.189291746
O   O11       1.0  0.50800  0.63440  0.10670  1.0000 -0.189291746
O   O12       1.0  0.63440  0.50800  0.39330  1.0000 -0.189291746
O   O13       1.0  0.53570  0.53730  0.89490  1.0000 -0.1736007357
O   O14       1.0  0.53730  0.53570  0.60510  1.0000 -0.1736007357
O   O15       1.0  0.46430  0.46270  0.10510  1.0000 -0.1736007357
O   O16       1.0  0.46270  0.46430  0.39490  1.0000 -0.1736007357
O   O17       1.0  0.80170  0.40670  0.92490  1.0000 -0.5396336825
O   O18       1.0  0.40670  0.80170  0.57510  1.0000 -0.5396336825
O   O19       1.0  0.19830  0.59330  0.07510  1.0000 -0.5396336825
O   O20       1.0  0.59330  0.19830  0.42490  1.0000 -0.5396336825
O   O21       1.0  0.88780  0.43820  0.05700  1.0000 -0.593422203
O   O22       1.0  0.43820  0.88780  0.44300  1.0000 -0.593422203
O   O23       1.0  0.11220  0.56180  0.94300  1.0000 -0.593422203
O   O24       1.0  0.56180  0.11220  0.55700  1.0000 -0.593422203
O   O25       1.0  0.31700  0.95280  0.84010  1.0000 -0.5396336825
O   O26       1.0  0.95280  0.31700  0.65990  1.0000 -0.5396336825
O   O27       1.0  0.68300  0.04720  0.15990  1.0000 -0.5396336825
O   O28       1.0  0.04720  0.68300  0.34010  1.0000 -0.5396336825
O   O29       1.0  0.17420  0.78180  0.93850  1.0000 -0.5759493323
O   O30       1.0  0.78180  0.17420  0.56150  1.0000 -0.5759493323
O   O31       1.0  0.82580  0.21820  0.06150  1.0000 -0.5759493323
O   O32       1.0  0.21820  0.82580  0.43850  1.0000 -0.5759493323
O   O33       1.0  0.31660  0.89840  0.23600  1.0000 -0.5759493323
O   O34       1.0  0.89840  0.31660  0.26400  1.0000 -0.5759493323
O   O35       1.0  0.68340  0.10160  0.76400  1.0000 -0.5759493323
O   O36       1.0  0.10160  0.68340  0.73600  1.0000 -0.5759493323
O   O37       1.0  0.53830  0.08890  0.27180  1.0000 -0.5173679875
O   O38       1.0  0.08890  0.53830  0.22820  1.0000 -0.5173679875
O   O39       1.0  0.46170  0.91110  0.72820  1.0000 -0.5173679875
O   O40       1.0  0.91110  0.46170  0.77180  1.0000 -0.5173679875
