# DDEC6 charges by PACMAN v1.1 (https://github.com/mtap-research/PACMAN-charge/)
data_2010[Dy][pcu]3[ASR]1
_chemical_formula_sum              "Dy4 H36 C84 S6 O36"
_cell_length_a       12.4996
_cell_length_b       17.7008
_cell_length_c       22.3869
_cell_angle_alpha    79.657
_cell_angle_beta     80.452
_cell_angle_gamma    81.326

_symmetry_space_group_name_H-M    "P 1"
_symmetry_Int_Tables_number       1

loop_
  _symmetry_equiv_pos_as_xyz
  'x, y, z'

loop_
  _atom_site_type_symbol
  _atom_site_label
  _atom_site_symmetry_multiplicity
  _atom_site_fract_x
  _atom_site_fract_y
  _atom_site_fract_z
  _atom_site_occupancy
  _atom_site_charge
Dy  Dy1       1.0  0.34663  0.97079  0.00208  1.0000 2.0799519854
Dy  Dy2       1.0  0.65337  0.02921  0.99792  1.0000 2.0799519854
Dy  Dy3       1.0  0.12882  0.57010  0.48195  1.0000 2.0799519854
Dy  Dy4       1.0  0.87118  0.42990  0.51805  1.0000 2.0799519854
H   H1        1.0  0.24640  0.99270  0.79830  1.0000 0.128968928
H   H2        1.0  0.75360  0.00730  0.20170  1.0000 0.128968928
H   H3        1.0  0.28840  0.76980  0.88050  1.0000 0.128968928
H   H4        1.0  0.71160  0.23020  0.11950  1.0000 0.128968928
H   H5        1.0  0.22260  0.95420  0.70850  1.0000 0.1208530284
H   H6        1.0  0.77740  0.04580  0.29150  1.0000 0.1208530284
H   H7        1.0  0.20070  0.89140  0.61900  1.0000 0.1208530284
H   H8        1.0  0.79930  0.10860  0.38100  1.0000 0.1208530284
H   H9        1.0  0.24200  0.62150  0.66790  1.0000 0.1406279823
H   H10       1.0  0.75800  0.37850  0.33210  1.0000 0.1406279823
H   H11       1.0  0.17940  0.81520  0.54850  1.0000 0.1208530284
H   H12       1.0  0.82060  0.18480  0.45150  1.0000 0.1208530284
H   H13       1.0  0.30930  0.11410  0.87470  1.0000 0.1406279823
H   H14       1.0  0.69070  0.88590  0.12530  1.0000 0.1406279823
H   H15       1.0  0.54580  0.25340  0.84890  1.0000 0.1208530284
H   H16       1.0  0.45420  0.74660  0.15110  1.0000 0.1208530284
H   H17       1.0  0.46970  0.33333  0.76740  1.0000 0.1208530284
H   H18       1.0  0.53030  0.66667  0.23260  1.0000 0.1208530284
H   H19       1.0  0.36450  0.40340  0.68240  1.0000 0.1208530284
H   H20       1.0  0.63550  0.59660  0.31760  1.0000 0.1208530284
H   H21       1.0  0.25260  0.44860  0.60410  1.0000 0.1208530284
H   H22       1.0  0.74740  0.55140  0.39590  1.0000 0.1208530284
H   H23       1.0  0.06890  0.27390  0.67150  1.0000 0.1456612038
H   H24       1.0  0.93110  0.72610  0.32850  1.0000 0.1406279823
H   H25       1.0  0.04480  0.30460  0.36340  1.0000 0.1406279823
H   H26       1.0  0.95520  0.69540  0.63660  1.0000 0.1406279823
H   H27       1.0  0.28530  0.43960  0.33700  1.0000 0.1208530284
H   H28       1.0  0.71470  0.56040  0.66300  1.0000 0.1208530284
H   H29       1.0  0.38130  0.37460  0.25770  1.0000 0.1208530284
H   H30       1.0  0.61870  0.62540  0.74230  1.0000 0.1208530284
H   H31       1.0  0.45800  0.28900  0.17800  1.0000 0.128968928
H   H32       1.0  0.54200  0.71100  0.82200  1.0000 0.128968928
H   H33       1.0  0.23200  0.10530  0.16980  1.0000 0.1406279823
H   H34       1.0  0.76800  0.89470  0.83020  1.0000 0.1406279823
H   H35       1.0  0.50840  0.20070  0.11100  1.0000 0.1208530284
H   H36       1.0  0.49160  0.79930  0.88900  1.0000 0.1208530284
C   C1        1.0  0.27590  0.91530  0.90780  1.0000 0.5613141495
C   C2        1.0  0.72410  0.08470  0.09220  1.0000 0.5613141495
C   C3        1.0  0.26560  0.88530  0.84920  1.0000 0.0190202998
C   C4        1.0  0.73440  0.11470  0.15080  1.0000 0.0190202998
C   C5        1.0  0.24900  0.94040  0.79660  1.0000 -0.0783375663
C   C6        1.0  0.75100  0.05960  0.20340  1.0000 -0.0783375663
C   C7        1.0  0.27520  0.80670  0.84650  1.0000 -0.1302634365
C   C8        1.0  0.72480  0.19330  0.15350  1.0000 -0.1302634365
C   C9        1.0  0.26440  0.78550  0.79220  1.0000 -0.0699265369
C   C10       1.0  0.73560  0.21450  0.20780  1.0000 -0.0699265369
C   C11       1.0  0.23650  0.91750  0.74260  1.0000 -0.1088353812
C   C12       1.0  0.76350  0.08250  0.25740  1.0000 -0.1088353812
C   C13       1.0  0.24510  0.83870  0.73990  1.0000 0.0402941803
C   C14       1.0  0.75490  0.16130  0.26010  1.0000 0.0402941803
C   C15       1.0  0.23220  0.80230  0.68680  1.0000 0.0312491494
C   C16       1.0  0.76780  0.19770  0.31320  1.0000 0.0312491494
C   C17       1.0  0.24550  0.72170  0.69990  1.0000 -0.0617398781
C   C18       1.0  0.75450  0.27830  0.30010  1.0000 -0.0617398781
C   C19       1.0  0.20830  0.83770  0.62930  1.0000 -0.1191266228
C   C20       1.0  0.79170  0.16230  0.37070  1.0000 -0.1191266228
C   C21       1.0  0.23310  0.67520  0.65800  1.0000 -0.1191266228
C   C22       1.0  0.76690  0.32480  0.34200  1.0000 -0.1191266228
C   C23       1.0  0.19570  0.79180  0.58710  1.0000 -0.0783375663
C   C24       1.0  0.80430  0.20820  0.41290  1.0000 -0.0783375663
C   C25       1.0  0.20720  0.71120  0.60170  1.0000 0.0077528178
C   C26       1.0  0.79280  0.28880  0.39830  1.0000 0.0077528178
C   C27       1.0  0.19150  0.66130  0.55510  1.0000 0.5613141495
C   C28       1.0  0.80850  0.33870  0.44490  1.0000 0.5613141495
C   C29       1.0  0.49670  0.12410  0.91870  1.0000 0.6291756469
C   C30       1.0  0.50330  0.87590  0.08130  1.0000 0.6291756469
C   C31       1.0  0.43670  0.17600  0.87070  1.0000 -0.0024434041
C   C32       1.0  0.56330  0.82400  0.12930  1.0000 -0.0024434041
C   C33       1.0  0.34130  0.15750  0.85450  1.0000 -0.1088353812
C   C34       1.0  0.65870  0.84250  0.14550  1.0000 -0.1088353812
C   C35       1.0  0.48260  0.24150  0.83780  1.0000 -0.0783375663
C   C36       1.0  0.51740  0.75850  0.16220  1.0000 -0.0783375663
C   C37       1.0  0.43770  0.29030  0.78870  1.0000 -0.1302634365
C   C38       1.0  0.56230  0.70970  0.21130  1.0000 -0.1302634365
C   C39       1.0  0.29660  0.20740  0.80640  1.0000 -0.0617398781
C   C40       1.0  0.70340  0.79260  0.19360  1.0000 -0.0617398781
C   C41       1.0  0.34270  0.27050  0.77390  1.0000 0.0190202998
C   C42       1.0  0.65730  0.72950  0.22610  1.0000 0.0312491494
C   C43       1.0  0.28140  0.31240  0.72150  1.0000 0.0543118554
C   C44       1.0  0.71860  0.68760  0.27850  1.0000 0.0543118554
C   C45       1.0  0.19010  0.27540  0.71810  1.0000 -0.0783375663
C   C46       1.0  0.80990  0.72460  0.28190  1.0000 -0.0783375663
C   C47       1.0  0.30590  0.37800  0.67980  1.0000 -0.1476372343
C   C48       1.0  0.69410  0.62200  0.32020  1.0000 -0.1476372343
C   C49       1.0  0.23810  0.40510  0.63290  1.0000 -0.0783375663
C   C50       1.0  0.76190  0.59490  0.36710  1.0000 -0.0783375663
C   C51       1.0  0.12680  0.30030  0.67340  1.0000 -0.0884840054
C   C52       1.0  0.87320  0.69970  0.32660  1.0000 -0.0884840054
C   C53       1.0  0.14740  0.36510  0.63030  1.0000 -0.0360965257
C   C54       1.0  0.85260  0.63490  0.36970  1.0000 -0.0360965257
C   C55       1.0  0.07770  0.39460  0.58200  1.0000 0.6397484479
C   C56       1.0  0.92230  0.60540  0.41800  1.0000 0.6397484479
C   C57       1.0  0.09590  0.42380  0.40810  1.0000 0.6397484479
C   C58       1.0  0.90410  0.57620  0.59190  1.0000 0.6397484479
C   C59       1.0  0.15610  0.38020  0.35670  1.0000 -0.0024434041
C   C60       1.0  0.84390  0.61980  0.64330  1.0000 -0.0024434041
C   C61       1.0  0.11060  0.31950  0.34210  1.0000 -0.1088353812
C   C62       1.0  0.88940  0.68050  0.65790  1.0000 -0.1088353812
C   C63       1.0  0.25580  0.39970  0.32610  1.0000 -0.0884840054
C   C64       1.0  0.74420  0.60030  0.67390  1.0000 -0.0884840054
C   C65       1.0  0.16780  0.28220  0.29430  1.0000 -0.0699265369
C   C66       1.0  0.83220  0.71780  0.70570  1.0000 -0.0699265369
C   C67       1.0  0.31460  0.36050  0.27840  1.0000 -0.1191266228
C   C68       1.0  0.68540  0.63950  0.72160  1.0000 -0.1191266228
C   C69       1.0  0.26890  0.29990  0.26350  1.0000 0.0312491494
C   C70       1.0  0.73110  0.70010  0.73650  1.0000 0.0312491494
C   C71       1.0  0.31540  0.25090  0.21560  1.0000 0.0312491494
C   C72       1.0  0.68460  0.74910  0.78440  1.0000 0.0312491494
C   C73       1.0  0.24940  0.19540  0.21220  1.0000 -0.0617398781
C   C74       1.0  0.75060  0.80460  0.78780  1.0000 -0.0617398781
C   C75       1.0  0.41230  0.25240  0.17730  1.0000 -0.1302634365
C   C76       1.0  0.58770  0.74760  0.82270  1.0000 -0.1302634365
C   C77       1.0  0.27840  0.14100  0.17140  1.0000 -0.1088353812
C   C78       1.0  0.72160  0.85900  0.82860  1.0000 -0.1040929866
C   C79       1.0  0.44240  0.19890  0.13710  1.0000 -0.0783375663
C   C80       1.0  0.55760  0.80110  0.86290  1.0000 -0.0783375663
C   C81       1.0  0.37710  0.14270  0.13450  1.0000 -0.0177924734
C   C82       1.0  0.62290  0.85730  0.86550  1.0000 -0.0177924734
C   C83       1.0  0.41520  0.08550  0.08930  1.0000 0.6397484479
C   C84       1.0  0.58480  0.91450  0.91070  1.0000 0.6397484479
S   S1        1.0  0.28000  0.68940  0.77559  1.0000 0.9771120089
S   S2        1.0  0.72000  0.31060  0.22441  1.0000 0.9771120089
S   S3        1.0  0.17930  0.19360  0.77600  1.0000 0.9697855252
S   S4        1.0  0.82070  0.80640  0.22400  1.0000 0.9697855252
S   S5        1.0  0.12630  0.20480  0.26520  1.0000 0.9615270334
S   S6        1.0  0.87370  0.79520  0.73480  1.0000 0.9615270334
O   O1        1.0  0.28710  0.98530  0.90400  1.0000 -0.6334511799
O   O2        1.0  0.71290  0.01470  0.09600  1.0000 -0.6334511799
O   O3        1.0  0.27690  0.86670  0.95900  1.0000 -0.6462370318
O   O4        1.0  0.72310  0.13330  0.04100  1.0000 -0.6462370318
O   O5        1.0  0.15880  0.69610  0.50510  1.0000 -0.6387325985
O   O6        1.0  0.84120  0.30390  0.49490  1.0000 -0.6387325985
O   O7        1.0  0.20690  0.59000  0.56990  1.0000 -0.6231612724
O   O8        1.0  0.79310  0.41000  0.43010  1.0000 -0.6231612724
O   O9        1.0  0.20040  0.64430  0.81500  1.0000 -0.4931322349
O   O10       1.0  0.79960  0.35570  0.18500  1.0000 -0.4931322349
O   O11       1.0  0.39420  0.65540  0.77240  1.0000 -0.5196001572
O   O12       1.0  0.60580  0.34460  0.22760  1.0000 -0.5196001572
O   O13       1.0  0.44960  0.06740  0.94940  1.0000 -0.7405428451
O   O14       1.0  0.55040  0.93260  0.05060  1.0000 -0.7405428451
O   O15       1.0  0.58810  0.13610  0.92680  1.0000 -0.6063812536
O   O16       1.0  0.41190  0.86390  0.07320  1.0000 -0.6063812536
O   O17       1.0  0.09670  0.45500  0.54340  1.0000 -0.7405428451
O   O18       1.0  0.90330  0.54500  0.45660  1.0000 -0.7405428451
O   O19       1.0  0.99840  0.35770  0.58110  1.0000 -0.6387325985
O   O20       1.0  0.00160  0.64230  0.41890  1.0000 -0.6387325985
O   O21       1.0  0.20010  0.12530  0.74950  1.0000 -0.4987772467
O   O22       1.0  0.79990  0.87470  0.25050  1.0000 -0.4987772467
O   O23       1.0  0.07910  0.20390  0.81890  1.0000 -0.528122918
O   O24       1.0  0.92090  0.79610  0.18110  1.0000 -0.5196001572
O   O25       1.0  0.01940  0.39500  0.44200  1.0000 -0.5899987382
O   O26       1.0  0.98060  0.60500  0.55800  1.0000 -0.5899987382
O   O27       1.0  0.13210  0.48630  0.41030  1.0000 -0.6874264044
O   O28       1.0  0.86790  0.51370  0.58970  1.0000 -0.6874264044
O   O29       1.0  0.35120  0.03890  0.08470  1.0000 -0.6592286688
O   O30       1.0  0.64880  0.96110  0.91530  1.0000 -0.6592286688
O   O31       1.0  0.12080  0.13690  0.31100  1.0000 -0.5196001572
O   O32       1.0  0.87920  0.86310  0.68900  1.0000 -0.5196001572
O   O33       1.0  0.03370  0.23250  0.23220  1.0000 -0.4987772467
O   O34       1.0  0.96630  0.76750  0.76780  1.0000 -0.5061780375
O   O35       1.0  0.50940  0.09220  0.05900  1.0000 -0.6592286688
O   O36       1.0  0.49060  0.90780  0.94100  1.0000 -0.6592286688
