# DDEC6 charges by PACMAN v1.1 (https://github.com/mtap-research/PACMAN-charge/)
data_2010[Co][nbo]3[ASR]1
_chemical_formula_sum              "Co3 H48 C72 N30"
_cell_length_a       9.1985
_cell_length_b       15.9576
_cell_length_c       16.0966
_cell_angle_alpha    73.171
_cell_angle_beta     74.44
_cell_angle_gamma    76.392

_symmetry_space_group_name_H-M    "P 1"
_symmetry_Int_Tables_number       1

loop_
  _symmetry_equiv_pos_as_xyz
  'x, y, z'

loop_
  _atom_site_type_symbol
  _atom_site_label
  _atom_site_symmetry_multiplicity
  _atom_site_fract_x
  _atom_site_fract_y
  _atom_site_fract_z
  _atom_site_occupancy
  _atom_site_charge
Co  Co1       1.0  0.50000  0.50000  0.00000  1.0000 0.569772277
Co  Co2       1.0  0.00000  0.00000  0.50000  1.0000 0.5617305375
Co  Co3       1.0  0.00000  0.50000  0.50000  1.0000 0.569772277
H   H1        1.0  0.02610  0.32410  0.97020  1.0000 0.1403996117
H   H2        1.0  0.97390  0.67590  0.02980  1.0000 0.1403996117
H   H3        1.0  0.03720  0.26890  0.84870  1.0000 0.1089075245
H   H4        1.0  0.96280  0.73110  0.15130  1.0000 0.1089075245
H   H5        1.0  0.82760  0.30850  0.78440  1.0000 0.1197983034
H   H6        1.0  0.17240  0.69150  0.21560  1.0000 0.1197983034
H   H7        1.0  0.61350  0.39820  0.83970  1.0000 0.1023662537
H   H8        1.0  0.38650  0.60180  0.16030  1.0000 0.1023662537
H   H9        1.0  0.81730  0.61120  0.35780  1.0000 0.0941680669
H   H10       1.0  0.18270  0.38880  0.64220  1.0000 0.0941680669
H   H11       1.0  0.74040  0.60220  0.23770  1.0000 0.1300292369
H   H12       1.0  0.25960  0.39780  0.76230  1.0000 0.1300292369
H   H13       1.0  0.01750  0.36880  0.24410  1.0000 0.1403996117
H   H14       1.0  0.98250  0.63120  0.75590  1.0000 0.1403996117
H   H15       1.0  0.08420  0.38230  0.36610  1.0000 0.1023662537
H   H16       1.0  0.91580  0.61770  0.63390  1.0000 0.1023662537
H   H17       1.0  0.04860  0.98920  0.18780  1.0000 0.1403996117
H   H18       1.0  0.95140  0.01080  0.81220  1.0000 0.1403996117
H   H19       1.0  0.89850  0.88290  0.21090  1.0000 0.1197983034
H   H20       1.0  0.10150  0.11710  0.78910  1.0000 0.1197983034
H   H21       1.0  0.78570  0.81630  0.35650  1.0000 0.1300292369
H   H22       1.0  0.21430  0.18370  0.64350  1.0000 0.1300292369
H   H23       1.0  0.82500  0.85840  0.47100  1.0000 0.1089075245
H   H24       1.0  0.17500  0.14160  0.52900  1.0000 0.1089075245
H   H25       1.0  0.36710  0.34230  0.00600  1.0000 0.1023662537
H   H26       1.0  0.63290  0.65770  0.99400  1.0000 0.1023662537
H   H27       1.0  0.26790  0.22230  0.09580  1.0000 0.1403996117
H   H28       1.0  0.73210  0.77770  0.90420  1.0000 0.1403996117
H   H29       1.0  0.34800  0.27970  0.30140  1.0000 0.1403996117
H   H30       1.0  0.65200  0.72030  0.69860  1.0000 0.1403996117
H   H31       1.0  0.44730  0.39970  0.20620  1.0000 0.1089075245
H   H32       1.0  0.55270  0.60030  0.79380  1.0000 0.1089075245
H   H33       1.0  0.50870  0.58410  0.35140  1.0000 0.1300292369
H   H34       1.0  0.49130  0.41590  0.64860  1.0000 0.1300292369
H   H35       1.0  0.43930  0.73760  0.31790  1.0000 0.1197983034
H   H36       1.0  0.56070  0.26240  0.68210  1.0000 0.1197983034
H   H37       1.0  0.18260  0.79920  0.35780  1.0000 0.1197983034
H   H38       1.0  0.81740  0.20080  0.64220  1.0000 0.1197983034
H   H39       1.0  0.00800  0.70770  0.42990  1.0000 0.0941680669
H   H40       1.0  0.99200  0.29230  0.57010  1.0000 0.0941680669
H   H41       1.0  0.63800  0.04150  0.54120  1.0000 0.1023662537
H   H42       1.0  0.36200  0.95850  0.45880  1.0000 0.1023662537
H   H43       1.0  0.43740  0.15420  0.52630  1.0000 0.1197983034
H   H44       1.0  0.56260  0.84580  0.47370  1.0000 0.1197983034
H   H45       1.0  0.73130  0.32050  0.40210  1.0000 0.1300292369
H   H46       1.0  0.26870  0.67950  0.59790  1.0000 0.1300292369
H   H47       1.0  0.92490  0.20290  0.41960  1.0000 0.0941680669
H   H48       1.0  0.07510  0.79710  0.58040  1.0000 0.0941680669
C   C1        1.0  0.81220  0.47400  0.15410  1.0000 0.2482683994
C   C2        1.0  0.18780  0.52600  0.84590  1.0000 0.2482683994
C   C3        1.0  0.79230  0.43250  0.04770  1.0000 0.2262323312
C   C4        1.0  0.20770  0.56750  0.95230  1.0000 0.2262323312
C   C5        1.0  0.81130  0.39300  0.97390  1.0000 0.1657202579
C   C6        1.0  0.18870  0.60700  0.02610  1.0000 0.1657202579
C   C7        1.0  0.94310  0.33860  0.94300  1.0000 -0.169498271
C   C8        1.0  0.05690  0.66140  0.05700  1.0000 -0.169498271
C   C9        1.0  0.94990  0.30590  0.87080  1.0000 -0.0508966893
C   C10       1.0  0.05010  0.69410  0.12920  1.0000 -0.0508966893
C   C11       1.0  0.82530  0.32930  0.83310  1.0000 -0.1616157803
C   C12       1.0  0.17470  0.67070  0.16690  1.0000 -0.1616157803
C   C13       1.0  0.69700  0.38320  0.86650  1.0000 0.0711530387
C   C14       1.0  0.30300  0.61680  0.13350  1.0000 0.0711530387
C   C15       1.0  0.85680  0.56090  0.33540  1.0000 0.0593366511
C   C16       1.0  0.14320  0.43910  0.66460  1.0000 0.0593366511
C   C17       1.0  0.81020  0.55610  0.26310  1.0000 -0.1965653889
C   C18       1.0  0.18980  0.44390  0.73690  1.0000 -0.1965653889
C   C19       1.0  0.86700  0.48310  0.22830  1.0000 0.0816763155
C   C20       1.0  0.13300  0.51690  0.77170  1.0000 0.0816763155
C   C21       1.0  0.97310  0.41830  0.26710  1.0000 -0.1847967096
C   C22       1.0  0.02690  0.58170  0.73290  1.0000 -0.1847967096
C   C23       1.0  0.01340  0.42720  0.34020  1.0000 0.0711530387
C   C24       1.0  0.98660  0.57280  0.65980  1.0000 0.0711530387
C   C25       1.0  0.22390  0.16080  0.26830  1.0000 0.2380735315
C   C26       1.0  0.77610  0.83920  0.73170  1.0000 0.2380735315
C   C27       1.0  0.10680  0.05350  0.30990  1.0000 0.2192244678
C   C28       1.0  0.89320  0.94650  0.69010  1.0000 0.2192244678
C   C29       1.0  0.01980  0.98630  0.31690  1.0000 0.1503911055
C   C30       1.0  0.98020  0.01370  0.68310  1.0000 0.1503911055
C   C31       1.0  0.00150  0.96260  0.24510  1.0000 -0.1616157803
C   C32       1.0  0.99850  0.03740  0.75490  1.0000 -0.1616157803
C   C33       1.0  0.91300  0.89910  0.25880  1.0000 -0.0508966893
C   C34       1.0  0.08700  0.10090  0.74120  1.0000 -0.0508966893
C   C35       1.0  0.84560  0.85950  0.34530  1.0000 -0.169498271
C   C36       1.0  0.15440  0.14050  0.65470  1.0000 -0.169498271
C   C37       1.0  0.86940  0.88550  0.41320  1.0000 0.0593366511
C   C38       1.0  0.13060  0.11450  0.58680  1.0000 0.0593366511
C   C39       1.0  0.36350  0.32980  0.06660  1.0000 0.0711530387
C   C40       1.0  0.63650  0.67020  0.93340  1.0000 0.0711530387
C   C41       1.0  0.30350  0.25760  0.12020  1.0000 -0.169498271
C   C42       1.0  0.69650  0.74240  0.87980  1.0000 -0.169498271
C   C43       1.0  0.29490  0.23630  0.20990  1.0000 0.0816763155
C   C44       1.0  0.70510  0.76370  0.79010  1.0000 0.0816763155
C   C45       1.0  0.35060  0.29130  0.24100  1.0000 -0.1965653889
C   C46       1.0  0.64940  0.70870  0.75900  1.0000 -0.1965653889
C   C47       1.0  0.41040  0.36350  0.18350  1.0000 0.0711530387
C   C48       1.0  0.58960  0.63650  0.81650  1.0000 0.0711530387
C   C49       1.0  0.43520  0.32950  0.45710  1.0000 0.2380735315
C   C50       1.0  0.56480  0.67050  0.54290  1.0000 0.2380735315
C   C51       1.0  0.32860  0.46180  0.43210  1.0000 0.2192244678
C   C52       1.0  0.67140  0.53820  0.56790  1.0000 0.2192244678
C   C53       1.0  0.29570  0.55870  0.40820  1.0000 0.155696813
C   C54       1.0  0.70430  0.44130  0.59180  1.0000 0.155696813
C   C55       1.0  0.40680  0.61040  0.36640  1.0000 -0.1616157803
C   C56       1.0  0.59320  0.38960  0.63360  1.0000 -0.1616157803
C   C57       1.0  0.36590  0.70140  0.34670  1.0000 -0.0380624272
C   C58       1.0  0.63410  0.29860  0.65330  1.0000 -0.0380624272
C   C59       1.0  0.21380  0.73790  0.37060  1.0000 -0.1515151971
C   C60       1.0  0.78620  0.26210  0.62940  1.0000 -0.1515151971
C   C61       1.0  0.11020  0.68270  0.41330  1.0000 0.0593366511
C   C62       1.0  0.88980  0.31730  0.58670  1.0000 0.0593366511
C   C63       1.0  0.65780  0.09860  0.51310  1.0000 0.0593366511
C   C64       1.0  0.34220  0.90140  0.48690  1.0000 0.0593366511
C   C65       1.0  0.53650  0.16640  0.50450  1.0000 -0.1922647171
C   C66       1.0  0.46350  0.83360  0.49550  1.0000 -0.1965653889
C   C67       1.0  0.55810  0.25170  0.46440  1.0000 0.0816763155
C   C68       1.0  0.44190  0.74830  0.53560  1.0000 0.0816763155
C   C69       1.0  0.70880  0.26410  0.43140  1.0000 -0.1922647171
C   C70       1.0  0.29120  0.73590  0.56860  1.0000 -0.1922647171
C   C71       1.0  0.82480  0.19260  0.44240  1.0000 0.0711530387
C   C72       1.0  0.17520  0.80740  0.55760  1.0000 0.0711530387
N   N1        1.0  0.66420  0.48840  0.06850  1.0000 -0.2148073875
N   N2        1.0  0.33580  0.51160  0.93150  1.0000 -0.2148073875
N   N3        1.0  0.67500  0.51680  0.13780  1.0000 -0.279143516
N   N4        1.0  0.32500  0.48320  0.86220  1.0000 -0.279143516
N   N5        1.0  0.88930  0.41950  0.10090  1.0000 -0.4087906989
N   N6        1.0  0.11070  0.58050  0.89910  1.0000 -0.4087906989
N   N7        1.0  0.68750  0.41510  0.93660  1.0000 -0.2392991471
N   N8        1.0  0.31250  0.58490  0.06340  1.0000 -0.2392991471
N   N9        1.0  0.95590  0.49700  0.37540  1.0000 -0.2201846031
N   N10       1.0  0.04410  0.50300  0.62460  1.0000 -0.2201846031
N   N11       1.0  0.12700  0.06820  0.38360  1.0000 -0.2265993991
N   N12       1.0  0.87300  0.93180  0.61640  1.0000 -0.2265993991
N   N13       1.0  0.20410  0.13870  0.35680  1.0000 -0.279143516
N   N14       1.0  0.79590  0.86130  0.64320  1.0000 -0.279143516
N   N15       1.0  0.16570  0.10950  0.23540  1.0000 -0.4087906989
N   N16       1.0  0.83430  0.89050  0.76460  1.0000 -0.4087906989
N   N17       1.0  0.95330  0.94820  0.40180  1.0000 -0.2479458861
N   N18       1.0  0.04670  0.05180  0.59820  1.0000 -0.2479458861
N   N19       1.0  0.41730  0.38360  0.09600  1.0000 -0.2201846031
N   N20       1.0  0.58270  0.61640  0.90400  1.0000 -0.2201846031
N   N21       1.0  0.21690  0.41460  0.47430  1.0000 -0.2392991471
N   N22       1.0  0.78310  0.58540  0.52570  1.0000 -0.2392991471
N   N23       1.0  0.28550  0.32760  0.49080  1.0000 -0.2876980417
N   N24       1.0  0.71450  0.67240  0.50920  1.0000 -0.2876980417
N   N25       1.0  0.46830  0.41260  0.42000  1.0000 -0.4087906989
N   N26       1.0  0.53170  0.58740  0.58000  1.0000 -0.4087906989
N   N27       1.0  0.14800  0.59430  0.43240  1.0000 -0.2392991471
N   N28       1.0  0.85200  0.40570  0.56760  1.0000 -0.2392991471
N   N29       1.0  0.80410  0.11030  0.48300  1.0000 -0.2201846031
N   N30       1.0  0.19590  0.88970  0.51700  1.0000 -0.2201846031
