# DDEC6 charges by PACMAN v1.1 (https://github.com/mtap-research/PACMAN-charge/)
data_2010[U][she]3[ASR]1
_chemical_formula_sum              "U12 C24 O40"
_cell_length_a       14.4537
_cell_length_b       14.4537
_cell_length_c       14.4537
_cell_angle_alpha    109.471
_cell_angle_beta     109.471
_cell_angle_gamma    109.471

_symmetry_space_group_name_H-M    "P 1"
_symmetry_Int_Tables_number       1

loop_
  _symmetry_equiv_pos_as_xyz
  'x, y, z'

loop_
  _atom_site_type_symbol
  _atom_site_label
  _atom_site_symmetry_multiplicity
  _atom_site_fract_x
  _atom_site_fract_y
  _atom_site_fract_z
  _atom_site_occupancy
  _atom_site_charge
U   U1        1.0  0.38443  0.53905  0.37486  1.0000 2.4492999792
U   U2        1.0  0.16419  0.00957  0.62514  1.0000 2.441909043
U   U3        1.0  0.83581  0.46095  0.84538  1.0000 2.441909043
U   U4        1.0  0.61557  0.99043  0.15462  1.0000 2.441909043
U   U5        1.0  0.37486  0.38443  0.53905  1.0000 2.441909043
U   U6        1.0  0.62514  0.16419  0.00957  1.0000 2.4492999792
U   U7        1.0  0.84538  0.83581  0.46095  1.0000 2.4492999792
U   U8        1.0  0.15462  0.61557  0.99043  1.0000 2.4492999792
U   U9        1.0  0.53905  0.37486  0.38443  1.0000 2.441909043
U   U10       1.0  0.00957  0.62514  0.16419  1.0000 2.4492999792
U   U11       1.0  0.46095  0.84538  0.83581  1.0000 2.4492999792
U   U12       1.0  0.99043  0.15462  0.61557  1.0000 2.441909043
C   C1        1.0  0.27190  0.70860  0.44010  1.0000 0.1463099569
C   C2        1.0  0.26850  0.83180  0.55990  1.0000 0.1441003284
C   C3        1.0  0.73150  0.29140  0.56330  1.0000 0.1463099569
C   C4        1.0  0.72810  0.16820  0.43670  1.0000 0.1441003284
C   C5        1.0  0.44010  0.27190  0.70860  1.0000 0.1441003284
C   C6        1.0  0.55990  0.26850  0.83180  1.0000 0.1441003284
C   C7        1.0  0.56330  0.73150  0.29140  1.0000 0.1441003284
C   C8        1.0  0.43670  0.72810  0.16820  1.0000 0.1463099569
C   C9        1.0  0.70860  0.44010  0.27190  1.0000 0.1441003284
C   C10       1.0  0.83180  0.55990  0.26850  1.0000 0.1463099569
C   C11       1.0  0.29140  0.56330  0.73150  1.0000 0.1441003284
C   C12       1.0  0.16820  0.43670  0.72810  1.0000 0.1463099569
C   C13       1.0  0.20890  0.76890  0.43620  1.0000 0.1630281835
C   C14       1.0  0.33270  0.77270  0.56380  1.0000 0.1630281835
C   C15       1.0  0.66730  0.23110  0.44000  1.0000 0.1630281835
C   C16       1.0  0.79110  0.22730  0.56000  1.0000 0.1630281835
C   C17       1.0  0.43620  0.20890  0.76890  1.0000 0.1630281835
C   C18       1.0  0.56380  0.33270  0.77270  1.0000 0.1630281835
C   C19       1.0  0.44000  0.66730  0.23110  1.0000 0.1630281835
C   C20       1.0  0.56000  0.79110  0.22730  1.0000 0.1662242815
C   C21       1.0  0.76890  0.43620  0.20890  1.0000 0.1630281835
C   C22       1.0  0.77270  0.56380  0.33270  1.0000 0.1630281835
C   C23       1.0  0.23110  0.44000  0.66730  1.0000 0.1630281835
C   C24       1.0  0.22730  0.56000  0.79110  1.0000 0.1662242815
O   O1        1.0  0.50970  0.49560  0.31150  1.0000 -1.2122455189
O   O2        1.0  0.18410  0.19820  0.68850  1.0000 -1.2122455189
O   O3        1.0  0.81590  0.50440  0.01410  1.0000 -1.2122455189
O   O4        1.0  0.49030  0.80180  0.98590  1.0000 -1.2197739125
O   O5        1.0  0.31150  0.50970  0.49560  1.0000 -1.2197739125
O   O6        1.0  0.68850  0.18410  0.19820  1.0000 -1.2122455189
O   O7        1.0  0.01410  0.81590  0.50440  1.0000 -1.2122455189
O   O8        1.0  0.98590  0.49030  0.80180  1.0000 -1.2122455189
O   O9        1.0  0.49560  0.31150  0.50970  1.0000 -1.2197739125
O   O10       1.0  0.19820  0.68850  0.18410  1.0000 -1.2122455189
O   O11       1.0  0.50440  0.01410  0.81590  1.0000 -1.2197739125
O   O12       1.0  0.80180  0.98590  0.49030  1.0000 -1.2197739125
O   O13       1.0  0.13400  0.76870  0.36190  1.0000 -0.5478708752
O   O14       1.0  0.40680  0.77210  0.63810  1.0000 -0.5478708752
O   O15       1.0  0.59320  0.23130  0.36530  1.0000 -0.5478708752
O   O16       1.0  0.86600  0.22790  0.63470  1.0000 -0.5478708752
O   O17       1.0  0.36190  0.13400  0.76870  1.0000 -0.5478708752
O   O18       1.0  0.63810  0.40680  0.77210  1.0000 -0.5478708752
O   O19       1.0  0.36530  0.59320  0.23130  1.0000 -0.5478708752
O   O20       1.0  0.63470  0.86600  0.22790  1.0000 -0.5478708752
O   O21       1.0  0.76870  0.36190  0.13400  1.0000 -0.5478708752
O   O22       1.0  0.77210  0.63810  0.40680  1.0000 -0.5478708752
O   O23       1.0  0.23130  0.36530  0.59320  1.0000 -0.5478708752
O   O24       1.0  0.22790  0.63470  0.86600  1.0000 -0.5478708752
O   O25       1.0  0.26960  0.63000  0.36500  1.0000 -0.5478708752
O   O26       1.0  0.26500  0.90460  0.63500  1.0000 -0.5478708752
O   O27       1.0  0.73500  0.37000  0.63960  1.0000 -0.5427443468
O   O28       1.0  0.73040  0.09540  0.36040  1.0000 -0.5427443468
O   O29       1.0  0.36500  0.26960  0.63000  1.0000 -0.5427443468
O   O30       1.0  0.63500  0.26500  0.90460  1.0000 -0.5427443468
O   O31       1.0  0.63960  0.73500  0.37000  1.0000 -0.5427443468
O   O32       1.0  0.36040  0.73040  0.09540  1.0000 -0.5427443468
O   O33       1.0  0.63000  0.36500  0.26960  1.0000 -0.5478708752
O   O34       1.0  0.90460  0.63500  0.26500  1.0000 -0.5478708752
O   O35       1.0  0.37000  0.63960  0.73500  1.0000 -0.5427443468
O   O36       1.0  0.09540  0.36040  0.73040  1.0000 -0.5427443468
O   O37       1.0  0.45920  0.45920  0.45920  1.0000 -1.3281223893
O   O38       1.0  0.00000  0.00000  0.54080  1.0000 -1.350757432
O   O39       1.0  0.00000  0.54080  0.00000  1.0000 -1.350757432
O   O40       1.0  0.54080  0.00000  0.00000  1.0000 -1.3281223893
