# DDEC6 charges by PACMAN v1.1 (https://github.com/mtap-research/PACMAN-charge/)
data_2010[Cd][nan]3[ASR]2
_chemical_formula_sum              "Cd6 H72 C99 O36"
_cell_length_a       15.42
_cell_length_b       15.842
_cell_length_c       17.819
_cell_angle_alpha    112.763
_cell_angle_beta     112.203
_cell_angle_gamma    95.425

_symmetry_space_group_name_H-M    "P 1"
_symmetry_Int_Tables_number       1

loop_
  _symmetry_equiv_pos_as_xyz
  'x, y, z'

loop_
  _atom_site_type_symbol
  _atom_site_label
  _atom_site_symmetry_multiplicity
  _atom_site_fract_x
  _atom_site_fract_y
  _atom_site_fract_z
  _atom_site_occupancy
  _atom_site_charge
Cd  Cd1       1.0  0.64696  0.31376  0.04123  1.0000 1.0918295071
Cd  Cd2       1.0  0.77177  0.55051  0.07633  1.0000 0.9541666792
Cd  Cd3       1.0  0.40738  0.18065  0.00141  1.0000 0.9613195346
Cd  Cd4       1.0  0.99681  0.68594  0.09314  1.0000 1.0986944125
Cd  Cd5       1.0  0.14723  0.92200  0.15135  1.0000 0.9785678671
Cd  Cd6       1.0  0.22606  0.10488  0.07819  1.0000 1.1096219704
H   H1        1.0  0.49910  0.63600  0.74180  1.0000 0.100377812
H   H2        1.0  0.52760  0.61580  0.65990  1.0000 0.100377812
H   H3        1.0  0.04980  0.03520  0.33370  1.0000 0.1506242142
H   H4        1.0  0.43590  0.75990  0.60300  1.0000 0.0941801411
H   H5        1.0  0.42890  0.65550  0.53260  1.0000 0.1103631334
H   H6        1.0  0.48360  0.55520  0.85920  1.0000 0.1196753333
H   H7        1.0  0.42000  0.40560  0.40230  1.0000 0.1396922544
H   H8        1.0  0.06730  0.39800  0.54820  1.0000 0.100377812
H   H9        1.0  0.06670  0.29910  0.47380  1.0000 0.100377812
H   H10       1.0  0.95620  0.14290  0.53950  1.0000 0.0941801411
H   H11       1.0  0.88740  0.17730  0.47020  1.0000 0.1103631334
H   H12       1.0  0.32370  0.51520  0.74570  1.0000 0.1196753333
H   H13       1.0  0.34180  0.52380  0.62710  1.0000 0.100377812
H   H14       1.0  0.26830  0.54420  0.54810  1.0000 0.100377812
H   H15       1.0  0.13740  0.69030  0.41640  1.0000 0.1396922544
H   H16       1.0  0.73680  0.38320  0.24090  1.0000 0.1103631334
H   H17       1.0  0.26870  0.25700  0.73860  1.0000 0.1196753333
H   H18       1.0  0.11630  0.25510  0.66920  1.0000 0.100377812
H   H19       1.0  0.14300  0.22790  0.58560  1.0000 0.100377812
H   H20       1.0  0.77360  0.31720  0.34080  1.0000 0.1396922544
H   H21       1.0  0.37710  0.82340  0.36520  1.0000 0.1103631334
H   H22       1.0  0.42030  0.75380  0.46410  1.0000 0.1103631334
H   H23       1.0  0.09670  0.75030  0.31300  1.0000 0.1196753333
H   H24       1.0  0.42550  0.30530  0.86080  1.0000 0.1274701686
H   H25       1.0  0.36120  0.24880  0.30270  1.0000 0.1196753333
H   H26       1.0  0.39400  0.78420  0.72680  1.0000 0.100377812
H   H27       1.0  0.28700  0.71300  0.65420  1.0000 0.100377812
H   H28       1.0  0.78680  0.84390  0.31520  1.0000 0.1103631334
H   H29       1.0  0.69350  0.83150  0.39920  1.0000 0.100377812
H   H30       1.0  0.71120  0.80110  0.47870  1.0000 0.100377812
H   H31       1.0  0.65460  0.52460  0.22370  1.0000 0.1274701686
H   H32       1.0  0.25470  0.92740  0.89690  1.0000 0.1196753333
H   H33       1.0  0.55270  0.88530  0.52760  1.0000 0.0941801411
H   H34       1.0  0.65640  0.88720  0.59820  1.0000 0.1103631334
H   H35       1.0  0.84680  0.00650  0.42200  1.0000 0.1103631334
H   H36       1.0  0.80770  0.98440  0.52440  1.0000 0.0941801411
H   H37       1.0  0.77690  0.05440  0.59710  1.0000 0.100377812
H   H38       1.0  0.62120  0.17460  0.71670  1.0000 0.1396922544
H   H39       1.0  0.54130  0.93090  0.40530  1.0000 0.100377812
H   H40       1.0  0.60780  0.03400  0.48800  1.0000 0.100377812
H   H41       1.0  0.23810  0.37420  0.50850  1.0000 0.1196753333
H   H42       1.0  0.17690  0.21330  0.40550  1.0000 0.1103631334
H   H43       1.0  0.49580  0.94510  0.77720  1.0000 0.1103631334
H   H44       1.0  0.69390  0.68430  0.33660  1.0000 0.1196753333
H   H45       1.0  0.11020  0.15840  0.75430  1.0000 0.1103631334
H   H46       1.0  0.31270  0.85000  0.79460  1.0000 0.1274701686
H   H47       1.0  0.48750  0.03280  0.36140  1.0000 0.1274701686
H   H48       1.0  0.94330  0.09980  0.65410  1.0000 0.1103631334
H   H49       1.0  0.56770  0.21970  0.82940  1.0000 0.1103631334
H   H50       1.0  0.91300  0.90940  0.74420  1.0000 0.1396922544
H   H51       1.0  0.65490  0.63980  0.79840  1.0000 0.1274701686
H   H52       1.0  0.26780  0.71640  0.97360  1.0000 0.1196753333
H   H53       1.0  0.06370  0.42610  0.42990  1.0000 0.1196753333
H   H54       1.0  0.55640  0.90180  0.67240  1.0000 0.1196753333
H   H55       1.0  0.40940  0.07850  0.24790  1.0000 0.1274701686
H   H56       1.0  0.07080  0.98720  0.86550  1.0000 0.1103631334
H   H57       1.0  0.38610  0.46820  0.20660  1.0000 0.1196753333
H   H58       1.0  0.71080  0.02250  0.29390  1.0000 0.1274701686
H   H59       1.0  0.63900  0.08580  0.19450  1.0000 0.1196753333
H   H60       1.0  0.02520  0.40110  0.67020  1.0000 0.100377812
H   H61       1.0  0.91940  0.35040  0.58390  1.0000 0.100377812
H   H62       1.0  0.02630  0.49800  0.33600  1.0000 0.1196753333
H   H63       1.0  0.81040  0.68600  0.91400  1.0000 0.1196753333
H   H64       1.0  0.92080  0.46180  0.71420  1.0000 0.1196753333
H   H65       1.0  0.41670  0.62940  0.30310  1.0000 0.1274701686
H   H66       1.0  0.32340  0.64070  0.86830  1.0000 0.1196753333
H   H67       1.0  0.89470  0.54550  0.84260  1.0000 0.1196753333
H   H68       1.0  0.87890  0.22420  0.74430  1.0000 0.1274701686
H   H69       1.0  0.98360  0.87680  0.22500  1.0000 0.1196753333
H   H70       1.0  0.69020  0.91340  0.83610  1.0000 0.1274701686
H   H71       1.0  0.84860  0.95040  0.94370  1.0000 0.1196753333
H   H72       1.0  0.82260  0.30130  0.84910  1.0000 0.1196753333
C   C1        1.0  0.39770  0.65440  0.63620  1.0000 0.0760598268
C   C2        1.0  0.02200  0.28010  0.56590  1.0000 0.0760598268
C   C3        1.0  0.50100  0.65820  0.69750  1.0000 -0.0985453426
C   C4        1.0  0.47030  0.43360  0.86910  1.0000 -0.0396420151
C   C5        1.0  0.99500  0.99700  0.32920  1.0000 -0.1982312366
C   C6        1.0  0.28210  0.71850  0.45190  1.0000 0.2625714377
C   C7        1.0  0.39810  0.69180  0.56930  1.0000 -0.0895277735
C   C8        1.0  0.43960  0.49490  0.83580  1.0000 -0.0895277735
C   C9        1.0  0.37010  0.36630  0.40290  1.0000 -0.1833157628
C   C10       1.0  0.03140  0.32950  0.50830  1.0000 -0.0805228536
C   C11       1.0  0.23420  0.79210  0.32720  1.0000 -0.0705291836
C   C12       1.0  0.87870  0.44550  0.27470  1.0000 -0.0580058298
C   C13       1.0  0.95540  0.17720  0.50320  1.0000 -0.0705291836
C   C14       1.0  0.92260  0.36480  0.39320  1.0000 0.2502650519
C   C15       1.0  0.34480  0.47140  0.76800  1.0000 -0.2286037873
C   C16       1.0  0.33770  0.55050  0.58440  1.0000 -0.0805228536
C   C17       1.0  0.18670  0.71660  0.40560  1.0000 -0.209345807
C   C18       1.0  0.80310  0.39180  0.27910  1.0000 -0.0985453426
C   C19       1.0  0.31100  0.31890  0.76430  1.0000 -0.2286037873
C   C20       1.0  0.20870  0.83660  0.26670  1.0000 0.5787020729
C   C21       1.0  0.95260  0.03720  0.38580  1.0000 0.2625714377
C   C22       1.0  0.12080  0.27510  0.62430  1.0000 -0.0895277735
C   C23       1.0  0.82450  0.35240  0.33770  1.0000 -0.1982312366
C   C24       1.0  0.32770  0.79420  0.37410  1.0000 -0.0805228536
C   C25       1.0  0.35490  0.75520  0.43520  1.0000 -0.2487716577
C   C26       1.0  0.16280  0.75230  0.34450  1.0000 -0.0805228536
C   C27       1.0  0.33370  0.40550  0.46600  1.0000 0.2502650519
C   C28       1.0  0.40570  0.34720  0.83540  1.0000 -0.0705291836
C   C29       1.0  0.33480  0.27430  0.34420  1.0000 -0.0895277735
C   C30       1.0  0.35420  0.71680  0.69400  1.0000 -0.0895277735
C   C31       1.0  0.26050  0.21370  0.34090  1.0000 -0.0580058298
C   C32       1.0  0.84090  0.88300  0.31960  1.0000 -0.0805228536
C   C33       1.0  0.66780  0.82650  0.44100  1.0000 -0.0985453426
C   C34       1.0  0.51660  0.48320  0.20380  1.0000 -0.050702166
C   C35       1.0  0.66620  0.92420  0.50190  1.0000 0.0760598268
C   C36       1.0  0.60700  0.54590  0.24200  1.0000 -0.0705291836
C   C37       1.0  0.31960  0.73650  0.81870  1.0000 0.2427649186
C   C38       1.0  0.26800  0.86840  0.89110  1.0000 -0.0580058298
C   C39       1.0  0.62310  0.92030  0.56370  1.0000 -0.0985453426
C   C40       1.0  0.87540  0.98030  0.38260  1.0000 -0.2645651414
C   C41       1.0  0.21380  0.87600  0.00780  1.0000 0.5787020729
C   C42       1.0  0.25280  0.82840  0.94600  1.0000 -0.0895277735
C   C43       1.0  0.49710  0.38090  0.13730  1.0000 0.5972832725
C   C44       1.0  0.59760  0.03480  0.68440  1.0000 0.2713866964
C   C45       1.0  0.77420  0.98710  0.56260  1.0000 -0.0705291836
C   C46       1.0  0.85550  0.48380  0.20820  1.0000 0.5705964849
C   C47       1.0  0.59730  0.12760  0.73020  1.0000 -0.2286037873
C   C48       1.0  0.60940  0.97160  0.44620  1.0000 -0.0805228536
C   C49       1.0  0.60570  0.02150  0.33730  1.0000 0.2502650519
C   C50       1.0  0.91450  0.99720  0.68760  1.0000 0.2502650519
C   C51       1.0  0.26300  0.34830  0.46580  1.0000 -0.2286037873
C   C52       1.0  0.22620  0.25270  0.40430  1.0000 -0.0895277735
C   C53       1.0  0.55730  0.67050  0.32990  1.0000 0.2502650519
C   C54       1.0  0.10910  0.07930  0.82170  1.0000 -0.0805228536
C   C55       1.0  0.84570  0.74100  0.20150  1.0000 0.5787020729
C   C56       1.0  0.83690  0.48370  0.94040  1.0000 0.5643278048
C   C57       1.0  0.52230  0.08440  0.81150  1.0000 -0.0705291836
C   C58       1.0  0.52200  0.99270  0.76550  1.0000 -0.0805228536
C   C59       1.0  0.57280  0.46140  0.94410  1.0000 0.5787020729
C   C60       1.0  0.63050  0.64170  0.30820  1.0000 -0.2286037873
C   C61       1.0  0.06980  0.11090  0.75610  1.0000 -0.0705291836
C   C62       1.0  0.30170  0.82200  0.82990  1.0000 -0.209345807
C   C63       1.0  0.51730  0.04000  0.32550  1.0000 -0.2286037873
C   C64       1.0  0.97120  0.07260  0.69340  1.0000 -0.2487716577
C   C65       1.0  0.56320  0.15470  0.79590  1.0000 -0.0895277735
C   C66       1.0  0.48230  0.11270  0.87770  1.0000 0.5705964849
C   C67       1.0  0.95210  0.96320  0.74910  1.0000 -0.2184569055
C   C68       1.0  0.46620  0.12420  0.14600  1.0000 0.5972832725
C   C69       1.0  0.21710  0.11280  0.27100  1.0000 0.5787020729
C   C70       1.0  0.69300  0.70450  0.82910  1.0000 -0.2286037873
C   C71       1.0  0.27510  0.74380  0.93670  1.0000 -0.0705291836
C   C72       1.0  0.99750  0.41800  0.39190  1.0000 -0.2487716577
C   C73       1.0  0.55810  0.96660  0.70310  1.0000 -0.2487716577
C   C74       1.0  0.21190  0.11930  0.88650  1.0000 0.5705964849
C   C75       1.0  0.65470  0.77010  0.80590  1.0000 0.2713866964
C   C76       1.0  0.47230  0.06970  0.25920  1.0000 -0.0705291836
C   C77       1.0  0.04770  0.00700  0.81930  1.0000 -0.0705291836
C   C78       1.0  0.44690  0.51240  0.22950  1.0000 -0.0805228536
C   C79       1.0  0.84620  0.82440  0.94080  1.0000 -0.050702166
C   C80       1.0  0.88270  0.84290  0.26450  1.0000 -0.0705291836
C   C81       1.0  0.86140  0.43130  0.86260  1.0000 -0.050702166
C   C82       1.0  0.65050  0.03650  0.28670  1.0000 -0.2184569055
C   C83       1.0  0.51450  0.08590  0.21190  1.0000 -0.0396420151
C   C84       1.0  0.28150  0.38170  0.73360  1.0000 0.2502650519
C   C85       1.0  0.60690  0.07160  0.22610  1.0000 -0.0895277735
C   C86       1.0  0.97720  0.33860  0.62310  1.0000 -0.0985453426
C   C87       1.0  0.97470  0.45880  0.33490  1.0000 -0.0805228536
C   C88       1.0  0.78600  0.73190  0.89660  1.0000 -0.0705291836
C   C89       1.0  0.90990  0.43130  0.74770  1.0000 -0.2286037873
C   C90       1.0  0.46680  0.60750  0.28960  1.0000 -0.2184569055
C   C91       1.0  0.30810  0.69880  0.87390  1.0000 -0.209345807
C   C92       1.0  0.88940  0.47930  0.82120  1.0000 -0.0895277735
C   C93       1.0  0.91370  0.33720  0.72570  1.0000 0.2502650519
C   C94       1.0  0.88130  0.28960  0.76270  1.0000 -0.209345807
C   C95       1.0  0.94520  0.84780  0.01690  1.0000 0.5859522507
C   C96       1.0  0.95790  0.90240  0.26710  1.0000 -0.0805228536
C   C97       1.0  0.71440  0.86600  0.85060  1.0000 -0.209345807
C   C98       1.0  0.80800  0.88710  0.91510  1.0000 -0.0895277735
C   C99       1.0  0.85140  0.33700  0.82790  1.0000 -0.0895277735
O   O1        1.0  0.11830  0.81950  0.21020  1.0000 -0.625205548
O   O2        1.0  0.27420  0.89100  0.26630  1.0000 -0.5171830768
O   O3        1.0  0.30040  0.68100  0.51170  1.0000 -0.1833157628
O   O4        1.0  0.18810  0.36740  0.67030  1.0000 -0.1982312366
O   O5        1.0  0.56260  0.75520  0.74540  1.0000 -0.1833157628
O   O6        1.0  0.93390  0.31850  0.44740  1.0000 -0.1982312366
O   O7        1.0  0.99170  0.13310  0.44150  1.0000 -0.1720861807
O   O8        1.0  0.37850  0.50170  0.52590  1.0000 -0.1898364029
O   O9        1.0  0.88580  0.70180  0.14870  1.0000 -0.6115324412
O   O10       1.0  0.85610  0.57390  0.97250  1.0000 -0.5999642029
O   O11       1.0  0.60080  0.40050  0.96690  1.0000 -0.5712133362
O   O12       1.0  0.42760  0.04930  0.87910  1.0000 -0.5171830768
O   O13       1.0  0.56530  0.35220  0.12530  1.0000 -0.5883706524
O   O14       1.0  0.50130  0.20110  0.93230  1.0000 -0.5999642029
O   O15       1.0  0.16260  0.05590  0.27860  1.0000 -0.5108115985
O   O16       1.0  0.18510  0.94620  0.00930  1.0000 -0.5712133362
O   O17       1.0  0.23680  0.08150  0.20230  1.0000 -0.625205548
O   O18       1.0  0.77490  0.68880  0.19500  1.0000 -0.5011811867
O   O19       1.0  0.76560  0.45610  0.14590  1.0000 -0.6115324412
O   O20       1.0  0.24590  0.09950  0.95340  1.0000 -0.6115324412
O   O21       1.0  0.38930  0.14520  0.14050  1.0000 -0.5883706524
O   O22       1.0  0.26810  0.17220  0.87720  1.0000 -0.5011811867
O   O23       1.0  0.41040  0.32670  0.09410  1.0000 -0.5317496076
O   O24       1.0  0.20590  0.83870  0.06120  1.0000 -0.5524995043
O   O25       1.0  0.62450  0.54210  0.97510  1.0000 -0.5011811867
O   O26       1.0  0.98060  0.78610  0.03050  1.0000 -0.5612981036
O   O27       1.0  0.99990  0.93450  0.06170  1.0000 -0.5352980211
O   O28       1.0  0.35290  0.68430  0.75780  1.0000 -0.1982312366
O   O29       1.0  0.63650  0.01790  0.62570  1.0000 -0.1833157628
O   O30       1.0  0.57030  0.76310  0.38910  1.0000 -0.1898364029
O   O31       1.0  0.65360  0.98500  0.39450  1.0000 -0.1898364029
O   O32       1.0  0.91710  0.54100  0.21030  1.0000 -0.5171830768
O   O33       1.0  0.81920  0.95020  0.62290  1.0000 -0.1898364029
O   O34       1.0  0.50490  0.13220  0.09580  1.0000 -0.5317496076
O   O35       1.0  0.80430  0.44190  0.97100  1.0000 -0.468421103
O   O36       1.0  0.94900  0.28930  0.66590  1.0000 -0.1982312366
