# DDEC6 charges by PACMAN v1.1 (https://github.com/mtap-research/PACMAN-charge/)
data_2010[Zr][sqc]3[ASR]1
_chemical_formula_sum              "Zr2 P6 H40 C18 N6 O18"
_cell_length_a       11.9464
_cell_length_b       11.9464
_cell_length_c       11.9464
_cell_angle_alpha    113.14
_cell_angle_beta     113.14
_cell_angle_gamma    113.14

_symmetry_space_group_name_H-M    "P 1"
_symmetry_Int_Tables_number       1

loop_
  _symmetry_equiv_pos_as_xyz
  'x, y, z'

loop_
  _atom_site_type_symbol
  _atom_site_label
  _atom_site_symmetry_multiplicity
  _atom_site_fract_x
  _atom_site_fract_y
  _atom_site_fract_z
  _atom_site_occupancy
  _atom_site_charge
Zr  Zr1       1.0  0.00000  0.00000  0.00000  1.0000 2.409777647
Zr  Zr2       1.0  0.50000  0.50000  0.50000  1.0000 2.409777647
P   P1        1.0  0.22580  0.13470  0.38290  1.0000 1.3428499159
P   P2        1.0  0.38290  0.22580  0.13470  1.0000 1.3428499159
P   P3        1.0  0.13470  0.38290  0.22580  1.0000 1.3345357832
P   P4        1.0  0.77420  0.86530  0.61710  1.0000 1.3428499159
P   P5        1.0  0.61710  0.77420  0.86530  1.0000 1.3428499159
P   P6        1.0  0.86530  0.61710  0.77420  1.0000 1.3345357832
H   H1        1.0  0.31192  0.02562  0.25006  1.0000 0.1283728909
H   H2        1.0  0.23917  0.77226  0.36697  1.0000 0.0409644935
H   H3        1.0  0.55651  0.23910  0.56075  1.0000 0.0813900636
H   H4        1.0  0.75121  0.24580  0.79144  1.0000 0.0521693137
H   H5        1.0  0.50003  0.83214  0.34550  1.0000 0.089428202
H   H6        1.0  0.84924  0.12661  0.77958  1.0000 0.1223588269
H   H7        1.0  0.87150  0.40997  0.76913  1.0000 0.3632293102
H   H8        1.0  0.25006  0.31192  0.02562  1.0000 0.1283728909
H   H9        1.0  0.36697  0.23917  0.77226  1.0000 0.0727281865
H   H10       1.0  0.56075  0.55651  0.23910  1.0000 0.089428202
H   H11       1.0  0.79144  0.75121  0.24580  1.0000 0.0727281865
H   H12       1.0  0.34550  0.50003  0.83214  1.0000 0.0577198361
H   H13       1.0  0.77958  0.84924  0.12661  1.0000 0.1283728909
H   H14       1.0  0.02562  0.25006  0.31192  1.0000 0.141931979
H   H15       1.0  0.77226  0.36697  0.23917  1.0000 0.0409644935
H   H16       1.0  0.23910  0.56075  0.55651  1.0000 0.089428202
H   H17       1.0  0.24580  0.79144  0.75121  1.0000 0.0577198361
H   H18       1.0  0.83214  0.34550  0.50003  1.0000 0.0727281865
H   H19       1.0  0.12661  0.77958  0.84924  1.0000 0.1283728909
H   H20       1.0  0.40997  0.76913  0.87150  1.0000 0.3632293102
H   H21       1.0  0.68808  0.97438  0.74994  1.0000 0.1283728909
H   H22       1.0  0.76083  0.22774  0.63303  1.0000 0.0409644935
H   H23       1.0  0.44349  0.76090  0.43925  1.0000 0.0813900636
H   H24       1.0  0.24879  0.75420  0.20856  1.0000 0.0521693137
H   H25       1.0  0.49997  0.16786  0.65450  1.0000 0.089428202
H   H26       1.0  0.15076  0.87339  0.22042  1.0000 0.1223588269
H   H27       1.0  0.12850  0.59003  0.23087  1.0000 0.3632293102
H   H28       1.0  0.74994  0.68808  0.97438  1.0000 0.1283728909
H   H29       1.0  0.63303  0.76083  0.22774  1.0000 0.0727281865
H   H30       1.0  0.43925  0.44349  0.76090  1.0000 0.089428202
H   H31       1.0  0.20856  0.24879  0.75420  1.0000 0.0727281865
H   H32       1.0  0.65450  0.49997  0.16786  1.0000 0.0521693137
H   H33       1.0  0.22042  0.15076  0.87339  1.0000 0.1283728909
H   H34       1.0  0.97438  0.74994  0.68808  1.0000 0.141931979
H   H35       1.0  0.22774  0.63303  0.76083  1.0000 0.0409644935
H   H36       1.0  0.76090  0.43925  0.44349  1.0000 0.089428202
H   H37       1.0  0.75420  0.20856  0.24879  1.0000 0.0577198361
H   H38       1.0  0.16786  0.65450  0.49997  1.0000 0.0813900636
H   H39       1.0  0.87339  0.22042  0.15076  1.0000 0.1283728909
H   H40       1.0  0.59003  0.23087  0.12850  1.0000 0.3632293102
C   C1        1.0  0.26790  0.00180  0.31350  1.0000 -0.3704601917
C   C2        1.0  0.31670  0.83080  0.34240  1.0000 -0.0496077221
C   C3        1.0  0.53020  0.14410  0.57310  1.0000 -0.0795653257
C   C4        1.0  0.31350  0.26790  0.00180  1.0000 -0.3787044826
C   C5        1.0  0.34240  0.31670  0.83080  1.0000 -0.0496077221
C   C6        1.0  0.57310  0.53020  0.14410  1.0000 -0.0718070808
C   C7        1.0  0.00180  0.31350  0.26790  1.0000 -0.3704601917
C   C8        1.0  0.83080  0.34240  0.31670  1.0000 -0.0432342365
C   C9        1.0  0.14410  0.57310  0.53020  1.0000 -0.0795653257
C   C10       1.0  0.73210  0.99820  0.68650  1.0000 -0.3704601917
C   C11       1.0  0.68330  0.16920  0.65760  1.0000 -0.0496077221
C   C12       1.0  0.46980  0.85590  0.42690  1.0000 -0.0795653257
C   C13       1.0  0.68650  0.73210  0.99820  1.0000 -0.3787044826
C   C14       1.0  0.65760  0.68330  0.16920  1.0000 -0.0496077221
C   C15       1.0  0.42690  0.46980  0.85590  1.0000 -0.0718070808
C   C16       1.0  0.99820  0.68650  0.73210  1.0000 -0.3704601917
C   C17       1.0  0.16920  0.65760  0.68330  1.0000 -0.0432342365
C   C18       1.0  0.85590  0.42690  0.46980  1.0000 -0.0795653257
N   N1        1.0  0.37920  0.99920  0.41810  1.0000 -0.111420637
N   N2        1.0  0.41810  0.37920  0.99920  1.0000 -0.1278243009
N   N3        1.0  0.99920  0.41810  0.37920  1.0000 -0.111420637
N   N4        1.0  0.62080  0.00080  0.58190  1.0000 -0.111420637
N   N5        1.0  0.58190  0.62080  0.00080  1.0000 -0.1278243009
N   N6        1.0  0.00080  0.58190  0.62080  1.0000 -0.111420637
O   O1        1.0  0.36510  0.30340  0.45530  1.0000 -0.8138940874
O   O2        1.0  0.19510  0.12850  0.49900  1.0000 -0.7355024758
O   O3        1.0  0.08680  0.07050  0.21320  1.0000 -0.8301596585
O   O4        1.0  0.45530  0.36510  0.30340  1.0000 -0.8025288675
O   O5        1.0  0.49900  0.19510  0.12850  1.0000 -0.6430892888
O   O6        1.0  0.21320  0.08680  0.07050  1.0000 -0.8186889235
O   O7        1.0  0.30340  0.45530  0.36510  1.0000 -0.8025288675
O   O8        1.0  0.12850  0.49900  0.19510  1.0000 -0.6430892888
O   O9        1.0  0.07050  0.21320  0.08680  1.0000 -0.8186889235
O   O10       1.0  0.63490  0.69660  0.54470  1.0000 -0.8138940874
O   O11       1.0  0.80490  0.87150  0.50100  1.0000 -0.7355024758
O   O12       1.0  0.91320  0.92950  0.78680  1.0000 -0.8301596585
O   O13       1.0  0.54470  0.63490  0.69660  1.0000 -0.8025288675
O   O14       1.0  0.50100  0.80490  0.87150  1.0000 -0.6458070818
O   O15       1.0  0.78680  0.91320  0.92950  1.0000 -0.8186889235
O   O16       1.0  0.69660  0.54470  0.63490  1.0000 -0.8025288675
O   O17       1.0  0.87150  0.50100  0.80490  1.0000 -0.6430892888
O   O18       1.0  0.92950  0.78680  0.91320  1.0000 -0.8186889235
