# DDEC6 charges by PACMAN v1.1 (https://github.com/mtap-research/PACMAN-charge/)
data_2010[Cu][lvt]3[ASR]1
_chemical_formula_sum              "Cu8 H48 C96 O32"
_cell_length_a       20.539
_cell_length_b       20.539
_cell_length_c       6.9994
_cell_angle_alpha    90
_cell_angle_beta     90
_cell_angle_gamma    90

_symmetry_space_group_name_H-M    "P 1"
_symmetry_Int_Tables_number       1

loop_
  _symmetry_equiv_pos_as_xyz
  'x, y, z'

loop_
  _atom_site_type_symbol
  _atom_site_label
  _atom_site_symmetry_multiplicity
  _atom_site_fract_x
  _atom_site_fract_y
  _atom_site_fract_z
  _atom_site_occupancy
  _atom_site_charge
Cu  Cu1       1.0  0.72609  0.73103  0.08626  1.0000 0.8197104455
Cu  Cu2       1.0  0.27391  0.26897  0.08626  1.0000 0.8197104455
Cu  Cu3       1.0  0.23103  0.77391  0.58626  1.0000 0.8197104455
Cu  Cu4       1.0  0.76897  0.22609  0.58626  1.0000 0.8197104455
Cu  Cu5       1.0  0.77391  0.76897  0.41374  1.0000 0.8197104455
Cu  Cu6       1.0  0.22609  0.23103  0.41374  1.0000 0.8197104455
Cu  Cu7       1.0  0.26897  0.72609  0.91374  1.0000 0.8197104455
Cu  Cu8       1.0  0.73103  0.27391  0.91374  1.0000 0.8197104455
H   H1        1.0  0.72200  0.57830  0.68280  1.0000 0.1300754121
H   H2        1.0  0.27800  0.42170  0.68280  1.0000 0.1300754121
H   H3        1.0  0.07830  0.77800  0.18280  1.0000 0.1300754121
H   H4        1.0  0.92170  0.22200  0.18280  1.0000 0.1300754121
H   H5        1.0  0.77800  0.92170  0.81720  1.0000 0.1300754121
H   H6        1.0  0.22200  0.07830  0.81720  1.0000 0.1300754121
H   H7        1.0  0.42170  0.72200  0.31720  1.0000 0.1300754121
H   H8        1.0  0.57830  0.27800  0.31720  1.0000 0.1300754121
H   H9        1.0  0.72180  0.46810  0.77440  1.0000 0.1300754121
H   H10       1.0  0.27820  0.53190  0.77440  1.0000 0.1300754121
H   H11       1.0  0.96810  0.77820  0.27440  1.0000 0.1300754121
H   H12       1.0  0.03190  0.22180  0.27440  1.0000 0.1300754121
H   H13       1.0  0.77820  0.03190  0.72560  1.0000 0.1300754121
H   H14       1.0  0.22180  0.96810  0.72560  1.0000 0.1300754121
H   H15       1.0  0.53190  0.72180  0.22560  1.0000 0.1300754121
H   H16       1.0  0.46810  0.27820  0.22560  1.0000 0.1300754121
H   H17       1.0  0.84300  0.36330  0.29350  1.0000 0.1300754121
H   H18       1.0  0.15700  0.63670  0.29350  1.0000 0.1300754121
H   H19       1.0  0.86330  0.65700  0.79350  1.0000 0.1300754121
H   H20       1.0  0.13670  0.34300  0.79350  1.0000 0.1300754121
H   H21       1.0  0.65700  0.13670  0.20650  1.0000 0.1300754121
H   H22       1.0  0.34300  0.86330  0.20650  1.0000 0.1300754121
H   H23       1.0  0.63670  0.84300  0.70650  1.0000 0.1300754121
H   H24       1.0  0.36330  0.15700  0.70650  1.0000 0.1300754121
H   H25       1.0  0.89600  0.39820  0.02280  1.0000 0.1107095377
H   H26       1.0  0.10400  0.60180  0.02280  1.0000 0.1107095377
H   H27       1.0  0.89820  0.60400  0.52280  1.0000 0.1107095377
H   H28       1.0  0.10180  0.39600  0.52280  1.0000 0.1107095377
H   H29       1.0  0.60400  0.10180  0.47720  1.0000 0.1107095377
H   H30       1.0  0.39600  0.89820  0.47720  1.0000 0.1107095377
H   H31       1.0  0.60180  0.89600  0.97720  1.0000 0.1107095377
H   H32       1.0  0.39820  0.10400  0.97720  1.0000 0.1107095377
H   H33       1.0  0.88940  0.50770  0.92410  1.0000 0.1107095377
H   H34       1.0  0.11060  0.49230  0.92410  1.0000 0.1107095377
H   H35       1.0  0.00770  0.61060  0.42410  1.0000 0.1107095377
H   H36       1.0  0.99230  0.38940  0.42410  1.0000 0.1107095377
H   H37       1.0  0.61060  0.99230  0.57590  1.0000 0.1107095377
H   H38       1.0  0.38940  0.00770  0.57590  1.0000 0.1107095377
H   H39       1.0  0.49230  0.88940  0.07590  1.0000 0.1107095377
H   H40       1.0  0.50770  0.11060  0.07590  1.0000 0.1107095377
H   H41       1.0  0.82910  0.58130  0.09900  1.0000 0.1203510211
H   H42       1.0  0.17090  0.41870  0.09900  1.0000 0.1203510211
H   H43       1.0  0.08130  0.67090  0.59900  1.0000 0.1203510211
H   H44       1.0  0.91870  0.32910  0.59900  1.0000 0.1203510211
H   H45       1.0  0.67090  0.91870  0.40100  1.0000 0.1203510211
H   H46       1.0  0.32910  0.08130  0.40100  1.0000 0.1203510211
H   H47       1.0  0.41870  0.82910  0.90100  1.0000 0.1203510211
H   H48       1.0  0.58130  0.17090  0.90100  1.0000 0.1203510211
C   C1        1.0  0.76568  0.56400  0.42760  1.0000 -0.0545474785
C   C2        1.0  0.23432  0.43600  0.42760  1.0000 -0.0545474785
C   C3        1.0  0.06400  0.73432  0.92760  1.0000 -0.0545474785
C   C4        1.0  0.93600  0.26568  0.92760  1.0000 -0.0545474785
C   C5        1.0  0.73432  0.93600  0.07240  1.0000 -0.0545474785
C   C6        1.0  0.26568  0.06400  0.07240  1.0000 -0.0545474785
C   C7        1.0  0.43600  0.76568  0.57240  1.0000 -0.0545474785
C   C8        1.0  0.56400  0.23432  0.57240  1.0000 -0.0545474785
C   C9        1.0  0.74024  0.54628  0.60070  1.0000 -0.1120366334
C   C10       1.0  0.25976  0.45372  0.60070  1.0000 -0.1120366334
C   C11       1.0  0.04628  0.75976  0.10070  1.0000 -0.1120366334
C   C12       1.0  0.95372  0.24024  0.10070  1.0000 -0.1120366334
C   C13       1.0  0.75976  0.95372  0.89930  1.0000 -0.1120366334
C   C14       1.0  0.24024  0.04628  0.89930  1.0000 -0.1120366334
C   C15       1.0  0.45372  0.74024  0.39930  1.0000 -0.1120366334
C   C16       1.0  0.54628  0.25976  0.39930  1.0000 -0.1120366334
C   C17       1.0  0.74116  0.48034  0.65650  1.0000 -0.1046369021
C   C18       1.0  0.25884  0.51966  0.65650  1.0000 -0.1046369021
C   C19       1.0  0.98034  0.75884  0.15650  1.0000 -0.1046369021
C   C20       1.0  0.01966  0.24116  0.15650  1.0000 -0.1046369021
C   C21       1.0  0.75884  0.01966  0.84350  1.0000 -0.1046369021
C   C22       1.0  0.24116  0.98034  0.84350  1.0000 -0.1046369021
C   C23       1.0  0.51966  0.74116  0.34350  1.0000 -0.1046369021
C   C24       1.0  0.48034  0.25884  0.34350  1.0000 -0.1046369021
C   C25       1.0  0.76958  0.43323  0.54390  1.0000 -0.0596083231
C   C26       1.0  0.23042  0.56677  0.54390  1.0000 -0.0596083231
C   C27       1.0  0.93323  0.73042  0.04390  1.0000 -0.0596083231
C   C28       1.0  0.06677  0.26958  0.04390  1.0000 -0.0596083231
C   C29       1.0  0.73042  0.06677  0.95610  1.0000 -0.0596083231
C   C30       1.0  0.26958  0.93323  0.95610  1.0000 -0.0596083231
C   C31       1.0  0.56677  0.76958  0.45610  1.0000 -0.0596083231
C   C32       1.0  0.43323  0.23042  0.45610  1.0000 -0.0596083231
C   C33       1.0  0.83979  0.40772  0.25650  1.0000 -0.1323792441
C   C34       1.0  0.16021  0.59228  0.25650  1.0000 -0.1323792441
C   C35       1.0  0.90772  0.66021  0.75650  1.0000 -0.1323792441
C   C36       1.0  0.09228  0.33979  0.75650  1.0000 -0.1323792441
C   C37       1.0  0.66021  0.09228  0.24350  1.0000 -0.1323792441
C   C38       1.0  0.33979  0.90772  0.24350  1.0000 -0.1323792441
C   C39       1.0  0.59228  0.83979  0.74350  1.0000 -0.1323792441
C   C40       1.0  0.40772  0.16021  0.74350  1.0000 -0.1323792441
C   C41       1.0  0.87122  0.42831  0.09570  1.0000 -0.0812842222
C   C42       1.0  0.12878  0.57169  0.09570  1.0000 -0.0812842222
C   C43       1.0  0.92831  0.62878  0.59570  1.0000 -0.0812842222
C   C44       1.0  0.07169  0.37122  0.59570  1.0000 -0.0812842222
C   C45       1.0  0.62878  0.07169  0.40430  1.0000 -0.0812842222
C   C46       1.0  0.37122  0.92831  0.40430  1.0000 -0.0812842222
C   C47       1.0  0.57169  0.87122  0.90430  1.0000 -0.0812842222
C   C48       1.0  0.42831  0.12878  0.90430  1.0000 -0.0812842222
C   C49       1.0  0.86735  0.49390  0.03630  1.0000 -0.090653698
C   C50       1.0  0.13265  0.50610  0.03630  1.0000 -0.090653698
C   C51       1.0  0.99390  0.63265  0.53630  1.0000 -0.090653698
C   C52       1.0  0.00610  0.36735  0.53630  1.0000 -0.090653698
C   C53       1.0  0.63265  0.00610  0.46370  1.0000 -0.090653698
C   C54       1.0  0.36735  0.99390  0.46370  1.0000 -0.090653698
C   C55       1.0  0.50610  0.86735  0.96370  1.0000 -0.090653698
C   C56       1.0  0.49390  0.13265  0.96370  1.0000 -0.090653698
C   C57       1.0  0.83191  0.53736  0.14040  1.0000 -0.1323792441
C   C58       1.0  0.16809  0.46264  0.14040  1.0000 -0.1323792441
C   C59       1.0  0.03736  0.66809  0.64040  1.0000 -0.1323792441
C   C60       1.0  0.96264  0.33191  0.64040  1.0000 -0.1323792441
C   C61       1.0  0.66809  0.96264  0.35960  1.0000 -0.1323792441
C   C62       1.0  0.33191  0.03736  0.35960  1.0000 -0.1323792441
C   C63       1.0  0.46264  0.83191  0.85960  1.0000 -0.1323792441
C   C64       1.0  0.53736  0.16809  0.85960  1.0000 -0.1323792441
C   C65       1.0  0.79902  0.51798  0.31010  1.0000 0.0513687813
C   C66       1.0  0.20098  0.48202  0.31010  1.0000 0.0513687813
C   C67       1.0  0.01798  0.70098  0.81010  1.0000 0.0513687813
C   C68       1.0  0.98202  0.29902  0.81010  1.0000 0.0513687813
C   C69       1.0  0.70098  0.98202  0.18990  1.0000 0.0513687813
C   C70       1.0  0.29902  0.01798  0.18990  1.0000 0.0513687813
C   C71       1.0  0.48202  0.79902  0.68990  1.0000 0.0513687813
C   C72       1.0  0.51798  0.20098  0.68990  1.0000 0.0513687813
C   C73       1.0  0.80233  0.45121  0.37000  1.0000 0.0632126079
C   C74       1.0  0.19767  0.54879  0.37000  1.0000 0.0632126079
C   C75       1.0  0.95121  0.69767  0.87000  1.0000 0.0632126079
C   C76       1.0  0.04879  0.30233  0.87000  1.0000 0.0632126079
C   C77       1.0  0.69767  0.04879  0.13000  1.0000 0.0632126079
C   C78       1.0  0.30233  0.95121  0.13000  1.0000 0.0632126079
C   C79       1.0  0.54879  0.80233  0.63000  1.0000 0.0632126079
C   C80       1.0  0.45121  0.19767  0.63000  1.0000 0.0632126079
C   C81       1.0  0.75810  0.63381  0.36690  1.0000 0.5722634317
C   C82       1.0  0.24190  0.36619  0.36690  1.0000 0.5722634317
C   C83       1.0  0.13381  0.74190  0.86690  1.0000 0.5722634317
C   C84       1.0  0.86619  0.25810  0.86690  1.0000 0.5722634317
C   C85       1.0  0.74190  0.86619  0.13310  1.0000 0.5722634317
C   C86       1.0  0.25810  0.13381  0.13310  1.0000 0.5722634317
C   C87       1.0  0.36619  0.75810  0.63310  1.0000 0.5722634317
C   C88       1.0  0.63381  0.24190  0.63310  1.0000 0.5722634317
C   C89       1.0  0.76263  0.36429  0.61520  1.0000 0.5722634317
C   C90       1.0  0.23737  0.63571  0.61520  1.0000 0.5722634317
C   C91       1.0  0.86429  0.73737  0.11520  1.0000 0.5722634317
C   C92       1.0  0.13571  0.26263  0.11520  1.0000 0.5722634317
C   C93       1.0  0.73737  0.13571  0.88480  1.0000 0.5722634317
C   C94       1.0  0.26263  0.86429  0.88480  1.0000 0.5722634317
C   C95       1.0  0.63571  0.76263  0.38480  1.0000 0.5722634317
C   C96       1.0  0.36429  0.23737  0.38480  1.0000 0.5722634317
O   O1        1.0  0.73512  0.64410  0.20160  1.0000 -0.5203143461
O   O2        1.0  0.26488  0.35590  0.20160  1.0000 -0.5203143461
O   O3        1.0  0.14410  0.76488  0.70160  1.0000 -0.5203143461
O   O4        1.0  0.85590  0.23512  0.70160  1.0000 -0.5203143461
O   O5        1.0  0.76488  0.85590  0.29840  1.0000 -0.5203143461
O   O6        1.0  0.23512  0.14410  0.29840  1.0000 -0.5203143461
O   O7        1.0  0.35590  0.73512  0.79840  1.0000 -0.5203143461
O   O8        1.0  0.64410  0.26488  0.79840  1.0000 -0.5203143461
O   O9        1.0  0.77481  0.67656  0.48450  1.0000 -0.4920586078
O   O10       1.0  0.22519  0.32344  0.48450  1.0000 -0.4920586078
O   O11       1.0  0.17656  0.72519  0.98450  1.0000 -0.4920586078
O   O12       1.0  0.82344  0.27481  0.98450  1.0000 -0.4920586078
O   O13       1.0  0.72519  0.82344  0.01550  1.0000 -0.4920586078
O   O14       1.0  0.27481  0.17656  0.01550  1.0000 -0.4920586078
O   O15       1.0  0.32344  0.77481  0.51550  1.0000 -0.4920586078
O   O16       1.0  0.67656  0.22519  0.51550  1.0000 -0.4920586078
O   O17       1.0  0.77382  0.31749  0.50080  1.0000 -0.5203143461
O   O18       1.0  0.22618  0.68251  0.50080  1.0000 -0.5203143461
O   O19       1.0  0.81749  0.72618  0.00080  1.0000 -0.5203143461
O   O20       1.0  0.18251  0.27382  0.00080  1.0000 -0.5203143461
O   O21       1.0  0.72618  0.18251  0.99920  1.0000 -0.5203143461
O   O22       1.0  0.27382  0.81749  0.99920  1.0000 -0.5203143461
O   O23       1.0  0.68251  0.77382  0.49920  1.0000 -0.5203143461
O   O24       1.0  0.31749  0.22618  0.49920  1.0000 -0.5203143461
O   O25       1.0  0.74463  0.35741  0.78470  1.0000 -0.5106019853
O   O26       1.0  0.25537  0.64259  0.78470  1.0000 -0.5106019853
O   O27       1.0  0.85741  0.75537  0.28470  1.0000 -0.5106019853
O   O28       1.0  0.14259  0.24463  0.28470  1.0000 -0.5106019853
O   O29       1.0  0.75537  0.14259  0.71530  1.0000 -0.5106019853
O   O30       1.0  0.24463  0.85741  0.71530  1.0000 -0.5106019853
O   O31       1.0  0.64259  0.74463  0.21530  1.0000 -0.5106019853
O   O32       1.0  0.35741  0.25537  0.21530  1.0000 -0.5106019853
