# DDEC6 charges by PACMAN v1.1 (https://github.com/mtap-research/PACMAN-charge/)
data_2010[Zn][nan]3[ASR]21
_chemical_formula_sum              "Zn4 H40 C56 S2 N4 O16"
_cell_length_a       9.5591
_cell_length_b       9.782
_cell_length_c       18.288
_cell_angle_alpha    78.75
_cell_angle_beta     86.28
_cell_angle_gamma    68.73

_symmetry_space_group_name_H-M    "P 1"
_symmetry_Int_Tables_number       1

loop_
  _symmetry_equiv_pos_as_xyz
  'x, y, z'

loop_
  _atom_site_type_symbol
  _atom_site_label
  _atom_site_symmetry_multiplicity
  _atom_site_fract_x
  _atom_site_fract_y
  _atom_site_fract_z
  _atom_site_occupancy
  _atom_site_charge
Zn  Zn1       1.0  0.09403  0.09600  0.97434  1.0000 0.8917729554
Zn  Zn2       1.0  0.18201  0.88960  0.14695  1.0000 0.8800615367
Zn  Zn3       1.0  0.90597  0.90400  0.02566  1.0000 0.8917729554
Zn  Zn4       1.0  0.81799  0.11040  0.85305  1.0000 0.8800615367
H   H1        1.0  0.96370  0.06610  0.70590  1.0000 0.1094871995
H   H2        1.0  0.05490  0.19430  0.60670  1.0000 0.1301361203
H   H3        1.0  0.92340  0.54360  0.70020  1.0000 0.1468388882
H   H4        1.0  0.82100  0.41840  0.79920  1.0000 0.1094871995
H   H5        1.0  0.07130  0.55030  0.57440  1.0000 0.1094871995
H   H6        1.0  0.87630  0.68430  0.49280  1.0000 0.0941526589
H   H7        1.0  0.78000  0.34290  0.47890  1.0000 0.1207007763
H   H8        1.0  0.61740  0.27000  0.56440  1.0000 0.1207007763
H   H9        1.0  0.53190  0.64030  0.65190  1.0000 0.1301361203
H   H10       1.0  0.69460  0.71310  0.56630  1.0000 0.1207007763
H   H11       1.0  0.48070  0.46840  0.72230  1.0000 0.1301361203
H   H12       1.0  0.49740  0.22920  0.66650  1.0000 0.1301361203
H   H13       1.0  0.36660  0.07530  0.73510  1.0000 0.1391169128
H   H14       1.0  0.26170  0.99380  0.84050  1.0000 0.1301361203
H   H15       1.0  0.14220  0.38530  0.90160  1.0000 0.1094871995
H   H16       1.0  0.25970  0.47220  0.79430  1.0000 0.1468388882
H   H17       1.0  0.57210  0.53790  0.06680  1.0000 0.1207007763
H   H18       1.0  0.87090  0.54450  0.90130  1.0000 0.1301361203
H   H19       1.0  0.51370  0.91650  0.91660  1.0000 0.1301361203
H   H20       1.0  0.03630  0.93390  0.29410  1.0000 0.1094871995
H   H21       1.0  0.94510  0.80570  0.39330  1.0000 0.1301361203
H   H22       1.0  0.07660  0.45640  0.29980  1.0000 0.1468388882
H   H23       1.0  0.17900  0.58160  0.20080  1.0000 0.1094871995
H   H24       1.0  0.92870  0.44970  0.42560  1.0000 0.1094871995
H   H25       1.0  0.12370  0.31570  0.50720  1.0000 0.0941526589
H   H26       1.0  0.22000  0.65710  0.52110  1.0000 0.1207007763
H   H27       1.0  0.38260  0.73000  0.43560  1.0000 0.1207007763
H   H28       1.0  0.46810  0.35970  0.34810  1.0000 0.1301361203
H   H29       1.0  0.30540  0.28690  0.43370  1.0000 0.1207007763
H   H30       1.0  0.51930  0.53160  0.27770  1.0000 0.1301361203
H   H31       1.0  0.50260  0.77080  0.33350  1.0000 0.1301361203
H   H32       1.0  0.63340  0.92470  0.26490  1.0000 0.1391169128
H   H33       1.0  0.73830  0.00620  0.15950  1.0000 0.1301361203
H   H34       1.0  0.85780  0.61470  0.09840  1.0000 0.1094871995
H   H35       1.0  0.74030  0.52780  0.20570  1.0000 0.1468388882
H   H36       1.0  0.42790  0.46210  0.93320  1.0000 0.1207007763
H   H37       1.0  0.12910  0.45550  0.09870  1.0000 0.1301361203
H   H38       1.0  0.48630  0.08350  0.08340  1.0000 0.1301361203
H   H39       1.0  0.98620  0.88807  0.93628  1.0000 0.3500188288
H   H40       1.0  0.01380  0.11193  0.06372  1.0000 0.3500188288
C   C1        1.0  0.95020  0.16600  0.70650  1.0000 0.1094871995
C   C2        1.0  0.00470  0.24800  0.64390  1.0000 -0.2451742592
C   C3        1.0  0.99180  0.39260  0.63270  1.0000 0.1391169128
C   C4        1.0  0.92840  0.44700  0.69730  1.0000 -0.2205567661
C   C5        1.0  0.86930  0.36860  0.76040  1.0000 0.0789626511
C   C6        1.0  0.02540  0.48220  0.56130  1.0000 -0.109129608
C   C7        1.0  0.89890  0.57600  0.49910  1.0000 -0.0534305873
C   C8        1.0  0.75300  0.53500  0.51430  1.0000 0.0789626511
C   C9        1.0  0.73000  0.40290  0.51380  1.0000 -0.1523160043
C   C10       1.0  0.63290  0.35940  0.56480  1.0000 -0.1402147638
C   C11       1.0  0.55890  0.44810  0.61640  1.0000 0.1024911625
C   C12       1.0  0.58190  0.58030  0.61700  1.0000 -0.1626833978
C   C13       1.0  0.67900  0.62370  0.56590  1.0000 -0.1523160043
C   C14       1.0  0.49550  0.40900  0.68580  1.0000 -0.1402147638
C   C15       1.0  0.46000  0.29850  0.69860  1.0000 -0.109129608
C   C16       1.0  0.35810  0.26320  0.76300  1.0000 0.1623539326
C   C17       1.0  0.33380  0.13540  0.77170  1.0000 -0.1783959719
C   C18       1.0  0.26260  0.09140  0.83250  1.0000 0.0789626511
C   C19       1.0  0.19280  0.32000  0.86900  1.0000 0.1024911625
C   C20       1.0  0.26810  0.37160  0.80670  1.0000 -0.1870754662
C   C21       1.0  0.52650  0.73630  0.99730  1.0000 -0.0071816422
C   C22       1.0  0.60580  0.58880  0.02460  1.0000 -0.1187638345
C   C23       1.0  0.73940  0.51400  0.98820  1.0000 -0.0311620276
C   C24       1.0  0.78370  0.59390  0.92640  1.0000 -0.0977702106
C   C25       1.0  0.70640  0.74170  0.90010  1.0000 -0.0815572481
C   C26       1.0  0.57130  0.81610  0.93500  1.0000 -0.0977702106
C   C27       1.0  0.38000  0.82070  0.03380  1.0000 0.6041434702
C   C28       1.0  0.83040  0.35430  0.01780  1.0000 0.5679462847
C   C29       1.0  0.04980  0.83400  0.29350  1.0000 0.1094871995
C   C30       1.0  0.99530  0.75200  0.35610  1.0000 -0.2451742592
C   C31       1.0  0.00820  0.60740  0.36730  1.0000 0.1391169128
C   C32       1.0  0.07160  0.55300  0.30270  1.0000 -0.2205567661
C   C33       1.0  0.13070  0.63140  0.23960  1.0000 0.0789626511
C   C34       1.0  0.97460  0.51780  0.43870  1.0000 -0.109129608
C   C35       1.0  0.10110  0.42400  0.50090  1.0000 -0.0534305873
C   C36       1.0  0.24700  0.46500  0.48570  1.0000 0.0789626511
C   C37       1.0  0.27000  0.59710  0.48620  1.0000 -0.1523160043
C   C38       1.0  0.36710  0.64060  0.43520  1.0000 -0.1402147638
C   C39       1.0  0.44110  0.55190  0.38360  1.0000 0.1024911625
C   C40       1.0  0.41810  0.41970  0.38300  1.0000 -0.1626833978
C   C41       1.0  0.32100  0.37630  0.43410  1.0000 -0.1523160043
C   C42       1.0  0.50450  0.59100  0.31420  1.0000 -0.1402147638
C   C43       1.0  0.54000  0.70150  0.30140  1.0000 -0.109129608
C   C44       1.0  0.64190  0.73680  0.23700  1.0000 0.1623539326
C   C45       1.0  0.66620  0.86460  0.22830  1.0000 -0.1783959719
C   C46       1.0  0.73740  0.90860  0.16750  1.0000 0.0789626511
C   C47       1.0  0.80720  0.68000  0.13100  1.0000 0.1024911625
C   C48       1.0  0.73190  0.62840  0.19330  1.0000 -0.1870754662
C   C49       1.0  0.47350  0.26370  0.00270  1.0000 -0.0071816422
C   C50       1.0  0.39420  0.41120  0.97540  1.0000 -0.1187638345
C   C51       1.0  0.26060  0.48600  0.01180  1.0000 -0.0311620276
C   C52       1.0  0.21630  0.40610  0.07360  1.0000 -0.0977702106
C   C53       1.0  0.29360  0.25830  0.09990  1.0000 -0.0815572481
C   C54       1.0  0.42870  0.18390  0.06500  1.0000 -0.0977702106
C   C55       1.0  0.62000  0.17930  0.96620  1.0000 0.6041434702
C   C56       1.0  0.16960  0.64570  0.98220  1.0000 0.5679462847
S   S1        1.0  0.75940  0.83040  0.81440  1.0000 1.1591223177
S   S2        1.0  0.24060  0.16960  0.18560  1.0000 1.1591223177
N   N1        1.0  0.88320  0.22370  0.76380  1.0000 -0.2597159448
N   N2        1.0  0.19160  0.17860  0.88320  1.0000 -0.2356533411
N   N3        1.0  0.11680  0.77630  0.23620  1.0000 -0.2597159448
N   N4        1.0  0.80840  0.82140  0.11680  1.0000 -0.2356533411
O   O1        1.0  0.30870  0.95430  0.00640  1.0000 -0.5509541932
O   O2        1.0  0.34060  0.75240  0.09610  1.0000 -0.5586566034
O   O3        1.0  0.79270  0.27950  0.07270  1.0000 -0.5135181847
O   O4        1.0  0.95240  0.29900  0.97880  1.0000 -0.6100109222
O   O5        1.0  0.71860  0.99050  0.81910  1.0000 -0.6349250379
O   O6        1.0  0.67170  0.81440  0.75770  1.0000 -0.5991324785
O   O7        1.0  0.92090  0.75840  0.80730  1.0000 -0.5927635136
O   O8        1.0  0.98620  0.99230  0.92540  1.0000 -0.8243732157
O   O9        1.0  0.69130  0.04570  0.99360  1.0000 -0.5509541932
O   O10       1.0  0.65940  0.24760  0.90390  1.0000 -0.5586566034
O   O11       1.0  0.20730  0.72050  0.92730  1.0000 -0.5135181847
O   O12       1.0  0.04760  0.70100  0.02120  1.0000 -0.6100109222
O   O13       1.0  0.28140  0.00950  0.18090  1.0000 -0.6349250379
O   O14       1.0  0.32830  0.18560  0.24230  1.0000 -0.5991324785
O   O15       1.0  0.07910  0.24160  0.19270  1.0000 -0.5927635136
O   O16       1.0  0.01380  0.00770  0.07460  1.0000 -0.8243732157
