# DDEC6 charges by PACMAN v1.1 (https://github.com/mtap-research/PACMAN-charge/)
data_2010[Zn][unc]3[ASR]2
_chemical_formula_sum              "Zn8 H104 C192 O40"
_cell_length_a       12.7526
_cell_length_b       26.6465
_cell_length_c       26.6465
_cell_angle_alpha    60.6468
_cell_angle_beta     76.1552
_cell_angle_gamma    76.1554

_symmetry_space_group_name_H-M    "P 1"
_symmetry_Int_Tables_number       1

loop_
  _symmetry_equiv_pos_as_xyz
  'x, y, z'

loop_
  _atom_site_type_symbol
  _atom_site_label
  _atom_site_symmetry_multiplicity
  _atom_site_fract_x
  _atom_site_fract_y
  _atom_site_fract_z
  _atom_site_occupancy
  _atom_site_charge
Zn  Zn1       1.0  0.34755  0.52644  0.61854  1.0000 0.9455562318
Zn  Zn2       1.0  0.53238  0.43190  0.69772  1.0000 0.9244140172
Zn  Zn3       1.0  0.50747  0.11854  0.02644  1.0000 0.9455562318
Zn  Zn4       1.0  0.33800  0.19772  0.93190  1.0000 0.9254550719
Zn  Zn5       1.0  0.15245  0.38146  0.47356  1.0000 0.9455562318
Zn  Zn6       1.0  0.96762  0.30228  0.56810  1.0000 0.9254550719
Zn  Zn7       1.0  0.99253  0.97356  0.88146  1.0000 0.9455562318
Zn  Zn8       1.0  0.16200  0.06810  0.80228  1.0000 0.9254550719
H   H1        1.0  0.83990  0.96330  0.64450  1.0000 0.3197354758
H   H2        1.0  0.60600  0.97860  0.52960  1.0000 0.3620923841
H   H3        1.0  0.66060  0.55380  0.72280  1.0000 0.1104061827
H   H4        1.0  0.71110  0.63410  0.71950  1.0000 0.1104061827
H   H5        1.0  0.47760  0.74090  0.62230  1.0000 0.1169341814
H   H6        1.0  0.42640  0.66340  0.62420  1.0000 0.1394991251
H   H7        1.0  0.79620  0.71530  0.66330  1.0000 0.1104061827
H   H8        1.0  0.01010  0.84670  0.64010  1.0000 0.1502849096
H   H9        1.0  0.54890  0.87080  0.66980  1.0000 0.1104061827
H   H10       1.0  0.48630  0.79150  0.67770  1.0000 0.1104061827
H   H11       1.0  0.02780  0.81650  0.54830  1.0000 0.1169341814
H   H12       1.0  0.17110  0.75310  0.52390  1.0000 0.1169341814
H   H13       1.0  0.09860  0.61830  0.68350  1.0000 0.1169341814
H   H14       1.0  0.97230  0.68500  0.71200  1.0000 0.1104061827
H   H15       1.0  0.51010  0.04840  0.55360  1.0000 0.1285548667
H   H16       1.0  0.50320  0.07630  0.71250  1.0000 0.1169341814
H   H17       1.0  0.71220  0.94090  0.81070  1.0000 0.1285548667
H   H18       1.0  0.75070  0.90730  0.74290  1.0000 0.1169341814
H   H19       1.0  0.32380  0.06850  0.68910  1.0000 0.1169341814
H   H20       1.0  0.18920  0.14990  0.66150  1.0000 0.1169341814
H   H21       1.0  0.38360  0.23370  0.51010  1.0000 0.1169341814
H   H22       1.0  0.51730  0.15320  0.53580  1.0000 0.0982476603
H   H23       1.0  0.42470  0.06770  0.80090  1.0000 0.1104061827
H   H24       1.0  0.38420  0.10060  0.87280  1.0000 0.1104061827
H   H25       1.0  0.69970  0.04820  0.90080  1.0000 0.1285548667
H   H26       1.0  0.73860  0.01780  0.82840  1.0000 0.1285548667
H   H27       1.0  0.55230  0.14450  0.46330  1.0000 0.3197354758
H   H28       1.0  0.88580  0.02960  0.47860  1.0000 0.3620923841
H   H29       1.0  0.06280  0.22280  0.05380  1.0000 0.1104061827
H   H30       1.0  0.93530  0.21950  0.13410  1.0000 0.1104061827
H   H31       1.0  0.15920  0.12230  0.24090  1.0000 0.1169341814
H   H32       1.0  0.28600  0.12420  0.16340  1.0000 0.1394991251
H   H33       1.0  0.82520  0.16330  0.21530  1.0000 0.1104061827
H   H34       1.0  0.50310  0.14010  0.34670  1.0000 0.1502849096
H   H35       1.0  0.91050  0.16980  0.37080  1.0000 0.1104061827
H   H36       1.0  0.04450  0.17770  0.29150  1.0000 0.1104061827
H   H37       1.0  0.60740  0.04830  0.31650  1.0000 0.1169341814
H   H38       1.0  0.55190  0.02390  0.25310  1.0000 0.1169341814
H   H39       1.0  0.59960  0.18350  0.11830  1.0000 0.1169341814
H   H40       1.0  0.63070  0.21200  0.18500  1.0000 0.1104061827
H   H41       1.0  0.88790  0.05360  0.54840  1.0000 0.1285548667
H   H42       1.0  0.70800  0.21250  0.57630  1.0000 0.1169341814
H   H43       1.0  0.53620  0.31070  0.44090  1.0000 0.1285548667
H   H44       1.0  0.59910  0.24290  0.40730  1.0000 0.1169341814
H   H45       1.0  0.91860  0.18910  0.56850  1.0000 0.1169341814
H   H46       1.0  0.99940  0.16150  0.64990  1.0000 0.1169341814
H   H47       1.0  0.87260  0.01010  0.73370  1.0000 0.1169341814
H   H48       1.0  0.79370  0.03580  0.65320  1.0000 0.0982476603
H   H49       1.0  0.70670  0.30090  0.56770  1.0000 0.1104061827
H   H50       1.0  0.64240  0.37280  0.60060  1.0000 0.1104061827
H   H51       1.0  0.35130  0.40080  0.54820  1.0000 0.1285548667
H   H52       1.0  0.41520  0.32840  0.51780  1.0000 0.1285548667
H   H53       1.0  0.66010  0.35550  0.03670  1.0000 0.3197354758
H   H54       1.0  0.89400  0.47040  0.02140  1.0000 0.3620923841
H   H55       1.0  0.83940  0.27720  0.44620  1.0000 0.1104061827
H   H56       1.0  0.78890  0.28050  0.36590  1.0000 0.1104061827
H   H57       1.0  0.02240  0.37770  0.25910  1.0000 0.1169341814
H   H58       1.0  0.07360  0.37580  0.33660  1.0000 0.1394991251
H   H59       1.0  0.70380  0.33670  0.28470  1.0000 0.1104061827
H   H60       1.0  0.48990  0.35990  0.15330  1.0000 0.1502849096
H   H61       1.0  0.95110  0.33020  0.12920  1.0000 0.1104061827
H   H62       1.0  0.01370  0.32230  0.20850  1.0000 0.1104061827
H   H63       1.0  0.47220  0.45170  0.18350  1.0000 0.1169341814
H   H64       1.0  0.32890  0.47610  0.24690  1.0000 0.1169341814
H   H65       1.0  0.40140  0.31650  0.38170  1.0000 0.1169341814
H   H66       1.0  0.52770  0.28800  0.31500  1.0000 0.1104061827
H   H67       1.0  0.98990  0.44640  0.95160  1.0000 0.1285548667
H   H68       1.0  0.99680  0.28750  0.92370  1.0000 0.1104061827
H   H69       1.0  0.78780  0.18930  0.05910  1.0000 0.1285548667
H   H70       1.0  0.74930  0.25710  0.09270  1.0000 0.1169341814
H   H71       1.0  0.17620  0.31090  0.93150  1.0000 0.1169341814
H   H72       1.0  0.31080  0.33850  0.85010  1.0000 0.1169341814
H   H73       1.0  0.11640  0.48990  0.76630  1.0000 0.1169341814
H   H74       1.0  0.98270  0.46420  0.84680  1.0000 0.0982476603
H   H75       1.0  0.07530  0.19910  0.93230  1.0000 0.1104061827
H   H76       1.0  0.11580  0.12720  0.89940  1.0000 0.1104061827
H   H77       1.0  0.80030  0.09920  0.95180  1.0000 0.1285548667
H   H78       1.0  0.76140  0.17160  0.98220  1.0000 0.1285548667
H   H79       1.0  0.94770  0.53670  0.85550  1.0000 0.3197354758
H   H80       1.0  0.61420  0.52140  0.97040  1.0000 0.3620923841
H   H81       1.0  0.43720  0.94620  0.77720  1.0000 0.1104061827
H   H82       1.0  0.56470  0.86590  0.78050  1.0000 0.1104061827
H   H83       1.0  0.34080  0.75910  0.87770  1.0000 0.1169341814
H   H84       1.0  0.21400  0.83660  0.87580  1.0000 0.1394991251
H   H85       1.0  0.67480  0.78470  0.83670  1.0000 0.1104061827
H   H86       1.0  0.99690  0.65330  0.85990  1.0000 0.1502849096
H   H87       1.0  0.58950  0.62920  0.83020  1.0000 0.1104061827
H   H88       1.0  0.45550  0.70850  0.82230  1.0000 0.1104061827
H   H89       1.0  0.89260  0.68350  0.95170  1.0000 0.1169341814
H   H90       1.0  0.94810  0.74690  0.97610  1.0000 0.1169341814
H   H91       1.0  0.90040  0.88170  0.81650  1.0000 0.1169341814
H   H92       1.0  0.86930  0.81500  0.78800  1.0000 0.1104061827
H   H93       1.0  0.61210  0.45160  0.94640  1.0000 0.1285548667
H   H94       1.0  0.79200  0.42370  0.78750  1.0000 0.1169341814
H   H95       1.0  0.96380  0.55910  0.68930  1.0000 0.1285548667
H   H96       1.0  0.90090  0.59270  0.75710  1.0000 0.1169341814
H   H97       1.0  0.58140  0.43150  0.81090  1.0000 0.1169341814
H   H98       1.0  0.50060  0.35010  0.83850  1.0000 0.1169341814
H   H99       1.0  0.62740  0.26630  0.98990  1.0000 0.1169341814
H   H100      1.0  0.70630  0.34680  0.96420  1.0000 0.0982476603
H   H101      1.0  0.79330  0.43230  0.69910  1.0000 0.1104061827
H   H102      1.0  0.85760  0.39940  0.62720  1.0000 0.1104061827
H   H103      1.0  0.14870  0.45180  0.59920  1.0000 0.1285548667
H   H104      1.0  0.08480  0.48220  0.67160  1.0000 0.1285548667
C   C1        1.0  0.51150  0.55140  0.66900  1.0000 0.6000754023
C   C2        1.0  0.53929  0.60111  0.67051  1.0000 -0.0508781047
C   C3        1.0  0.62399  0.59181  0.70161  1.0000 -0.0924868966
C   C4        1.0  0.65238  0.64022  0.70002  1.0000 -0.1511469524
C   C5        1.0  0.60006  0.69604  0.67184  1.0000 0.0804439524
C   C6        1.0  0.51549  0.70291  0.64291  1.0000 -0.1405779256
C   C7        1.0  0.48599  0.65681  0.64341  1.0000 -0.0784845878
C   C8        1.0  0.63831  0.74569  0.66789  1.0000 0.0718950638
C   C9        1.0  0.74554  0.74786  0.66326  1.0000 -0.1793113639
C   C10       1.0  0.78782  0.79428  0.65828  1.0000 0.0254573953
C   C11       1.0  0.90064  0.79966  0.64746  1.0000 0.0495441566
C   C12       1.0  0.93425  0.84605  0.64425  1.0000 -0.2682550614
C   C13       1.0  0.85881  0.89299  0.64679  1.0000 0.2498494061
C   C14       1.0  0.74908  0.89282  0.65362  1.0000 -0.1091428142
C   C15       1.0  0.71227  0.84293  0.66033  1.0000 0.0570463427
C   C16       1.0  0.60081  0.83949  0.66769  1.0000 -0.1302818466
C   C17       1.0  0.56247  0.79223  0.67203  1.0000 -0.1573996336
C   C18       1.0  0.98471  0.75509  0.63529  1.0000 0.0804439524
C   C19       1.0  0.04404  0.77696  0.57596  1.0000 -0.1405779256
C   C20       1.0  0.12501  0.73909  0.56029  1.0000 -0.0982082141
C   C21       1.0  0.13569  0.67811  0.60151  1.0000 -0.0085642962
C   C22       1.0  0.08457  0.65823  0.65623  1.0000 -0.1091428142
C   C23       1.0  0.00789  0.69871  0.67291  1.0000 -0.1573996336
C   C24       1.0  0.66861  0.94609  0.64589  1.0000 -0.1091428142
C   C25       1.0  0.62176  0.97654  0.59674  1.0000 0.2498494061
C   C26       1.0  0.54390  0.02820  0.58780  1.0000 -0.2834166875
C   C27       1.0  0.51864  0.04806  0.62746  1.0000 0.0570463427
C   C28       1.0  0.56932  0.02058  0.67798  1.0000 0.0223894971
C   C29       1.0  0.55240  0.04150  0.71870  1.0000 -0.1906582927
C   C30       1.0  0.60436  0.01354  0.76794  1.0000 0.0804439524
C   C31       1.0  0.67751  0.96159  0.77679  1.0000 -0.1302818466
C   C32       1.0  0.21520  0.63440  0.58300  1.0000 0.5616592551
C   C33       1.0  0.69845  0.94115  0.73695  1.0000 -0.1511469524
C   C34       1.0  0.64559  0.96821  0.68741  1.0000 0.0223894971
C   C35       1.0  0.43535  0.10215  0.61415  1.0000 0.0982476603
C   C36       1.0  0.33574  0.10176  0.65276  1.0000 -0.1573996336
C   C37       1.0  0.25663  0.15057  0.63657  1.0000 -0.0924868966
C   C38       1.0  0.27485  0.20115  0.58375  1.0000 -0.0508781047
C   C39       1.0  0.37184  0.20036  0.54656  1.0000 -0.0784845878
C   C40       1.0  0.45097  0.15223  0.56163  1.0000 -0.1573996336
C   C41       1.0  0.18850  0.25140  0.56600  1.0000 0.6000754023
C   C42       1.0  0.48016  0.06284  0.82184  1.0000 -0.1511469524
C   C43       1.0  0.58353  0.03547  0.81147  1.0000 0.0852321023
C   C44       1.0  0.45640  0.08390  0.86390  1.0000 -0.0784845878
C   C45       1.0  0.54044  0.07996  0.89196  1.0000 -0.0784845878
C   C46       1.0  0.64350  0.05310  0.88030  1.0000 -0.0597456796
C   C47       1.0  0.66607  0.03309  0.83837  1.0000 -0.1405779256
C   C48       1.0  0.51492  0.09988  0.93528  1.0000 0.5865102792
C   C49       1.0  0.26810  0.16900  0.05140  1.0000 0.6000754023
C   C50       1.0  0.18909  0.17051  0.10111  1.0000 -0.0508781047
C   C51       1.0  0.08259  0.20161  0.09181  1.0000 -0.0924868966
C   C52       1.0  0.00738  0.20002  0.14022  1.0000 -0.1511469524
C   C53       1.0  0.03206  0.17184  0.19604  1.0000 0.0804439524
C   C54       1.0  0.13869  0.14291  0.20291  1.0000 -0.1405779256
C   C55       1.0  0.21379  0.14341  0.15681  1.0000 -0.0784845878
C   C56       1.0  0.94811  0.16789  0.24569  1.0000 0.0718950638
C   C57       1.0  0.84334  0.16326  0.24786  1.0000 -0.1793113639
C   C58       1.0  0.75962  0.15828  0.29428  1.0000 0.0254573953
C   C59       1.0  0.65224  0.14746  0.29966  1.0000 0.0495441566
C   C60       1.0  0.57545  0.14425  0.34605  1.0000 -0.2682550614
C   C61       1.0  0.60141  0.14679  0.39299  1.0000 0.2498494061
C   C62       1.0  0.70448  0.15362  0.39282  1.0000 -0.1091428142
C   C63       1.0  0.78447  0.16033  0.34293  1.0000 0.0570463427
C   C64       1.0  0.89201  0.16769  0.33949  1.0000 -0.1302818466
C   C65       1.0  0.97327  0.17203  0.29223  1.0000 -0.1511469524
C   C66       1.0  0.62491  0.13529  0.25509  1.0000 0.0804439524
C   C67       1.0  0.60304  0.07596  0.27696  1.0000 -0.1511469524
C   C68       1.0  0.57561  0.06029  0.23909  1.0000 -0.0982082141
C   C69       1.0  0.58469  0.10151  0.17811  1.0000 -0.0085642962
C   C70       1.0  0.60097  0.15623  0.15823  1.0000 -0.1091428142
C   C71       1.0  0.62049  0.17291  0.19871  1.0000 -0.1573996336
C   C72       1.0  0.73941  0.14589  0.44609  1.0000 -0.1091428142
C   C73       1.0  0.80496  0.09674  0.47654  1.0000 0.2498494061
C   C74       1.0  0.84010  0.08780  0.52820  1.0000 -0.2834166875
C   C75       1.0  0.80584  0.12746  0.54806  1.0000 0.0570463427
C   C76       1.0  0.73212  0.17798  0.52058  1.0000 0.0223894971
C   C77       1.0  0.68740  0.21870  0.54150  1.0000 -0.1906582927
C   C78       1.0  0.61416  0.26794  0.51354  1.0000 0.0852321023
C   C79       1.0  0.58411  0.27679  0.46159  1.0000 -0.1302818466
C   C80       1.0  0.56740  0.08300  0.13440  1.0000 0.5616592551
C   C81       1.0  0.62345  0.23695  0.44115  1.0000 -0.1573996336
C   C82       1.0  0.69879  0.18741  0.46821  1.0000 0.0223894971
C   C83       1.0  0.84835  0.11415  0.60215  1.0000 0.0982476603
C   C84       1.0  0.90974  0.15276  0.60176  1.0000 -0.1573996336
C   C85       1.0  0.95623  0.13657  0.65057  1.0000 -0.0924868966
C   C86       1.0  0.94025  0.08375  0.70115  1.0000 -0.0508781047
C   C87       1.0  0.88124  0.04656  0.70036  1.0000 -0.0784845878
C   C88       1.0  0.83517  0.06163  0.65223  1.0000 -0.1573996336
C   C89       1.0  0.99410  0.06600  0.75140  1.0000 0.6000754023
C   C90       1.0  0.63516  0.32184  0.56284  1.0000 -0.1511469524
C   C91       1.0  0.56953  0.31147  0.53547  1.0000 0.0852321023
C   C92       1.0  0.59580  0.36390  0.58390  1.0000 -0.0784845878
C   C93       1.0  0.48764  0.39196  0.57996  1.0000 -0.0784845878
C   C94       1.0  0.42310  0.38030  0.55310  1.0000 -0.0597456796
C   C95       1.0  0.46247  0.33837  0.53309  1.0000 -0.1405779256
C   C96       1.0  0.44992  0.43528  0.59988  1.0000 0.5865102792
C   C97       1.0  0.98850  0.33100  0.44860  1.0000 0.6000754023
C   C98       1.0  0.96071  0.32949  0.39889  1.0000 -0.0508781047
C   C99       1.0  0.87601  0.29839  0.40819  1.0000 -0.0924868966
C   C100      1.0  0.84762  0.29998  0.35978  1.0000 -0.1511469524
C   C101      1.0  0.89994  0.32816  0.30396  1.0000 0.0804439524
C   C102      1.0  0.98451  0.35709  0.29709  1.0000 -0.1405779256
C   C103      1.0  0.01401  0.35659  0.34319  1.0000 -0.0784845878
C   C104      1.0  0.86169  0.33211  0.25431  1.0000 0.0718950638
C   C105      1.0  0.75446  0.33674  0.25214  1.0000 -0.1793113639
C   C106      1.0  0.71218  0.34172  0.20572  1.0000 0.0254573953
C   C107      1.0  0.59936  0.35254  0.20034  1.0000 0.0495441566
C   C108      1.0  0.56575  0.35575  0.15395  1.0000 -0.2682550614
C   C109      1.0  0.64119  0.35321  0.10701  1.0000 0.2498494061
C   C110      1.0  0.75092  0.34638  0.10718  1.0000 -0.1091428142
C   C111      1.0  0.78773  0.33967  0.15707  1.0000 0.0570463427
C   C112      1.0  0.89919  0.33231  0.16051  1.0000 -0.1302818466
C   C113      1.0  0.93753  0.32797  0.20777  1.0000 -0.1573996336
C   C114      1.0  0.51529  0.36471  0.24491  1.0000 0.0718950638
C   C115      1.0  0.45596  0.42404  0.22304  1.0000 -0.1405779256
C   C116      1.0  0.37499  0.43971  0.26091  1.0000 -0.0982082141
C   C117      1.0  0.36431  0.39849  0.32189  1.0000 -0.0085642962
C   C118      1.0  0.41543  0.34377  0.34177  1.0000 -0.1091428142
C   C119      1.0  0.49211  0.32709  0.30129  1.0000 -0.1573996336
C   C120      1.0  0.83139  0.35411  0.05391  1.0000 -0.1091428142
C   C121      1.0  0.87824  0.40326  0.02346  1.0000 0.2498494061
C   C122      1.0  0.95610  0.41220  0.97180  1.0000 -0.2834166875
C   C123      1.0  0.98136  0.37254  0.95194  1.0000 0.0570463427
C   C124      1.0  0.93068  0.32202  0.97942  1.0000 0.0223894971
C   C125      1.0  0.94760  0.28130  0.95850  1.0000 -0.1906582927
C   C126      1.0  0.89564  0.23206  0.98646  1.0000 0.0804439524
C   C127      1.0  0.82249  0.22321  0.03841  1.0000 -0.1302818466
C   C128      1.0  0.28480  0.41700  0.36560  1.0000 0.5616592551
C   C129      1.0  0.80155  0.26305  0.05885  1.0000 -0.1573996336
C   C130      1.0  0.85441  0.31259  0.03179  1.0000 0.0223894971
C   C131      1.0  0.06465  0.38585  0.89785  1.0000 0.0982476603
C   C132      1.0  0.16426  0.34724  0.89824  1.0000 -0.1573996336
C   C133      1.0  0.24337  0.36343  0.84943  1.0000 -0.0924868966
C   C134      1.0  0.22515  0.41625  0.79885  1.0000 -0.0508781047
C   C135      1.0  0.12816  0.45344  0.79964  1.0000 -0.0784845878
C   C136      1.0  0.04903  0.43837  0.84777  1.0000 -0.1573996336
C   C137      1.0  0.31150  0.43400  0.74860  1.0000 0.6000754023
C   C138      1.0  0.01984  0.17816  0.93716  1.0000 -0.1511469524
C   C139      1.0  0.91647  0.18853  0.96453  1.0000 0.0852321023
C   C140      1.0  0.04360  0.13610  0.91610  1.0000 -0.0784845878
C   C141      1.0  0.95956  0.10804  0.92004  1.0000 -0.0784845878
C   C142      1.0  0.85650  0.11970  0.94690  1.0000 -0.0597456796
C   C143      1.0  0.83393  0.16163  0.96691  1.0000 -0.1405779256
C   C144      1.0  0.98508  0.06472  0.90012  1.0000 0.5865102792
C   C145      1.0  0.23190  0.94860  0.83100  1.0000 0.6000754023
C   C146      1.0  0.31091  0.89889  0.82949  1.0000 -0.0508781047
C   C147      1.0  0.41741  0.90819  0.79839  1.0000 -0.0924868966
C   C148      1.0  0.49262  0.85978  0.79998  1.0000 -0.1511469524
C   C149      1.0  0.46794  0.80396  0.82816  1.0000 0.0804439524
C   C150      1.0  0.36131  0.79709  0.85709  1.0000 -0.1405779256
C   C151      1.0  0.28621  0.84319  0.85659  1.0000 -0.0784845878
C   C152      1.0  0.55189  0.75431  0.83211  1.0000 0.0718950638
C   C153      1.0  0.65666  0.75214  0.83674  1.0000 -0.1793113639
C   C154      1.0  0.74038  0.70572  0.84172  1.0000 0.0254573953
C   C155      1.0  0.84776  0.70034  0.85254  1.0000 0.0495441566
C   C156      1.0  0.92455  0.65395  0.85575  1.0000 -0.2682550614
C   C157      1.0  0.89859  0.60701  0.85321  1.0000 0.2498494061
C   C158      1.0  0.79552  0.60718  0.84638  1.0000 -0.1091428142
C   C159      1.0  0.71553  0.65707  0.83967  1.0000 0.0570463427
C   C160      1.0  0.60799  0.66051  0.83231  1.0000 -0.1405779256
C   C161      1.0  0.52673  0.70777  0.82797  1.0000 -0.1573996336
C   C162      1.0  0.87509  0.74491  0.86471  1.0000 0.0804439524
C   C163      1.0  0.89696  0.72304  0.92404  1.0000 -0.1511469524
C   C164      1.0  0.92439  0.76091  0.93971  1.0000 -0.0982082141
C   C165      1.0  0.91531  0.82189  0.89849  1.0000 -0.0085642962
C   C166      1.0  0.89903  0.84177  0.84377  1.0000 -0.1091428142
C   C167      1.0  0.87951  0.80129  0.82709  1.0000 -0.1573996336
C   C168      1.0  0.76059  0.55391  0.85411  1.0000 -0.1091428142
C   C169      1.0  0.69504  0.52346  0.90326  1.0000 0.2498494061
C   C170      1.0  0.65990  0.47180  0.91220  1.0000 -0.2834166875
C   C171      1.0  0.69416  0.45194  0.87254  1.0000 0.0570463427
C   C172      1.0  0.76788  0.47942  0.82202  1.0000 0.0223894971
C   C173      1.0  0.81260  0.45850  0.78130  1.0000 -0.1906582927
C   C174      1.0  0.88584  0.48646  0.73206  1.0000 0.0804439524
C   C175      1.0  0.91589  0.53841  0.72321  1.0000 -0.1302818466
C   C176      1.0  0.93260  0.86560  0.91700  1.0000 0.5616592551
C   C177      1.0  0.87655  0.55885  0.76305  1.0000 -0.1573996336
C   C178      1.0  0.80121  0.53179  0.81259  1.0000 0.0223894971
C   C179      1.0  0.65165  0.39785  0.88585  1.0000 0.0982476603
C   C180      1.0  0.59026  0.39824  0.84724  1.0000 -0.1573996336
C   C181      1.0  0.54377  0.34943  0.86343  1.0000 -0.0924868966
C   C182      1.0  0.55975  0.29885  0.91625  1.0000 -0.0508781047
C   C183      1.0  0.61876  0.29964  0.95344  1.0000 -0.0784845878
C   C184      1.0  0.66483  0.34777  0.93837  1.0000 -0.1573996336
C   C185      1.0  0.50590  0.24860  0.93400  1.0000 0.6000754023
C   C186      1.0  0.86484  0.43716  0.67816  1.0000 -0.1511469524
C   C187      1.0  0.93047  0.46453  0.68853  1.0000 0.0852321023
C   C188      1.0  0.90420  0.41610  0.63610  1.0000 -0.0784845878
C   C189      1.0  0.01236  0.42004  0.60804  1.0000 -0.0784845878
C   C190      1.0  0.07690  0.44690  0.61970  1.0000 -0.0597456796
C   C191      1.0  0.03753  0.46691  0.66163  1.0000 -0.1405779256
C   C192      1.0  0.05008  0.40012  0.56472  1.0000 0.5865102792
O   O1        1.0  0.89380  0.93933  0.64107  1.0000 -0.4083095705
O   O2        1.0  0.64246  0.95620  0.55688  1.0000 -0.4189646756
O   O3        1.0  0.56572  0.50126  0.69530  1.0000 -0.5591940349
O   O4        1.0  0.43739  0.56160  0.64162  1.0000 -0.528200171
O   O5        1.0  0.28566  0.65954  0.53474  1.0000 -0.5591940349
O   O6        1.0  0.21305  0.58286  0.61384  1.0000 -0.5143965101
O   O7        1.0  0.21434  0.29916  0.52316  1.0000 -0.554880104
O   O8        1.0  0.09486  0.24645  0.59383  1.0000 -0.5360190188
O   O9        1.0  0.41653  0.12088  0.94766  1.0000 -0.6011176025
O   O10       1.0  0.58651  0.09584  0.96214  1.0000 -0.4936601882
O   O11       1.0  0.52580  0.14107  0.43933  1.0000 -0.4083095705
O   O12       1.0  0.84446  0.05688  0.45620  1.0000 -0.4189646756
O   O13       1.0  0.23772  0.19530  0.00126  1.0000 -0.5591940349
O   O14       1.0  0.35939  0.14162  0.06160  1.0000 -0.528200171
O   O15       1.0  0.52006  0.03474  0.15954  1.0000 -0.5591940349
O   O16       1.0  0.59025  0.11384  0.08286  1.0000 -0.5143965101
O   O17       1.0  0.96334  0.02316  0.79916  1.0000 -0.554880104
O   O18       1.0  0.06486  0.09383  0.74645  1.0000 -0.5360190188
O   O19       1.0  0.51493  0.44766  0.62088  1.0000 -0.6011176025
O   O20       1.0  0.35551  0.46214  0.59584  1.0000 -0.4936601882
O   O21       1.0  0.60620  0.35893  0.06067  1.0000 -0.4083095705
O   O22       1.0  0.85754  0.44312  0.04380  1.0000 -0.4189646756
O   O23       1.0  0.93428  0.30470  0.49874  1.0000 -0.5591940349
O   O24       1.0  0.06261  0.35838  0.43840  1.0000 -0.528200171
O   O25       1.0  0.21434  0.46526  0.34046  1.0000 -0.5591940349
O   O26       1.0  0.28695  0.38616  0.41714  1.0000 -0.5143965101
O   O27       1.0  0.28566  0.47684  0.70084  1.0000 -0.554880104
O   O28       1.0  0.40514  0.40617  0.75355  1.0000 -0.5360190188
O   O29       1.0  0.08347  0.05234  0.87912  1.0000 -0.6011176025
O   O30       1.0  0.91349  0.03786  0.90416  1.0000 -0.4936601882
O   O31       1.0  0.97420  0.56067  0.85893  1.0000 -0.4083095705
O   O32       1.0  0.65554  0.54380  0.94312  1.0000 -0.4189646756
O   O33       1.0  0.26228  0.99874  0.80470  1.0000 -0.5591940349
O   O34       1.0  0.14061  0.93840  0.85838  1.0000 -0.528200171
O   O35       1.0  0.97994  0.84046  0.96526  1.0000 -0.5591940349
O   O36       1.0  0.90975  0.91714  0.88616  1.0000 -0.5143965101
O   O37       1.0  0.53666  0.20084  0.97684  1.0000 -0.554880104
O   O38       1.0  0.43514  0.25355  0.90617  1.0000 -0.5360190188
O   O39       1.0  0.98507  0.37912  0.55234  1.0000 -0.6011176025
O   O40       1.0  0.14449  0.40416  0.53786  1.0000 -0.4936601882
