# DDEC6 charges by PACMAN v1.1 (https://github.com/mtap-research/PACMAN-charge/)
data_2010[Cu][nbo]3[ASR]2
_chemical_formula_sum              "Cu6 H18 C60 O24"
_cell_length_a       17.5311
_cell_length_b       17.5311
_cell_length_c       17.5311
_cell_angle_alpha    62.6884
_cell_angle_beta     62.6884
_cell_angle_gamma    62.6884

_symmetry_space_group_name_H-M    "P 1"
_symmetry_Int_Tables_number       1

loop_
  _symmetry_equiv_pos_as_xyz
  'x, y, z'

loop_
  _atom_site_type_symbol
  _atom_site_label
  _atom_site_symmetry_multiplicity
  _atom_site_fract_x
  _atom_site_fract_y
  _atom_site_fract_z
  _atom_site_occupancy
  _atom_site_charge
Cu  Cu1       1.0  0.49936  0.07728  0.49936  1.0000 0.8672251461
Cu  Cu2       1.0  0.07728  0.49936  0.49936  1.0000 0.8672251461
Cu  Cu3       1.0  0.49936  0.49936  0.07728  1.0000 0.8672251461
Cu  Cu4       1.0  0.92272  0.50064  0.50064  1.0000 0.8672251461
Cu  Cu5       1.0  0.50064  0.92272  0.50064  1.0000 0.8672251461
Cu  Cu6       1.0  0.50064  0.50064  0.92272  1.0000 0.8672251461
H   H1        1.0  0.52870  0.22410  0.22410  1.0000 0.137121857
H   H2        1.0  0.22410  0.22410  0.52870  1.0000 0.137121857
H   H3        1.0  0.22410  0.52870  0.22410  1.0000 0.137121857
H   H4        1.0  0.77590  0.47130  0.77590  1.0000 0.137121857
H   H5        1.0  0.77590  0.77590  0.47130  1.0000 0.137121857
H   H6        1.0  0.47130  0.77590  0.77590  1.0000 0.137121857
H   H7        1.0  0.52500  0.99910  0.22060  1.0000 0.137121857
H   H8        1.0  0.99910  0.22060  0.52500  1.0000 0.137121857
H   H9        1.0  0.22060  0.52500  0.99910  1.0000 0.1348840652
H   H10       1.0  0.00090  0.47500  0.77940  1.0000 0.1348840652
H   H11       1.0  0.77940  0.00090  0.47500  1.0000 0.1348840652
H   H12       1.0  0.47500  0.77940  0.00090  1.0000 0.137121857
H   H13       1.0  0.47500  0.00090  0.77940  1.0000 0.137121857
H   H14       1.0  0.00090  0.77940  0.47500  1.0000 0.1348840652
H   H15       1.0  0.77940  0.47500  0.00090  1.0000 0.1348840652
H   H16       1.0  0.99910  0.52500  0.22060  1.0000 0.1348840652
H   H17       1.0  0.22060  0.99910  0.52500  1.0000 0.137121857
H   H18       1.0  0.52500  0.22060  0.99910  1.0000 0.137121857
C   C1        1.0  0.52301  0.06091  0.33391  1.0000 0.5812159636
C   C2        1.0  0.06091  0.33391  0.52301  1.0000 0.5812159636
C   C3        1.0  0.33391  0.52301  0.06091  1.0000 0.5812159636
C   C4        1.0  0.93909  0.47699  0.66609  1.0000 0.5812159636
C   C5        1.0  0.66609  0.93909  0.47699  1.0000 0.5812159636
C   C6        1.0  0.47699  0.66609  0.93909  1.0000 0.5812159636
C   C7        1.0  0.47699  0.93909  0.66609  1.0000 0.5812159636
C   C8        1.0  0.93909  0.66609  0.47699  1.0000 0.5812159636
C   C9        1.0  0.66609  0.47699  0.93909  1.0000 0.5812159636
C   C10       1.0  0.06091  0.52301  0.33391  1.0000 0.5812159636
C   C11       1.0  0.33391  0.06091  0.52301  1.0000 0.5812159636
C   C12       1.0  0.52301  0.33391  0.06091  1.0000 0.5812159636
C   C13       1.0  0.52808  0.19258  0.19258  1.0000 -0.0946581877
C   C14       1.0  0.19258  0.19258  0.52808  1.0000 -0.0946581877
C   C15       1.0  0.19258  0.52808  0.19258  1.0000 -0.0946581877
C   C16       1.0  0.80742  0.47192  0.80742  1.0000 -0.0946581877
C   C17       1.0  0.80742  0.80742  0.47192  1.0000 -0.0946581877
C   C18       1.0  0.47192  0.80742  0.80742  1.0000 -0.0946581877
C   C19       1.0  0.52754  0.10494  0.23594  1.0000 -0.0178665925
C   C20       1.0  0.10494  0.23594  0.52754  1.0000 -0.0178665925
C   C21       1.0  0.23594  0.52754  0.10494  1.0000 -0.0178665925
C   C22       1.0  0.89506  0.47246  0.76406  1.0000 -0.0178665925
C   C23       1.0  0.76406  0.89506  0.47246  1.0000 -0.0178665925
C   C24       1.0  0.47246  0.76406  0.89506  1.0000 -0.0178665925
C   C25       1.0  0.47246  0.89506  0.76406  1.0000 -0.0178665925
C   C26       1.0  0.89506  0.76406  0.47246  1.0000 -0.0178665925
C   C27       1.0  0.76406  0.47246  0.89506  1.0000 -0.0178665925
C   C28       1.0  0.10494  0.52754  0.23594  1.0000 -0.0178665925
C   C29       1.0  0.23594  0.10494  0.52754  1.0000 -0.0178665925
C   C30       1.0  0.52754  0.23594  0.10494  1.0000 -0.0178665925
C   C31       1.0  0.52553  0.05993  0.19053  1.0000 -0.1183151241
C   C32       1.0  0.05993  0.19053  0.52553  1.0000 -0.1183151241
C   C33       1.0  0.19053  0.52553  0.05993  1.0000 -0.1183151241
C   C34       1.0  0.94007  0.47447  0.80947  1.0000 -0.1183151241
C   C35       1.0  0.80947  0.94007  0.47447  1.0000 -0.1183151241
C   C36       1.0  0.47447  0.80947  0.94007  1.0000 -0.1183151241
C   C37       1.0  0.47447  0.94007  0.80947  1.0000 -0.1183151241
C   C38       1.0  0.94007  0.80947  0.47447  1.0000 -0.1183151241
C   C39       1.0  0.80947  0.47447  0.94007  1.0000 -0.1183151241
C   C40       1.0  0.05993  0.52553  0.19053  1.0000 -0.1183151241
C   C41       1.0  0.19053  0.05993  0.52553  1.0000 -0.1183151241
C   C42       1.0  0.52553  0.19053  0.05993  1.0000 -0.1183151241
C   C43       1.0  0.52420  0.10110  0.10110  1.0000 0.1135872027
C   C44       1.0  0.10110  0.10110  0.52420  1.0000 0.1135872027
C   C45       1.0  0.10110  0.52420  0.10110  1.0000 0.1135872027
C   C46       1.0  0.89890  0.47580  0.89890  1.0000 0.1135872027
C   C47       1.0  0.89890  0.89890  0.47580  1.0000 0.1135872027
C   C48       1.0  0.47580  0.89890  0.89890  1.0000 0.1135872027
C   C49       1.0  0.51670  0.05700  0.05700  1.0000 -0.0723100942
C   C50       1.0  0.05700  0.05700  0.51670  1.0000 -0.0768163866
C   C51       1.0  0.05700  0.51670  0.05700  1.0000 -0.0768163866
C   C52       1.0  0.94300  0.48330  0.94300  1.0000 -0.0723100942
C   C53       1.0  0.94300  0.94300  0.48330  1.0000 -0.0768163866
C   C54       1.0  0.48330  0.94300  0.94300  1.0000 -0.0723100942
C   C55       1.0  0.50390  0.02110  0.02110  1.0000 -0.0396582526
C   C56       1.0  0.02110  0.02110  0.50390  1.0000 -0.0396582526
C   C57       1.0  0.02110  0.50390  0.02110  1.0000 -0.0396582526
C   C58       1.0  0.97890  0.49610  0.97890  1.0000 -0.0396582526
C   C59       1.0  0.97890  0.97890  0.49610  1.0000 -0.0396582526
C   C60       1.0  0.49610  0.97890  0.97890  1.0000 -0.0396582526
O   O1        1.0  0.51946  0.98121  0.37045  1.0000 -0.5127390267
O   O2        1.0  0.98121  0.37045  0.51946  1.0000 -0.5127390267
O   O3        1.0  0.37045  0.51946  0.98121  1.0000 -0.5127390267
O   O4        1.0  0.01879  0.48054  0.62955  1.0000 -0.5127390267
O   O5        1.0  0.62955  0.01879  0.48054  1.0000 -0.5127390267
O   O6        1.0  0.48054  0.62955  0.01879  1.0000 -0.5127390267
O   O7        1.0  0.48054  0.01879  0.62955  1.0000 -0.5127390267
O   O8        1.0  0.01879  0.62955  0.48054  1.0000 -0.5127390267
O   O9        1.0  0.62955  0.48054  0.01879  1.0000 -0.5127390267
O   O10       1.0  0.98121  0.51946  0.37045  1.0000 -0.5127390267
O   O11       1.0  0.37045  0.98121  0.51946  1.0000 -0.5127390267
O   O12       1.0  0.51946  0.37045  0.98121  1.0000 -0.5127390267
O   O13       1.0  0.52184  0.10812  0.37085  1.0000 -0.5228254439
O   O14       1.0  0.10812  0.37085  0.52184  1.0000 -0.5228254439
O   O15       1.0  0.37085  0.52184  0.10812  1.0000 -0.5228254439
O   O16       1.0  0.89188  0.47816  0.62915  1.0000 -0.5228254439
O   O17       1.0  0.62915  0.89188  0.47816  1.0000 -0.5228254439
O   O18       1.0  0.47816  0.62915  0.89188  1.0000 -0.5228254439
O   O19       1.0  0.47816  0.89188  0.62915  1.0000 -0.5228254439
O   O20       1.0  0.89188  0.62915  0.47816  1.0000 -0.5228254439
O   O21       1.0  0.62915  0.47816  0.89188  1.0000 -0.5228254439
O   O22       1.0  0.10812  0.52184  0.37085  1.0000 -0.5228254439
O   O23       1.0  0.37085  0.10812  0.52184  1.0000 -0.5228254439
O   O24       1.0  0.52184  0.37085  0.10812  1.0000 -0.5228254439
