# DDEC6 charges by PACMAN v1.1 (https://github.com/mtap-research/PACMAN-charge/)
data_2010[La][flu]3[ASR]2
_chemical_formula_sum              "La2 H14 C30 O14"
_cell_length_a       9.36
_cell_length_b       9.936
_cell_length_c       11.384
_cell_angle_alpha    93.182
_cell_angle_beta     97.617
_cell_angle_gamma    110.271

_symmetry_space_group_name_H-M    "P 1"
_symmetry_Int_Tables_number       1

loop_
  _symmetry_equiv_pos_as_xyz
  'x, y, z'

loop_
  _atom_site_type_symbol
  _atom_site_label
  _atom_site_symmetry_multiplicity
  _atom_site_fract_x
  _atom_site_fract_y
  _atom_site_fract_z
  _atom_site_occupancy
  _atom_site_charge
La  La1       1.0  0.28439  0.04801  0.98309  1.0000 1.8812067241
La  La2       1.0  0.71561  0.95199  0.01691  1.0000 1.8812067241
H   H1        1.0  0.31330  0.49410  0.03440  1.0000 0.1401783705
H   H2        1.0  0.68670  0.50590  0.96560  1.0000 0.1401783705
H   H3        1.0  0.19040  0.78380  0.22070  1.0000 0.1401783705
H   H4        1.0  0.80960  0.21620  0.77930  1.0000 0.1401783705
H   H5        1.0  0.91420  0.36450  0.16480  1.0000 0.1484407315
H   H6        1.0  0.08580  0.63550  0.83520  1.0000 0.1484407315
H   H7        1.0  0.17050  0.59910  0.42890  1.0000 0.131349194
H   H8        1.0  0.82950  0.40090  0.57110  1.0000 0.131349194
H   H9        1.0  0.25900  0.72260  0.61850  1.0000 0.1203131557
H   H10       1.0  0.74100  0.27740  0.38150  1.0000 0.1203131557
H   H11       1.0  0.92980  0.89290  0.57430  1.0000 0.1203131557
H   H12       1.0  0.07020  0.10710  0.42570  1.0000 0.1203131557
H   H13       1.0  0.83960  0.77160  0.38490  1.0000 0.1550098538
H   H14       1.0  0.16040  0.22840  0.61510  1.0000 0.1484407315
C   C1        1.0  0.07180  0.25810  0.02960  1.0000 0.6273801058
C   C2        1.0  0.92820  0.74190  0.97040  1.0000 0.6273801058
C   C3        1.0  0.10800  0.40720  0.08900  1.0000 -0.0164158636
C   C4        1.0  0.89200  0.59280  0.91100  1.0000 -0.0164158636
C   C5        1.0  0.24360  0.51530  0.07630  1.0000 -0.1282367304
C   C6        1.0  0.75640  0.48470  0.92370  1.0000 -0.1282367304
C   C7        1.0  0.27620  0.65590  0.12620  1.0000 0.0020159336
C   C8        1.0  0.72380  0.34410  0.87380  1.0000 0.0020159336
C   C9        1.0  0.42170  0.77350  0.10770  1.0000 0.6015158921
C   C10       1.0  0.57830  0.22650  0.89230  1.0000 0.6015158921
C   C11       1.0  0.17280  0.68950  0.19050  1.0000 -0.2289835185
C   C12       1.0  0.82720  0.31050  0.80950  1.0000 -0.2289835185
C   C13       1.0  0.04200  0.57450  0.20700  1.0000 0.2311163276
C   C14       1.0  0.95800  0.42550  0.79300  1.0000 0.2311163276
C   C15       1.0  0.00550  0.43700  0.15560  1.0000 -0.1963723757
C   C16       1.0  0.99450  0.56300  0.84440  1.0000 -0.1963723757
C   C17       1.0  0.99570  0.67600  0.38860  1.0000 0.2501237124
C   C18       1.0  0.00430  0.32400  0.61140  1.0000 0.2501237124
C   C19       1.0  0.12290  0.65910  0.45810  1.0000 -0.2141712129
C   C20       1.0  0.87710  0.34090  0.54190  1.0000 -0.2141712129
C   C21       1.0  0.17580  0.73360  0.57090  1.0000 -0.06776755
C   C22       1.0  0.82420  0.26640  0.42910  1.0000 -0.06776755
C   C23       1.0  0.10670  0.82380  0.61350  1.0000 -0.0465414885
C   C24       1.0  0.89330  0.17620  0.38650  1.0000 -0.0465414885
C   C25       1.0  0.17080  0.91080  0.73220  1.0000 0.5601512521
C   C26       1.0  0.82920  0.08920  0.26780  1.0000 0.5601512521
C   C27       1.0  0.97930  0.83520  0.54430  1.0000 -0.0750401437
C   C28       1.0  0.02070  0.16480  0.45570  1.0000 -0.0750401437
C   C29       1.0  0.92440  0.76200  0.43130  1.0000 -0.1963723757
C   C30       1.0  0.07560  0.23800  0.56870  1.0000 -0.1963723757
O   O1        1.0  0.94200  0.16390  0.02980  1.0000 -0.6367302209
O   O2        1.0  0.05800  0.83610  0.97020  1.0000 -0.6367302209
O   O3        1.0  0.17780  0.23590  0.98130  1.0000 -0.6183615595
O   O4        1.0  0.82220  0.76410  0.01870  1.0000 -0.6183615595
O   O5        1.0  0.54450  0.74560  0.11840  1.0000 -0.5745948225
O   O6        1.0  0.45550  0.25440  0.88160  1.0000 -0.5745948225
O   O7        1.0  0.41680  0.89460  0.07820  1.0000 -0.6886662513
O   O8        1.0  0.58320  0.10540  0.92180  1.0000 -0.6886662513
O   O9        1.0  0.93770  0.60220  0.27520  1.0000 -0.21967071
O   O10       1.0  0.06230  0.39780  0.72480  1.0000 -0.21967071
O   O11       1.0  0.28640  0.89390  0.79570  1.0000 -0.6183615595
O   O12       1.0  0.71360  0.10610  0.20430  1.0000 -0.6183615595
O   O13       1.0  0.11380  0.99840  0.77110  1.0000 -0.5797218353
O   O14       1.0  0.88620  0.00160  0.22890  1.0000 -0.5797218353
