# DDEC6 charges by PACMAN v1.1 (https://github.com/mtap-research/PACMAN-charge/)
data_2010[Cu][nan]3[ASR]22
_chemical_formula_sum              "Cu8 H12 C32 S4 O32"
_cell_length_a       7.3333
_cell_length_b       18.153
_cell_length_c       12.0778
_cell_angle_alpha    90
_cell_angle_beta     122.879
_cell_angle_gamma    90

_symmetry_space_group_name_H-M    "P 1"
_symmetry_Int_Tables_number       1

loop_
  _symmetry_equiv_pos_as_xyz
  'x, y, z'

loop_
  _atom_site_type_symbol
  _atom_site_label
  _atom_site_symmetry_multiplicity
  _atom_site_fract_x
  _atom_site_fract_y
  _atom_site_fract_z
  _atom_site_occupancy
  _atom_site_charge
Cu  Cu1       1.0  0.35153  0.09427  0.21710  1.0000 1.040464613
Cu  Cu2       1.0  0.64847  0.59427  0.28290  1.0000 1.040464613
Cu  Cu3       1.0  0.64847  0.90573  0.78290  1.0000 1.040464613
Cu  Cu4       1.0  0.35153  0.40573  0.71710  1.0000 1.040464613
Cu  Cu5       1.0  0.88793  0.06855  0.93194  1.0000 1.1442588897
Cu  Cu6       1.0  0.11207  0.56855  0.56806  1.0000 1.1442588897
Cu  Cu7       1.0  0.11207  0.93145  0.06806  1.0000 1.1442588897
Cu  Cu8       1.0  0.88793  0.43145  0.43194  1.0000 1.1442588897
H   H1        1.0  0.38310  0.30780  0.16560  1.0000 0.1449490668
H   H2        1.0  0.61690  0.80780  0.33440  1.0000 0.1449490668
H   H3        1.0  0.61690  0.69220  0.83440  1.0000 0.149051325
H   H4        1.0  0.38310  0.19220  0.66560  1.0000 0.1449490668
H   H5        1.0  0.85830  0.29330  0.79620  1.0000 0.149051325
H   H6        1.0  0.14170  0.79330  0.70380  1.0000 0.149051325
H   H7        1.0  0.14170  0.70670  0.20380  1.0000 0.149051325
H   H8        1.0  0.85830  0.20670  0.29620  1.0000 0.149051325
H   H9        1.0  0.15920  0.48840  0.93810  1.0000 0.149051325
H   H10       1.0  0.84080  0.98840  0.56190  1.0000 0.149051325
H   H11       1.0  0.84080  0.51160  0.06190  1.0000 0.149051325
H   H12       1.0  0.15920  0.01160  0.43810  1.0000 0.149051325
C   C1        1.0  0.98690  0.39550  0.84970  1.0000 -0.0632940183
C   C2        1.0  0.01310  0.89550  0.65030  1.0000 -0.0632940183
C   C3        1.0  0.01310  0.60450  0.15030  1.0000 -0.0632940183
C   C4        1.0  0.98690  0.10450  0.34970  1.0000 -0.0632940183
C   C5        1.0  0.29850  0.40450  0.07010  1.0000 -0.0018263711
C   C6        1.0  0.70150  0.90450  0.42990  1.0000 -0.0018263711
C   C7        1.0  0.70150  0.59550  0.92990  1.0000 -0.0018263711
C   C8        1.0  0.29850  0.09550  0.57010  1.0000 -0.0018263711
C   C9        1.0  0.28160  0.33000  0.08590  1.0000 -0.0789805806
C   C10       1.0  0.71840  0.83000  0.41410  1.0000 -0.0789805806
C   C11       1.0  0.71840  0.67000  0.91410  1.0000 -0.0789805806
C   C12       1.0  0.28160  0.17000  0.58590  1.0000 -0.0789805806
C   C13       1.0  0.11590  0.28690  0.98520  1.0000 -0.0228675451
C   C14       1.0  0.88410  0.78690  0.51480  1.0000 -0.0228675451
C   C15       1.0  0.88410  0.71310  0.01480  1.0000 -0.0228675451
C   C16       1.0  0.11590  0.21310  0.48520  1.0000 -0.0228675451
C   C17       1.0  0.10700  0.20760  0.00930  1.0000 0.6242093624
C   C18       1.0  0.89300  0.70760  0.49070  1.0000 0.6242093624
C   C19       1.0  0.89300  0.79240  0.99070  1.0000 0.6242093624
C   C20       1.0  0.10700  0.29240  0.50930  1.0000 0.6242093624
C   C21       1.0  0.96840  0.32070  0.86530  1.0000 -0.0789805806
C   C22       1.0  0.03160  0.82070  0.63470  1.0000 -0.0789805806
C   C23       1.0  0.03160  0.67930  0.13470  1.0000 -0.0789805806
C   C24       1.0  0.96840  0.17930  0.36530  1.0000 -0.0789805806
C   C25       1.0  0.14960  0.43830  0.95030  1.0000 -0.0866308982
C   C26       1.0  0.85040  0.93830  0.54970  1.0000 -0.0866308982
C   C27       1.0  0.85040  0.56170  0.04970  1.0000 -0.0866308982
C   C28       1.0  0.14960  0.06170  0.45030  1.0000 -0.0866308982
C   C29       1.0  0.48330  0.44640  0.18300  1.0000 0.6145924063
C   C30       1.0  0.51670  0.94640  0.31700  1.0000 0.6145924063
C   C31       1.0  0.51670  0.55360  0.81700  1.0000 0.6145924063
C   C32       1.0  0.48330  0.05360  0.68300  1.0000 0.6145924063
S   S1        1.0  0.81087  0.43452  0.69104  1.0000 1.1875687272
S   S2        1.0  0.18913  0.93452  0.80896  1.0000 1.1875687272
S   S3        1.0  0.18913  0.56548  0.30896  1.0000 1.1875687272
S   S4        1.0  0.81087  0.06548  0.19104  1.0000 1.1875687272
O   O1        1.0  0.96680  0.16780  0.91410  1.0000 -0.5186488895
O   O2        1.0  0.03320  0.66780  0.58590  1.0000 -0.5186488895
O   O3        1.0  0.03320  0.83220  0.08590  1.0000 -0.5186488895
O   O4        1.0  0.96680  0.33220  0.41410  1.0000 -0.5186488895
O   O5        1.0  0.18670  0.03470  0.05710  1.0000 -0.8944779305
O   O6        1.0  0.81330  0.53470  0.44290  1.0000 -0.8952252536
O   O7        1.0  0.81330  0.96530  0.94290  1.0000 -0.8952252536
O   O8        1.0  0.18670  0.46530  0.55710  1.0000 -0.8944779305
O   O9        1.0  0.50400  0.51300  0.16350  1.0000 -0.5520670681
O   O10       1.0  0.49600  0.01300  0.33650  1.0000 -0.5520670681
O   O11       1.0  0.49600  0.48700  0.83650  1.0000 -0.5520670681
O   O12       1.0  0.50400  0.98700  0.66350  1.0000 -0.5520670681
O   O13       1.0  0.24380  0.18580  0.12540  1.0000 -0.5382671027
O   O14       1.0  0.75620  0.68580  0.37460  1.0000 -0.5382671027
O   O15       1.0  0.75620  0.81420  0.87460  1.0000 -0.5382671027
O   O16       1.0  0.24380  0.31420  0.62540  1.0000 -0.5382671027
O   O17       1.0  0.83080  0.51280  0.70260  1.0000 -0.5142784982
O   O18       1.0  0.16920  0.01280  0.79740  1.0000 -0.5142784982
O   O19       1.0  0.16920  0.48720  0.29740  1.0000 -0.5142784982
O   O20       1.0  0.83080  0.98720  0.20260  1.0000 -0.5142784982
O   O21       1.0  0.59930  0.40990  0.28620  1.0000 -0.4987681179
O   O22       1.0  0.40070  0.90990  0.21380  1.0000 -0.4987681179
O   O23       1.0  0.40070  0.59010  0.71380  1.0000 -0.4987681179
O   O24       1.0  0.59930  0.09010  0.78620  1.0000 -0.4987681179
O   O25       1.0  0.88700  0.40320  0.61300  1.0000 -0.6386418908
O   O26       1.0  0.11300  0.90320  0.88700  1.0000 -0.6386418908
O   O27       1.0  0.11300  0.59680  0.38700  1.0000 -0.6386418908
O   O28       1.0  0.88700  0.09680  0.11300  1.0000 -0.6386418908
O   O29       1.0  0.59520  0.40670  0.64500  1.0000 -0.5670681267
O   O30       1.0  0.40480  0.90670  0.85500  1.0000 -0.5670681267
O   O31       1.0  0.40480  0.59330  0.35500  1.0000 -0.5670681267
O   O32       1.0  0.59520  0.09330  0.14500  1.0000 -0.5670681267
