# DDEC6 charges by PACMAN v1.1 (https://github.com/mtap-research/PACMAN-charge/)
data_2010[Cd][pcu]3[ASR]3
_chemical_formula_sum              "Cd8 H128 C164 N16 O48"
_cell_length_a       20.6466
_cell_length_b       20.6466
_cell_length_c       20.6466
_cell_angle_alpha    138.666
_cell_angle_beta     119.196
_cell_angle_gamma    76.1915

_symmetry_space_group_name_H-M    "P 1"
_symmetry_Int_Tables_number       1

loop_
  _symmetry_equiv_pos_as_xyz
  'x, y, z'

loop_
  _atom_site_type_symbol
  _atom_site_label
  _atom_site_symmetry_multiplicity
  _atom_site_fract_x
  _atom_site_fract_y
  _atom_site_fract_z
  _atom_site_occupancy
  _atom_site_charge
Cd  Cd1       1.0  0.08422  0.49886  0.78900  1.0000 0.8591463754
Cd  Cd2       1.0  0.20986  0.29522  0.71100  1.0000 0.8591463754
Cd  Cd3       1.0  0.70986  0.99886  0.91464  1.0000 0.8591463754
Cd  Cd4       1.0  0.58422  0.79522  0.58536  1.0000 0.8591463754
Cd  Cd5       1.0  0.29014  0.00114  0.08536  1.0000 0.8591463754
Cd  Cd6       1.0  0.41578  0.20478  0.41464  1.0000 0.8591463754
Cd  Cd7       1.0  0.91578  0.50114  0.21100  1.0000 0.8591463754
Cd  Cd8       1.0  0.79014  0.70478  0.28900  1.0000 0.8591463754
H   H1        1.0  0.92660  0.75390  0.90110  1.0000 0.1197514558
H   H2        1.0  0.35280  0.02550  0.59890  1.0000 0.1197514558
H   H3        1.0  0.85280  0.25390  0.32730  1.0000 0.1197514558
H   H4        1.0  0.42660  0.52550  0.17270  1.0000 0.1197514558
H   H5        1.0  0.82860  0.82430  0.86910  1.0000 0.1197514558
H   H6        1.0  0.45520  0.95950  0.63090  1.0000 0.1197514558
H   H7        1.0  0.95520  0.32430  0.49570  1.0000 0.1197514558
H   H8        1.0  0.32860  0.45950  0.00430  1.0000 0.1197514558
H   H9        1.0  0.75540  0.58210  0.53970  1.0000 0.109239424
H   H10       1.0  0.54240  0.21570  0.96030  1.0000 0.109239424
H   H11       1.0  0.04240  0.08210  0.32670  1.0000 0.109239424
H   H12       1.0  0.25540  0.71570  0.17330  1.0000 0.109239424
H   H13       1.0  0.85100  0.51120  0.57140  1.0000 0.1197514558
H   H14       1.0  0.43980  0.27960  0.92860  1.0000 0.1197514558
H   H15       1.0  0.93980  0.01120  0.16020  1.0000 0.1197514558
H   H16       1.0  0.35100  0.77960  0.33980  1.0000 0.1197514558
H   H17       1.0  0.93610  0.34480  0.65190  1.0000 0.1197514558
H   H18       1.0  0.19290  0.28420  0.84810  1.0000 0.1197514558
H   H19       1.0  0.69290  0.84480  0.90870  1.0000 0.1197514558
H   H20       1.0  0.43610  0.78420  0.59130  1.0000 0.1197514558
H   H21       1.0  0.87270  0.27240  0.65730  1.0000 0.1407094665
H   H22       1.0  0.11510  0.21540  0.84270  1.0000 0.1407094665
H   H23       1.0  0.61510  0.77240  0.89970  1.0000 0.1407094665
H   H24       1.0  0.37270  0.71540  0.60030  1.0000 0.1407094665
H   H25       1.0  0.04190  0.43200  0.96550  1.0000 0.1490359122
H   H26       1.0  0.96650  0.07640  0.53450  1.0000 0.1490359122
H   H27       1.0  0.46650  0.93200  0.89010  1.0000 0.1490359122
H   H28       1.0  0.54190  0.57640  0.60990  1.0000 0.1490359122
H   H29       1.0  0.09650  0.50190  0.95120  1.0000 0.1011355513
H   H30       1.0  0.05070  0.14530  0.54880  1.0000 0.1011355513
H   H31       1.0  0.55070  0.00190  0.90540  1.0000 0.1011355513
H   H32       1.0  0.59650  0.64530  0.59460  1.0000 0.1011355513
H   H33       1.0  0.82020  0.22080  0.72740  1.0000 0.109239424
H   H34       1.0  0.99340  0.09280  0.77260  1.0000 0.109239424
H   H35       1.0  0.49340  0.72080  0.90060  1.0000 0.109239424
H   H36       1.0  0.32020  0.59280  0.59940  1.0000 0.109239424
H   H37       1.0  0.86790  0.17820  0.66630  1.0000 0.1011355513
H   H38       1.0  0.01190  0.20160  0.83370  1.0000 0.1011355513
H   H39       1.0  0.51190  0.67820  0.81030  1.0000 0.1011355513
H   H40       1.0  0.36790  0.70160  0.68970  1.0000 0.1011355513
H   H41       1.0  0.84710  0.21010  0.84760  1.0000 0.1011355513
H   H42       1.0  0.86250  0.99950  0.65240  1.0000 0.1011355513
H   H43       1.0  0.36250  0.71010  0.86300  1.0000 0.1011355513
H   H44       1.0  0.34710  0.49950  0.63700  1.0000 0.1011355513
H   H45       1.0  0.93360  0.26130  0.91950  1.0000 0.1197514558
H   H46       1.0  0.84180  0.01410  0.58050  1.0000 0.1197514558
H   H47       1.0  0.34180  0.76130  0.82770  1.0000 0.1197514558
H   H48       1.0  0.43360  0.51410  0.67230  1.0000 0.1197514558
H   H49       1.0  0.92400  0.00230  0.85050  1.0000 0.1490359122
H   H50       1.0  0.65180  0.07350  0.64950  1.0000 0.1490359122
H   H51       1.0  0.15180  0.50230  0.57830  1.0000 0.1490359122
H   H52       1.0  0.42400  0.57350  0.92170  1.0000 0.1490359122
H   H53       1.0  0.84920  0.95350  0.86670  1.0000 0.109239424
H   H54       1.0  0.58680  0.98250  0.63330  1.0000 0.109239424
H   H55       1.0  0.08680  0.45350  0.60430  1.0000 0.109239424
H   H56       1.0  0.34920  0.48250  0.89570  1.0000 0.109239424
H   H57       1.0  0.73520  0.15680  0.92980  1.0000 0.1011355513
H   H58       1.0  0.72700  0.80540  0.57020  1.0000 0.1011355513
H   H59       1.0  0.22700  0.65680  0.92160  1.0000 0.1011355513
H   H60       1.0  0.23520  0.30540  0.57840  1.0000 0.1011355513
H   H61       1.0  0.80970  0.21570  0.92280  1.0000 0.1407094665
H   H62       1.0  0.79290  0.88690  0.57720  1.0000 0.1407094665
H   H63       1.0  0.29290  0.71570  0.90600  1.0000 0.1407094665
H   H64       1.0  0.30970  0.38690  0.59400  1.0000 0.1407094665
H   H65       1.0  0.14720  0.74610  0.67270  1.0000 0.1197514558
H   H66       1.0  0.57340  0.47450  0.82730  1.0000 0.1197514558
H   H67       1.0  0.07340  0.24610  0.09890  1.0000 0.1197514558
H   H68       1.0  0.64720  0.97450  0.40110  1.0000 0.1197514558
H   H69       1.0  0.04480  0.67570  0.50430  1.0000 0.1197514558
H   H70       1.0  0.67140  0.54050  0.99570  1.0000 0.1197514558
H   H71       1.0  0.17140  0.17570  0.13090  1.0000 0.1197514558
H   H72       1.0  0.54480  0.04050  0.36910  1.0000 0.1197514558
H   H73       1.0  0.95760  0.91790  0.67330  1.0000 0.109239424
H   H74       1.0  0.74460  0.28430  0.82670  1.0000 0.109239424
H   H75       1.0  0.24460  0.41790  0.46030  1.0000 0.109239424
H   H76       1.0  0.45760  0.78430  0.03970  1.0000 0.109239424
H   H77       1.0  0.06020  0.98880  0.83980  1.0000 0.1197514558
H   H78       1.0  0.64900  0.22040  0.66020  1.0000 0.1197514558
H   H79       1.0  0.14900  0.48880  0.42860  1.0000 0.1197514558
H   H80       1.0  0.56020  0.72040  0.07140  1.0000 0.1197514558
H   H81       1.0  0.30710  0.15520  0.09130  1.0000 0.1197514558
H   H82       1.0  0.56390  0.21580  0.40870  1.0000 0.1197514558
H   H83       1.0  0.06390  0.65520  0.34810  1.0000 0.1197514558
H   H84       1.0  0.80710  0.71580  0.15190  1.0000 0.1197514558
H   H85       1.0  0.38490  0.22760  0.10030  1.0000 0.1407094665
H   H86       1.0  0.62730  0.28460  0.39970  1.0000 0.1407094665
H   H87       1.0  0.12730  0.72760  0.34270  1.0000 0.1407094665
H   H88       1.0  0.88490  0.78460  0.15730  1.0000 0.1407094665
H   H89       1.0  0.53350  0.06800  0.10990  1.0000 0.1490359122
H   H90       1.0  0.45810  0.42360  0.39010  1.0000 0.1490359122
H   H91       1.0  0.95810  0.56800  0.03450  1.0000 0.1490359122
H   H92       1.0  0.03350  0.92360  0.46550  1.0000 0.1490359122
H   H93       1.0  0.44930  0.99810  0.09460  1.0000 0.1011355513
H   H94       1.0  0.40350  0.35470  0.40540  1.0000 0.109239424
H   H95       1.0  0.90350  0.49810  0.04880  1.0000 0.1011355513
H   H96       1.0  0.94930  0.85470  0.45120  1.0000 0.1011355513
H   H97       1.0  0.50660  0.27920  0.09940  1.0000 0.109239424
H   H98       1.0  0.67980  0.40720  0.40060  1.0000 0.109239424
H   H99       1.0  0.17980  0.77920  0.27260  1.0000 0.109239424
H   H100      1.0  0.00660  0.90720  0.22740  1.0000 0.109239424
H   H101      1.0  0.48810  0.32180  0.18970  1.0000 0.1011355513
H   H102      1.0  0.63210  0.29840  0.31030  1.0000 0.1011355513
H   H103      1.0  0.13210  0.82180  0.33370  1.0000 0.1011355513
H   H104      1.0  0.98810  0.79840  0.16630  1.0000 0.1011355513
H   H105      1.0  0.63750  0.28990  0.13700  1.0000 0.1011355513
H   H106      1.0  0.65290  0.50050  0.36300  1.0000 0.1011355513
H   H107      1.0  0.15290  0.78990  0.15240  1.0000 0.1011355513
H   H108      1.0  0.13750  0.00050  0.34760  1.0000 0.1011355513
H   H109      1.0  0.65820  0.23870  0.17230  1.0000 0.1197514558
H   H110      1.0  0.56640  0.48590  0.32770  1.0000 0.1197514558
H   H111      1.0  0.06640  0.73870  0.08050  1.0000 0.1197514558
H   H112      1.0  0.15820  0.98590  0.41950  1.0000 0.1197514558
H   H113      1.0  0.84820  0.49770  0.42170  1.0000 0.1490359122
H   H114      1.0  0.57600  0.42650  0.07830  1.0000 0.1490359122
H   H115      1.0  0.07600  0.99770  0.14950  1.0000 0.1490359122
H   H116      1.0  0.34820  0.92650  0.35050  1.0000 0.1490359122
H   H117      1.0  0.91320  0.54650  0.39570  1.0000 0.109239424
H   H118      1.0  0.65080  0.51750  0.10430  1.0000 0.109239424
H   H119      1.0  0.15080  0.04650  0.13330  1.0000 0.109239424
H   H120      1.0  0.41320  0.01750  0.36670  1.0000 0.109239424
H   H121      1.0  0.77300  0.34320  0.07840  1.0000 0.1011355513
H   H122      1.0  0.76480  0.69460  0.42160  1.0000 0.1011355513
H   H123      1.0  0.26480  0.84320  0.07020  1.0000 0.1011355513
H   H124      1.0  0.27300  0.19460  0.42980  1.0000 0.1011355513
H   H125      1.0  0.70710  0.28430  0.09400  1.0000 0.1407094665
H   H126      1.0  0.69030  0.61310  0.40600  1.0000 0.1407094665
H   H127      1.0  0.19030  0.78430  0.07720  1.0000 0.1407094665
H   H128      1.0  0.20710  0.11310  0.42280  1.0000 0.1407094665
C   C1        1.0  0.96410  0.58037  0.75983  1.0000 0.5390484819
C   C2        1.0  0.32054  0.20427  0.74017  1.0000 0.5390484819
C   C3        1.0  0.82054  0.08037  0.11627  1.0000 0.5390484819
C   C4        1.0  0.46410  0.70427  0.38373  1.0000 0.5390484819
C   C5        1.0  0.89898  0.62599  0.74021  1.0000 -0.0015094399
C   C6        1.0  0.38578  0.15877  0.75979  1.0000 -0.0015094399
C   C7        1.0  0.88578  0.12599  0.22701  1.0000 -0.0015094399
C   C8        1.0  0.39898  0.65877  0.27299  1.0000 -0.0015094399
C   C9        1.0  0.89183  0.71906  0.82819  1.0000 -0.103740271
C   C10       1.0  0.39087  0.06364  0.67181  1.0000 -0.103740271
C   C11       1.0  0.89087  0.21906  0.32723  1.0000 -0.103740271
C   C12       1.0  0.39183  0.56364  0.17277  1.0000 -0.103740271
C   C13       1.0  0.83325  0.76168  0.80929  1.0000 -0.1081216781
C   C14       1.0  0.45239  0.02396  0.69071  1.0000 -0.1081216781
C   C15       1.0  0.95239  0.26168  0.42843  1.0000 -0.1081216781
C   C16       1.0  0.33325  0.52396  0.07157  1.0000 -0.1081216781
C   C17       1.0  0.78200  0.71013  0.70083  1.0000 -0.0272465875
C   C18       1.0  0.50930  0.08117  0.79917  1.0000 -0.0272465875
C   C19       1.0  0.00930  0.21013  0.42813  1.0000 -0.0272465875
C   C20       1.0  0.28200  0.58117  0.07187  1.0000 -0.0272465875
C   C21       1.0  0.78961  0.61662  0.61263  1.0000 -0.1203534997
C   C22       1.0  0.50399  0.17698  0.88737  1.0000 -0.1203534997
C   C23       1.0  0.00399  0.11662  0.32701  1.0000 -0.1203534997
C   C24       1.0  0.28961  0.67698  0.17299  1.0000 -0.1203534997
C   C25       1.0  0.84690  0.57433  0.63133  1.0000 -0.1203534997
C   C26       1.0  0.44300  0.21557  0.86867  1.0000 -0.1203534997
C   C27       1.0  0.94300  0.07433  0.22743  1.0000 -0.1203534997
C   C28       1.0  0.34690  0.71557  0.27257  1.0000 -0.1203534997
C   C29       1.0  0.71825  0.75334  0.67569  1.0000 0.5390484819
C   C30       1.0  0.57765  0.04256  0.82431  1.0000 0.5390484819
C   C31       1.0  0.07765  0.25334  0.53509  1.0000 0.5390484819
C   C32       1.0  0.21825  0.54256  0.96491  1.0000 0.5390484819
C   C33       1.0  0.95776  0.36321  0.71655  1.0000 0.109239424
C   C34       1.0  0.14666  0.24121  0.78345  1.0000 0.1011355513
C   C35       1.0  0.64666  0.86321  0.90545  1.0000 0.1011355513
C   C36       1.0  0.45776  0.74121  0.59455  1.0000 0.1011355513
C   C37       1.0  0.91917  0.31813  0.71804  1.0000 -0.2846092096
C   C38       1.0  0.10009  0.20113  0.78196  1.0000 -0.2846092096
C   C39       1.0  0.60009  0.81813  0.89896  1.0000 -0.2846092096
C   C40       1.0  0.41917  0.70113  0.60104  1.0000 -0.2846092096
C   C41       1.0  0.95205  0.34340  0.81225  1.0000 0.264383685
C   C42       1.0  0.03115  0.13980  0.68775  1.0000 0.264383685
C   C43       1.0  0.53115  0.84340  0.89135  1.0000 0.264383685
C   C44       1.0  0.45205  0.63980  0.60865  1.0000 0.264383685
C   C45       1.0  0.01877  0.41284  0.90013  1.0000 -0.269971491
C   C46       1.0  0.01271  0.11864  0.59987  1.0000 -0.269971491
C   C47       1.0  0.51271  0.91284  0.89407  1.0000 -0.269971491
C   C48       1.0  0.51877  0.61864  0.60593  1.0000 -0.269971491
C   C49       1.0  0.05114  0.45374  0.89020  1.0000 0.0716426087
C   C50       1.0  0.06354  0.16094  0.60980  1.0000 0.0716426087
C   C51       1.0  0.56354  0.95374  0.90260  1.0000 0.0716426087
C   C52       1.0  0.55114  0.66094  0.59740  1.0000 0.0716426087
C   C53       1.0  0.87053  0.21143  0.73430  1.0000 -0.0723937264
C   C54       1.0  0.97713  0.13623  0.76570  1.0000 -0.0723937264
C   C55       1.0  0.47713  0.71143  0.84090  1.0000 -0.0723937264
C   C56       1.0  0.37053  0.63623  0.65910  1.0000 -0.0723937264
C   C57       1.0  0.89686  0.14686  0.75000  1.0000 0.0716426087
C   C58       1.0  0.39686  0.64686  0.75000  1.0000 0.0716426087
C   C59       1.0  0.89688  0.19738  0.85350  1.0000 -0.0842496267
C   C60       1.0  0.84388  0.04338  0.64650  1.0000 -0.0842496267
C   C61       1.0  0.34388  0.69738  0.80050  1.0000 -0.0842496267
C   C62       1.0  0.39688  0.54338  0.69950  1.0000 -0.0842496267
C   C63       1.0  0.87316  0.11181  0.88075  1.0000 0.2852232942
C   C64       1.0  0.73106  0.99241  0.61925  1.0000 0.2848459968
C   C65       1.0  0.23106  0.61181  0.73865  1.0000 0.2848459968
C   C66       1.0  0.37316  0.49241  0.76135  1.0000 0.2848459968
C   C67       1.0  0.88544  0.03510  0.86674  1.0000 -0.269971491
C   C68       1.0  0.66836  0.01870  0.63326  1.0000 -0.269971491
C   C69       1.0  0.16836  0.53510  0.64966  1.0000 -0.269971491
C   C70       1.0  0.38544  0.51870  0.85034  1.0000 -0.269971491
C   C71       1.0  0.84016  0.00633  0.87683  1.0000 0.1011355513
C   C72       1.0  0.62950  0.96333  0.62317  1.0000 0.1011355513
C   C73       1.0  0.12950  0.50633  0.66617  1.0000 0.1011355513
C   C74       1.0  0.34016  0.46333  0.83383  1.0000 0.1011355513
C   C75       1.0  0.77436  0.12555  0.91453  1.0000 0.0716426087
C   C76       1.0  0.71102  0.85983  0.58547  1.0000 0.0716426087
C   C77       1.0  0.21102  0.62555  0.85119  1.0000 0.0716426087
C   C78       1.0  0.27436  0.35983  0.64881  1.0000 0.0716426087
C   C79       1.0  0.81779  0.16054  0.90845  1.0000 -0.269971491
C   C80       1.0  0.75209  0.90934  0.59155  1.0000 -0.269971491
C   C81       1.0  0.25209  0.66054  0.84275  1.0000 -0.269971491
C   C82       1.0  0.31779  0.40934  0.65725  1.0000 -0.269971491
C   C83       1.0  0.17946  0.91963  0.88373  1.0000 0.5390484819
C   C84       1.0  0.53590  0.29573  0.61627  1.0000 0.5390484819
C   C85       1.0  0.03590  0.41963  0.24017  1.0000 0.5390484819
C   C86       1.0  0.67946  0.79573  0.25983  1.0000 0.5390484819
C   C87       1.0  0.11422  0.87401  0.77299  1.0000 -0.0015094399
C   C88       1.0  0.60102  0.34123  0.72701  1.0000 -0.0015094399
C   C89       1.0  0.10102  0.37401  0.25979  1.0000 -0.0015094399
C   C90       1.0  0.61422  0.84123  0.24021  1.0000 -0.0015094399
C   C91       1.0  0.10913  0.78094  0.67277  1.0000 -0.103740271
C   C92       1.0  0.60817  0.43636  0.82723  1.0000 -0.103740271
C   C93       1.0  0.10817  0.28094  0.17181  1.0000 -0.103740271
C   C94       1.0  0.60913  0.93636  0.32819  1.0000 -0.103740271
C   C95       1.0  0.04761  0.73832  0.57157  1.0000 -0.1081216781
C   C96       1.0  0.66675  0.47604  0.92843  1.0000 -0.1081216781
C   C97       1.0  0.16675  0.23832  0.19071  1.0000 -0.1081216781
C   C98       1.0  0.54761  0.97604  0.30929  1.0000 -0.1081216781
C   C99       1.0  0.99070  0.78987  0.57187  1.0000 -0.0272465875
C   C100      1.0  0.71800  0.41883  0.92813  1.0000 -0.0272465875
C   C101      1.0  0.21800  0.28987  0.29917  1.0000 -0.0272465875
C   C102      1.0  0.49070  0.91883  0.20083  1.0000 -0.0272465875
C   C103      1.0  0.99601  0.88338  0.67299  1.0000 -0.1203534997
C   C104      1.0  0.71039  0.32302  0.82701  1.0000 -0.1203534997
C   C105      1.0  0.21039  0.38338  0.38737  1.0000 -0.1203534997
C   C106      1.0  0.49601  0.82302  0.11263  1.0000 -0.1203534997
C   C107      1.0  0.05700  0.92567  0.77257  1.0000 -0.1203534997
C   C108      1.0  0.65310  0.28443  0.72743  1.0000 -0.1203534997
C   C109      1.0  0.15310  0.42567  0.36867  1.0000 -0.1203534997
C   C110      1.0  0.55700  0.78443  0.13133  1.0000 -0.1203534997
C   C111      1.0  0.92235  0.74666  0.46491  1.0000 0.5390484819
C   C112      1.0  0.78175  0.45744  0.03509  1.0000 0.5390484819
C   C113      1.0  0.28175  0.24666  0.32431  1.0000 0.5390484819
C   C114      1.0  0.42235  0.95744  0.17569  1.0000 0.5390484819
C   C115      1.0  0.35334  0.13679  0.09455  1.0000 0.1011355513
C   C116      1.0  0.54224  0.25879  0.40545  1.0000 0.1011355513
C   C117      1.0  0.04224  0.63679  0.28345  1.0000 0.1011355513
C   C118      1.0  0.85334  0.75879  0.21655  1.0000 0.1011355513
C   C119      1.0  0.39991  0.18187  0.10104  1.0000 -0.2846092096
C   C120      1.0  0.58083  0.29887  0.39896  1.0000 -0.2846092096
C   C121      1.0  0.08083  0.68187  0.28196  1.0000 -0.2846092096
C   C122      1.0  0.89991  0.79887  0.21804  1.0000 -0.2846092096
C   C123      1.0  0.46885  0.15660  0.10865  1.0000 0.264383685
C   C124      1.0  0.54795  0.36020  0.39135  1.0000 0.264383685
C   C125      1.0  0.04795  0.65660  0.18775  1.0000 0.264383685
C   C126      1.0  0.96885  0.86020  0.31225  1.0000 0.264383685
C   C127      1.0  0.48729  0.08716  0.10593  1.0000 -0.269971491
C   C128      1.0  0.48123  0.38136  0.39407  1.0000 -0.269971491
C   C129      1.0  0.98123  0.58716  0.09987  1.0000 -0.269971491
C   C130      1.0  0.98729  0.88136  0.40013  1.0000 -0.269971491
C   C131      1.0  0.43646  0.04626  0.09740  1.0000 0.0716426087
C   C132      1.0  0.44886  0.33906  0.40260  1.0000 0.0716426087
C   C133      1.0  0.94886  0.54626  0.10980  1.0000 0.0716426087
C   C134      1.0  0.93646  0.83906  0.39020  1.0000 0.0716426087
C   C135      1.0  0.52287  0.28857  0.15910  1.0000 -0.0723937264
C   C136      1.0  0.62947  0.36377  0.34090  1.0000 -0.0723937264
C   C137      1.0  0.12947  0.78857  0.26570  1.0000 -0.0723937264
C   C138      1.0  0.02287  0.86377  0.23430  1.0000 -0.0723937264
C   C139      1.0  0.60314  0.35314  0.25000  1.0000 0.0716426087
C   C140      1.0  0.10314  0.85314  0.25000  1.0000 0.0716426087
C   C141      1.0  0.65612  0.30262  0.19950  1.0000 -0.0842496267
C   C142      1.0  0.60312  0.45662  0.30050  1.0000 -0.0842496267
C   C143      1.0  0.10312  0.80262  0.14650  1.0000 -0.0842496267
C   C144      1.0  0.15612  0.95662  0.35350  1.0000 -0.0842496267
C   C145      1.0  0.76894  0.38819  0.26135  1.0000 0.2852232942
C   C146      1.0  0.62684  0.50759  0.23865  1.0000 0.2852232942
C   C147      1.0  0.12684  0.88819  0.11925  1.0000 0.2848459968
C   C148      1.0  0.26894  0.00759  0.38075  1.0000 0.2848459968
C   C149      1.0  0.83164  0.46490  0.35034  1.0000 -0.269971491
C   C150      1.0  0.61456  0.48130  0.14966  1.0000 -0.269971491
C   C151      1.0  0.11456  0.96490  0.13326  1.0000 -0.269971491
C   C152      1.0  0.33164  0.98130  0.36674  1.0000 -0.269971491
C   C153      1.0  0.87050  0.49367  0.33383  1.0000 0.1011355513
C   C154      1.0  0.65984  0.53667  0.16617  1.0000 0.1011355513
C   C155      1.0  0.15984  0.99367  0.12317  1.0000 0.1011355513
C   C156      1.0  0.37050  0.03667  0.37683  1.0000 0.1011355513
C   C157      1.0  0.78898  0.37445  0.14881  1.0000 0.0716426087
C   C158      1.0  0.72564  0.64017  0.35119  1.0000 0.0716426087
C   C159      1.0  0.22564  0.87445  0.08547  1.0000 0.0716426087
C   C160      1.0  0.28898  0.14017  0.41453  1.0000 0.0716426087
C   C161      1.0  0.74791  0.33946  0.15725  1.0000 -0.269971491
C   C162      1.0  0.68221  0.59066  0.34275  1.0000 -0.269971491
C   C163      1.0  0.18221  0.83946  0.09155  1.0000 -0.269971491
C   C164      1.0  0.24791  0.09066  0.40845  1.0000 -0.269971491
N   N1        1.0  0.02216  0.42946  0.79908  1.0000 -0.2383668682
N   N2        1.0  0.13038  0.22308  0.70092  1.0000 -0.2383668682
N   N3        1.0  0.63038  0.92946  0.90730  1.0000 -0.2383668682
N   N4        1.0  0.52216  0.72308  0.59270  1.0000 -0.2383668682
N   N5        1.0  0.78484  0.04978  0.90000  1.0000 -0.2522667608
N   N6        1.0  0.64978  0.88484  0.60000  1.0000 -0.2522667608
N   N7        1.0  0.14978  0.54978  0.76494  1.0000 -0.2522667608
N   N8        1.0  0.28484  0.38484  0.73506  1.0000 -0.2522667608
N   N9        1.0  0.36962  0.07054  0.09270  1.0000 -0.2383668682
N   N10       1.0  0.47784  0.27692  0.40730  1.0000 -0.2383668682
N   N11       1.0  0.97784  0.57054  0.20092  1.0000 -0.2383668682
N   N12       1.0  0.86962  0.77692  0.29908  1.0000 -0.2383668682
N   N13       1.0  0.85022  0.45022  0.23506  1.0000 -0.2522667608
N   N14       1.0  0.71516  0.61516  0.26494  1.0000 -0.2522667608
N   N15       1.0  0.21516  0.95022  0.10000  1.0000 -0.2522667608
N   N16       1.0  0.35022  0.11516  0.40000  1.0000 -0.2522667608
O   O1        1.0  0.96596  0.49441  0.67721  1.0000 -0.5559400132
O   O2        1.0  0.31720  0.28875  0.82279  1.0000 -0.5559400132
O   O3        1.0  0.81720  0.99441  0.02845  1.0000 -0.5559400132
O   O4        1.0  0.46596  0.78875  0.47155  1.0000 -0.5559400132
O   O5        1.0  0.01375  0.63094  0.85777  1.0000 -0.5445263794
O   O6        1.0  0.27317  0.15598  0.64223  1.0000 -0.5445263794
O   O7        1.0  0.77317  0.13094  0.11719  1.0000 -0.5445263794
O   O8        1.0  0.51375  0.65598  0.38281  1.0000 -0.5445263794
O   O9        1.0  0.67732  0.70591  0.57691  1.0000 -0.5320291331
O   O10       1.0  0.62900  0.10041  0.92309  1.0000 -0.5320291331
O   O11       1.0  0.12900  0.20591  0.52859  1.0000 -0.5320291331
O   O12       1.0  0.17732  0.60041  0.97141  1.0000 -0.5320291331
O   O13       1.0  0.70735  0.83433  0.75374  1.0000 -0.5700738242
O   O14       1.0  0.58059  0.95361  0.74626  1.0000 -0.5700738242
O   O15       1.0  0.08059  0.33433  0.62698  1.0000 -0.5700738242
O   O16       1.0  0.20735  0.45361  0.87302  1.0000 -0.5700738242
O   O17       1.0  0.92266  0.30632  0.82800  1.0000 -0.1815556435
O   O18       1.0  0.97832  0.09466  0.67200  1.0000 -0.1815556435
O   O19       1.0  0.47832  0.80632  0.88366  1.0000 -0.1815556435
O   O20       1.0  0.42266  0.59466  0.61634  1.0000 -0.1815556435
O   O21       1.0  0.91653  0.13206  0.86325  1.0000 -0.1732154729
O   O22       1.0  0.76881  0.05328  0.63675  1.0000 -0.1732154729
O   O23       1.0  0.26881  0.63206  0.71553  1.0000 -0.1732154729
O   O24       1.0  0.41653  0.55328  0.78447  1.0000 -0.1732154729
O   O25       1.0  0.18280  0.00559  0.97155  1.0000 -0.5559400132
O   O26       1.0  0.53404  0.21125  0.52845  1.0000 -0.5559400132
O   O27       1.0  0.03404  0.50559  0.32279  1.0000 -0.5559400132
O   O28       1.0  0.68280  0.71125  0.17721  1.0000 -0.5559400132
O   O29       1.0  0.22683  0.86906  0.88281  1.0000 -0.5445263794
O   O30       1.0  0.48625  0.34402  0.61719  1.0000 -0.5445263794
O   O31       1.0  0.98625  0.36906  0.14223  1.0000 -0.5445263794
O   O32       1.0  0.72683  0.84402  0.35777  1.0000 -0.5450104287
O   O33       1.0  0.87100  0.79409  0.47141  1.0000 -0.5320291331
O   O34       1.0  0.82268  0.39959  0.02859  1.0000 -0.5320291331
O   O35       1.0  0.32268  0.29409  0.42309  1.0000 -0.5320291331
O   O36       1.0  0.37100  0.89959  0.07691  1.0000 -0.5320291331
O   O37       1.0  0.91941  0.66567  0.37302  1.0000 -0.5700738242
O   O38       1.0  0.79265  0.54639  0.12698  1.0000 -0.5700738242
O   O39       1.0  0.29265  0.16567  0.24626  1.0000 -0.5700738242
O   O40       1.0  0.41941  0.04639  0.25374  1.0000 -0.5700738242
O   O41       1.0  0.52168  0.19368  0.11634  1.0000 -0.1815556435
O   O42       1.0  0.57734  0.40534  0.38366  1.0000 -0.1815556435
O   O43       1.0  0.07734  0.69368  0.17200  1.0000 -0.1815556435
O   O44       1.0  0.02168  0.90534  0.32800  1.0000 -0.1815556435
O   O45       1.0  0.73119  0.36794  0.28447  1.0000 -0.1732154729
O   O46       1.0  0.58347  0.44672  0.21553  1.0000 -0.1732154729
O   O47       1.0  0.08347  0.86794  0.13675  1.0000 -0.1732154729
O   O48       1.0  0.23119  0.94672  0.36325  1.0000 -0.1732154729
