# DDEC6 charges by PACMAN v1.1 (https://github.com/mtap-research/PACMAN-charge/)
data_2010[Zn][rtl]3[ASR]1
_chemical_formula_sum              "Zn32 H288 C480 N48 O152"
_cell_length_a       34.291
_cell_length_b       27.033
_cell_length_c       36.13
_cell_angle_alpha    90
_cell_angle_beta     108.81
_cell_angle_gamma    90

_symmetry_space_group_name_H-M    "P 1"
_symmetry_Int_Tables_number       1

loop_
  _symmetry_equiv_pos_as_xyz
  'x, y, z'

loop_
  _atom_site_type_symbol
  _atom_site_label
  _atom_site_symmetry_multiplicity
  _atom_site_fract_x
  _atom_site_fract_y
  _atom_site_fract_z
  _atom_site_occupancy
  _atom_site_charge
Zn  Zn1       1.0  0.69683  0.03312  0.40083  1.0000 0.9461503616
Zn  Zn2       1.0  0.19683  0.46688  0.40083  1.0000 0.9413104261
Zn  Zn3       1.0  0.78309  0.00176  0.39514  1.0000 0.9413104261
Zn  Zn4       1.0  0.28309  0.49824  0.39514  1.0000 0.9413104261
Zn  Zn5       1.0  0.20895  0.48690  0.31881  1.0000 0.9413104261
Zn  Zn6       1.0  0.70895  0.01310  0.31881  1.0000 0.9461503616
Zn  Zn7       1.0  0.71028  0.92368  0.37651  1.0000 0.9714606992
Zn  Zn8       1.0  0.21028  0.57632  0.37651  1.0000 0.9714606992
Zn  Zn9       1.0  0.13566  0.49568  0.87274  1.0000 0.9328515819
Zn  Zn10      1.0  0.63566  0.00432  0.87274  1.0000 0.9328515819
Zn  Zn11      1.0  0.20908  0.51122  0.95015  1.0000 0.9822390766
Zn  Zn12      1.0  0.70908  0.98878  0.95015  1.0000 0.9822390766
Zn  Zn13      1.0  0.72009  0.96836  0.86612  1.0000 0.9413104261
Zn  Zn14      1.0  0.22009  0.53164  0.86612  1.0000 0.9461503616
Zn  Zn15      1.0  0.21162  0.42285  0.89425  1.0000 0.9413104261
Zn  Zn16      1.0  0.71162  0.07715  0.89425  1.0000 0.9413104261
Zn  Zn17      1.0  0.80317  0.53312  0.59917  1.0000 0.9413104261
Zn  Zn18      1.0  0.30317  0.96688  0.59917  1.0000 0.9461503616
Zn  Zn19      1.0  0.71691  0.50176  0.60486  1.0000 0.9413104261
Zn  Zn20      1.0  0.21691  0.99824  0.60486  1.0000 0.9413104261
Zn  Zn21      1.0  0.29105  0.98690  0.68119  1.0000 0.9413104261
Zn  Zn22      1.0  0.79105  0.51310  0.68119  1.0000 0.9413104261
Zn  Zn23      1.0  0.78972  0.42368  0.62349  1.0000 0.9714606992
Zn  Zn24      1.0  0.28972  0.07632  0.62349  1.0000 0.9714606992
Zn  Zn25      1.0  0.36434  0.99568  0.12726  1.0000 0.9413104261
Zn  Zn26      1.0  0.86434  0.50432  0.12726  1.0000 0.9413104261
Zn  Zn27      1.0  0.29092  0.01122  0.04985  1.0000 0.9850263885
Zn  Zn28      1.0  0.79092  0.48878  0.04985  1.0000 0.9822390766
Zn  Zn29      1.0  0.77991  0.46836  0.13388  1.0000 0.9461503616
Zn  Zn30      1.0  0.27991  0.03164  0.13388  1.0000 0.9461503616
Zn  Zn31      1.0  0.28838  0.92285  0.10575  1.0000 0.9461503616
Zn  Zn32      1.0  0.78838  0.57715  0.10575  1.0000 0.9461503616
H   H1        1.0  0.84480  0.14400  0.62370  1.0000 0.2776733262
H   H2        1.0  0.34480  0.35600  0.62370  1.0000 0.2776733262
H   H3        1.0  0.01710  0.21850  0.77870  1.0000 0.2920626542
H   H4        1.0  0.51710  0.28150  0.77870  1.0000 0.2920626542
H   H5        1.0  0.86090  0.09930  0.73440  1.0000 0.2776733262
H   H6        1.0  0.36090  0.40070  0.73440  1.0000 0.2776733262
H   H7        1.0  0.38070  0.36970  0.22190  1.0000 0.2776733262
H   H8        1.0  0.88070  0.13030  0.22190  1.0000 0.2717698108
H   H9        1.0  0.52180  0.24000  0.26660  1.0000 0.2717698108
H   H10       1.0  0.02180  0.26000  0.26660  1.0000 0.2717698108
H   H11       1.0  0.40400  0.39430  0.12050  1.0000 0.2776733262
H   H12       1.0  0.90400  0.10570  0.12050  1.0000 0.2717698108
H   H13       1.0  0.02980  0.62450  0.14430  1.0000 0.2776733262
H   H14       1.0  0.52980  0.87550  0.14430  1.0000 0.2776733262
H   H15       1.0  0.04880  0.65480  0.04080  1.0000 0.2717698108
H   H16       1.0  0.54880  0.84520  0.04080  1.0000 0.2717698108
H   H17       1.0  0.91630  0.79110  0.00620  1.0000 0.2776733262
H   H18       1.0  0.41630  0.70890  0.00620  1.0000 0.2776733262
H   H19       1.0  0.54800  0.90410  0.52470  1.0000 0.2717698108
H   H20       1.0  0.04800  0.59590  0.52470  1.0000 0.2717698108
H   H21       1.0  0.57320  0.85510  0.64550  1.0000 0.2776733262
H   H22       1.0  0.07320  0.64490  0.64550  1.0000 0.2776733262
H   H23       1.0  0.44260  0.71750  0.51280  1.0000 0.2717698108
H   H24       1.0  0.94260  0.78250  0.51280  1.0000 0.2717698108
H   H25       1.0  0.85150  0.07810  0.49120  1.0000 0.128596024
H   H26       1.0  0.35150  0.42190  0.49120  1.0000 0.128596024
H   H27       1.0  0.88890  0.09920  0.55270  1.0000 0.1390138734
H   H28       1.0  0.38890  0.40080  0.55270  1.0000 0.1390138734
H   H29       1.0  0.78340  0.13330  0.57370  1.0000 0.128596024
H   H30       1.0  0.28340  0.36670  0.57370  1.0000 0.128596024
H   H31       1.0  0.74710  0.10790  0.51060  1.0000 0.128596024
H   H32       1.0  0.24710  0.39210  0.51060  1.0000 0.128596024
H   H33       1.0  0.96040  0.20220  0.66100  1.0000 0.1390138734
H   H34       1.0  0.46040  0.29780  0.66100  1.0000 0.1390138734
H   H35       1.0  0.94550  0.21390  0.76760  1.0000 0.128596024
H   H36       1.0  0.44550  0.28610  0.76760  1.0000 0.128596024
H   H37       1.0  0.86990  0.12680  0.68470  1.0000 0.0981114871
H   H38       1.0  0.36990  0.37320  0.68470  1.0000 0.0981114871
H   H39       1.0  0.01720  0.34360  0.75720  1.0000 0.1390138734
H   H40       1.0  0.51720  0.15640  0.75720  1.0000 0.1390138734
H   H41       1.0  0.06250  0.39960  0.79350  1.0000 0.1213865599
H   H42       1.0  0.56250  0.10040  0.79350  1.0000 0.1213865599
H   H43       1.0  0.13070  0.29340  0.86070  1.0000 0.128596024
H   H44       1.0  0.63070  0.20660  0.86070  1.0000 0.128596024
H   H45       1.0  0.08580  0.23360  0.82590  1.0000 0.1390138734
H   H46       1.0  0.58580  0.26640  0.82590  1.0000 0.1390138734
H   H47       1.0  0.81720  0.17240  0.78850  1.0000 0.128596024
H   H48       1.0  0.31720  0.32760  0.78850  1.0000 0.128596024
H   H49       1.0  0.77690  0.14090  0.82650  1.0000 0.128596024
H   H50       1.0  0.27690  0.35910  0.82650  1.0000 0.128596024
H   H51       1.0  0.79560  0.00730  0.80090  1.0000 0.128596024
H   H52       1.0  0.29560  0.49270  0.80090  1.0000 0.128596024
H   H53       1.0  0.83630  0.02960  0.76230  1.0000 0.128596024
H   H54       1.0  0.33630  0.47040  0.76230  1.0000 0.128596024
H   H55       1.0  0.37510  0.44410  0.34960  1.0000 0.128596024
H   H56       1.0  0.87510  0.05590  0.34960  1.0000 0.128596024
H   H57       1.0  0.41740  0.41340  0.31820  1.0000 0.1390138734
H   H58       1.0  0.91740  0.08660  0.31820  1.0000 0.1390138734
H   H59       1.0  0.31920  0.38660  0.22400  1.0000 0.128596024
H   H60       1.0  0.81920  0.11340  0.22400  1.0000 0.128596024
H   H61       1.0  0.27620  0.42640  0.25440  1.0000 0.128596024
H   H62       1.0  0.77620  0.07360  0.25440  1.0000 0.128596024
H   H63       1.0  0.49870  0.31120  0.26250  1.0000 0.1213865599
H   H64       1.0  0.99870  0.18880  0.26250  1.0000 0.1213865599
H   H65       1.0  0.48500  0.27850  0.14980  1.0000 0.1390138734
H   H66       1.0  0.98500  0.22150  0.14980  1.0000 0.1390138734
H   H67       1.0  0.40310  0.36760  0.17500  1.0000 0.0858747578
H   H68       1.0  0.90310  0.13240  0.17500  1.0000 0.0858747578
H   H69       1.0  0.60660  0.20350  0.23800  1.0000 0.1390138734
H   H70       1.0  0.10660  0.29650  0.23800  1.0000 0.1390138734
H   H71       1.0  0.65780  0.14710  0.27440  1.0000 0.128596024
H   H72       1.0  0.15780  0.35290  0.27440  1.0000 0.128596024
H   H73       1.0  0.59380  0.12930  0.34940  1.0000 0.128596024
H   H74       1.0  0.09380  0.37070  0.34940  1.0000 0.128596024
H   H75       1.0  0.54300  0.17850  0.31280  1.0000 0.1213865599
H   H76       1.0  0.04300  0.32150  0.31280  1.0000 0.1213865599
H   H77       1.0  0.37110  0.45260  0.08070  1.0000 0.128596024
H   H78       1.0  0.87110  0.04740  0.08070  1.0000 0.128596024
H   H79       1.0  0.32030  0.47920  0.02180  1.0000 0.128596024
H   H80       1.0  0.82030  0.02080  0.02180  1.0000 0.128596024
H   H81       1.0  0.30490  0.33950  0.98610  1.0000 0.128596024
H   H82       1.0  0.80490  0.16050  0.98610  1.0000 0.128596024
H   H83       1.0  0.35700  0.31450  0.04280  1.0000 0.1390138734
H   H84       1.0  0.85700  0.18550  0.04280  1.0000 0.1390138734
H   H85       1.0  0.12350  0.53040  0.22530  1.0000 0.1213865599
H   H86       1.0  0.62350  0.96960  0.22530  1.0000 0.1213865599
H   H87       1.0  0.07220  0.56610  0.17130  1.0000 0.128596024
H   H88       1.0  0.57220  0.93390  0.17130  1.0000 0.128596024
H   H89       1.0  0.06960  0.68990  0.23410  1.0000 0.128596024
H   H90       1.0  0.56960  0.81010  0.23410  1.0000 0.128596024
H   H91       1.0  0.11700  0.65210  0.28640  1.0000 0.128596024
H   H92       1.0  0.61700  0.84790  0.28640  1.0000 0.128596024
H   H93       1.0  0.02980  0.65160  0.08840  1.0000 0.0981114871
H   H94       1.0  0.52980  0.84840  0.08840  1.0000 0.0981114871
H   H95       1.0  0.93450  0.71700  0.00740  1.0000 0.1213865599
H   H96       1.0  0.43450  0.78300  0.00740  1.0000 0.1213865599
H   H97       1.0  0.95840  0.74940  0.12150  1.0000 0.128596024
H   H98       1.0  0.45840  0.75060  0.12150  1.0000 0.128596024
H   H99       1.0  0.10910  0.62240  0.03440  1.0000 0.128596024
H   H100      1.0  0.60910  0.87760  0.03440  1.0000 0.128596024
H   H101      1.0  0.14230  0.60630  0.98740  1.0000 0.1390138734
H   H102      1.0  0.64230  0.89370  0.98740  1.0000 0.1390138734
H   H103      1.0  0.03790  0.55690  0.91470  1.0000 0.128596024
H   H104      1.0  0.53790  0.94310  0.91470  1.0000 0.128596024
H   H105      1.0  0.00240  0.60110  0.95060  1.0000 0.1390138734
H   H106      1.0  0.50240  0.89890  0.95060  1.0000 0.1390138734
H   H107      1.0  0.88320  0.82860  0.94850  1.0000 0.128596024
H   H108      1.0  0.38320  0.67140  0.94850  1.0000 0.128596024
H   H109      1.0  0.82680  0.87600  0.91150  1.0000 0.128596024
H   H110      1.0  0.32680  0.62400  0.91150  1.0000 0.128596024
H   H111      1.0  0.78260  0.88200  0.00230  1.0000 0.1213865599
H   H112      1.0  0.28260  0.61800  0.00230  1.0000 0.1213865599
H   H113      1.0  0.83440  0.82790  0.03800  1.0000 0.128596024
H   H114      1.0  0.33440  0.67210  0.03800  1.0000 0.128596024
H   H115      1.0  0.61420  0.99880  0.46480  1.0000 0.128596024
H   H116      1.0  0.11420  0.50120  0.46480  1.0000 0.128596024
H   H117      1.0  0.57420  0.96920  0.49890  1.0000 0.128596024
H   H118      1.0  0.07420  0.53080  0.49890  1.0000 0.128596024
H   H119      1.0  0.58980  0.83120  0.46920  1.0000 0.1390138734
H   H120      1.0  0.08980  0.66880  0.46920  1.0000 0.1390138734
H   H121      1.0  0.63310  0.86070  0.43700  1.0000 0.128596024
H   H122      1.0  0.13310  0.63930  0.43700  1.0000 0.128596024
H   H123      1.0  0.54940  0.87150  0.58100  1.0000 0.1054812363
H   H124      1.0  0.04940  0.62850  0.58100  1.0000 0.0981114871
H   H125      1.0  0.45220  0.80710  0.60440  1.0000 0.1390138734
H   H126      1.0  0.95220  0.69290  0.60440  1.0000 0.1390138734
H   H127      1.0  0.46720  0.78690  0.49900  1.0000 0.1213865599
H   H128      1.0  0.96720  0.71310  0.49900  1.0000 0.1213865599
H   H129      1.0  0.63020  0.85180  0.70090  1.0000 0.128596024
H   H130      1.0  0.13020  0.64820  0.70090  1.0000 0.128596024
H   H131      1.0  0.66667  0.88310  0.76240  1.0000 0.128596024
H   H132      1.0  0.16660  0.61690  0.76240  1.0000 0.128596024
H   H133      1.0  0.56680  0.96020  0.76260  1.0000 0.128596024
H   H134      1.0  0.06680  0.53980  0.76260  1.0000 0.128596024
H   H135      1.0  0.52870  0.92470  0.70090  1.0000 0.1390138734
H   H136      1.0  0.02870  0.57530  0.70090  1.0000 0.1390138734
H   H137      1.0  0.42590  0.65280  0.47330  1.0000 0.128596024
H   H138      1.0  0.92590  0.84720  0.47330  1.0000 0.128596024
H   H139      1.0  0.37780  0.58890  0.44890  1.0000 0.128596024
H   H140      1.0  0.87780  0.91110  0.44890  1.0000 0.128596024
H   H141      1.0  0.28800  0.67160  0.46890  1.0000 0.128596024
H   H142      1.0  0.78800  0.82840  0.46890  1.0000 0.128596024
H   H143      1.0  0.34110  0.72440  0.50620  1.0000 0.128596024
H   H144      1.0  0.84110  0.77560  0.50620  1.0000 0.128596024
H   H145      1.0  0.65520  0.64400  0.37630  1.0000 0.2776733262
H   H146      1.0  0.15520  0.85600  0.37630  1.0000 0.2776733262
H   H147      1.0  0.48290  0.71850  0.22130  1.0000 0.2920626542
H   H148      1.0  0.98290  0.78150  0.22130  1.0000 0.2920626542
H   H149      1.0  0.63910  0.59930  0.26560  1.0000 0.2776733262
H   H150      1.0  0.13910  0.90070  0.26560  1.0000 0.2776733262
H   H151      1.0  0.11930  0.86970  0.77810  1.0000 0.2776733262
H   H152      1.0  0.61930  0.63030  0.77810  1.0000 0.2776733262
H   H153      1.0  0.97820  0.74000  0.73340  1.0000 0.2717698108
H   H154      1.0  0.47820  0.76000  0.73340  1.0000 0.2717698108
H   H155      1.0  0.09600  0.89430  0.87950  1.0000 0.2776733262
H   H156      1.0  0.59600  0.60570  0.87950  1.0000 0.2776733262
H   H157      1.0  0.47020  0.12450  0.85570  1.0000 0.2776733262
H   H158      1.0  0.97020  0.37550  0.85570  1.0000 0.2776733262
H   H159      1.0  0.45120  0.15480  0.95920  1.0000 0.2717698108
H   H160      1.0  0.95120  0.34520  0.95920  1.0000 0.2717698108
H   H161      1.0  0.58370  0.29110  0.99380  1.0000 0.2776733262
H   H162      1.0  0.08370  0.20890  0.99380  1.0000 0.2776733262
H   H163      1.0  0.95200  0.40410  0.47530  1.0000 0.2717698108
H   H164      1.0  0.45200  0.09590  0.47530  1.0000 0.2717698108
H   H165      1.0  0.92680  0.35510  0.35450  1.0000 0.2776733262
H   H166      1.0  0.42680  0.14490  0.35450  1.0000 0.2776733262
H   H167      1.0  0.05740  0.21750  0.48720  1.0000 0.2717698108
H   H168      1.0  0.55740  0.28250  0.48720  1.0000 0.2717698108
H   H169      1.0  0.64850  0.57810  0.50880  1.0000 0.128596024
H   H170      1.0  0.14850  0.92190  0.50880  1.0000 0.128596024
H   H171      1.0  0.61110  0.59920  0.44730  1.0000 0.1390138734
H   H172      1.0  0.11110  0.90080  0.44730  1.0000 0.1390138734
H   H173      1.0  0.71660  0.63330  0.42630  1.0000 0.128596024
H   H174      1.0  0.21660  0.86670  0.42630  1.0000 0.128596024
H   H175      1.0  0.75290  0.60790  0.48940  1.0000 0.128596024
H   H176      1.0  0.25290  0.89210  0.48940  1.0000 0.128596024
H   H177      1.0  0.53960  0.70220  0.33900  1.0000 0.1390138734
H   H178      1.0  0.03960  0.79780  0.33900  1.0000 0.1390138734
H   H179      1.0  0.55450  0.71390  0.23240  1.0000 0.128596024
H   H180      1.0  0.05450  0.78610  0.23240  1.0000 0.128596024
H   H181      1.0  0.63010  0.62680  0.31530  1.0000 0.0981114871
H   H182      1.0  0.13010  0.87320  0.31530  1.0000 0.0981114871
H   H183      1.0  0.48280  0.84360  0.24280  1.0000 0.1390138734
H   H184      1.0  0.98280  0.65640  0.24280  1.0000 0.1390138734
H   H185      1.0  0.43750  0.89960  0.20650  1.0000 0.1213865599
H   H186      1.0  0.93750  0.60040  0.20650  1.0000 0.1213865599
H   H187      1.0  0.36930  0.79340  0.13930  1.0000 0.128596024
H   H188      1.0  0.86930  0.70660  0.13930  1.0000 0.128596024
H   H189      1.0  0.41420  0.73360  0.17410  1.0000 0.1390138734
H   H190      1.0  0.91420  0.76640  0.17410  1.0000 0.1390138734
H   H191      1.0  0.68280  0.67240  0.21150  1.0000 0.128596024
H   H192      1.0  0.18280  0.82760  0.21150  1.0000 0.128596024
H   H193      1.0  0.72310  0.64090  0.17350  1.0000 0.128596024
H   H194      1.0  0.22310  0.85910  0.17350  1.0000 0.128596024
H   H195      1.0  0.70440  0.50730  0.19910  1.0000 0.128596024
H   H196      1.0  0.20440  0.99270  0.19910  1.0000 0.128596024
H   H197      1.0  0.66370  0.52960  0.23770  1.0000 0.128596024
H   H198      1.0  0.16370  0.97040  0.23770  1.0000 0.128596024
H   H199      1.0  0.12490  0.94410  0.65040  1.0000 0.128596024
H   H200      1.0  0.62490  0.55590  0.65040  1.0000 0.128596024
H   H201      1.0  0.08260  0.91340  0.68180  1.0000 0.1390138734
H   H202      1.0  0.58260  0.58660  0.68180  1.0000 0.1390138734
H   H203      1.0  0.18080  0.88660  0.77600  1.0000 0.128596024
H   H204      1.0  0.68080  0.61340  0.77600  1.0000 0.128596024
H   H205      1.0  0.22380  0.92640  0.74560  1.0000 0.128596024
H   H206      1.0  0.72380  0.57360  0.74560  1.0000 0.128596024
H   H207      1.0  0.00130  0.81120  0.73750  1.0000 0.1213865599
H   H208      1.0  0.50130  0.68880  0.73750  1.0000 0.1213865599
H   H209      1.0  0.01500  0.77850  0.85020  1.0000 0.1390138734
H   H210      1.0  0.51500  0.72150  0.85020  1.0000 0.1390138734
H   H211      1.0  0.09690  0.86760  0.82500  1.0000 0.0858747578
H   H212      1.0  0.59690  0.63240  0.82500  1.0000 0.0858747578
H   H213      1.0  0.89340  0.70350  0.76200  1.0000 0.1390138734
H   H214      1.0  0.39340  0.79650  0.76200  1.0000 0.1390138734
H   H215      1.0  0.84220  0.64710  0.72560  1.0000 0.128596024
H   H216      1.0  0.34220  0.85290  0.72560  1.0000 0.128596024
H   H217      1.0  0.90620  0.62930  0.65060  1.0000 0.128596024
H   H218      1.0  0.40620  0.87070  0.65060  1.0000 0.128596024
H   H219      1.0  0.95700  0.67850  0.68720  1.0000 0.1213865599
H   H220      1.0  0.45700  0.82150  0.68720  1.0000 0.1213865599
H   H221      1.0  0.12890  0.95260  0.91930  1.0000 0.128596024
H   H222      1.0  0.62890  0.54740  0.91930  1.0000 0.128596024
H   H223      1.0  0.17970  0.97920  0.97820  1.0000 0.128596024
H   H224      1.0  0.67970  0.52080  0.97820  1.0000 0.128596024
H   H225      1.0  0.19510  0.83950  0.01390  1.0000 0.128596024
H   H226      1.0  0.69510  0.66050  0.01390  1.0000 0.128596024
H   H227      1.0  0.14300  0.81450  0.95720  1.0000 0.1390138734
H   H228      1.0  0.64300  0.68550  0.95720  1.0000 0.1390138734
H   H229      1.0  0.37650  0.03040  0.77470  1.0000 0.1213865599
H   H230      1.0  0.87650  0.46960  0.77470  1.0000 0.1213865599
H   H231      1.0  0.42780  0.06610  0.82870  1.0000 0.128596024
H   H232      1.0  0.92780  0.43390  0.82870  1.0000 0.128596024
H   H233      1.0  0.43040  0.18990  0.76590  1.0000 0.128596024
H   H234      1.0  0.93040  0.31010  0.76590  1.0000 0.128596024
H   H235      1.0  0.38300  0.15210  0.71360  1.0000 0.128596024
H   H236      1.0  0.88300  0.34790  0.71360  1.0000 0.128596024
H   H237      1.0  0.47020  0.15160  0.91160  1.0000 0.0981114871
H   H238      1.0  0.97020  0.34840  0.91160  1.0000 0.0981114871
H   H239      1.0  0.56550  0.21700  0.99260  1.0000 0.1213865599
H   H240      1.0  0.06550  0.28300  0.99260  1.0000 0.1213865599
H   H241      1.0  0.54160  0.24940  0.87850  1.0000 0.128596024
H   H242      1.0  0.04160  0.25060  0.87850  1.0000 0.128596024
H   H243      1.0  0.39090  0.12240  0.96560  1.0000 0.128596024
H   H244      1.0  0.89090  0.37760  0.96560  1.0000 0.128596024
H   H245      1.0  0.35770  0.10630  0.01260  1.0000 0.1390138734
H   H246      1.0  0.85770  0.39370  0.01260  1.0000 0.1390138734
H   H247      1.0  0.46210  0.05690  0.08530  1.0000 0.128596024
H   H248      1.0  0.96210  0.44310  0.08530  1.0000 0.128596024
H   H249      1.0  0.49760  0.10110  0.04940  1.0000 0.1390138734
H   H250      1.0  0.99760  0.39890  0.04940  1.0000 0.1390138734
H   H251      1.0  0.61680  0.32860  0.05150  1.0000 0.128596024
H   H252      1.0  0.11680  0.17140  0.05150  1.0000 0.128596024
H   H253      1.0  0.67320  0.37600  0.08850  1.0000 0.1213865599
H   H254      1.0  0.17320  0.12400  0.08850  1.0000 0.1213865599
H   H255      1.0  0.71740  0.38200  0.99770  1.0000 0.1213865599
H   H256      1.0  0.21740  0.11800  0.99770  1.0000 0.1213865599
H   H257      1.0  0.66560  0.32790  0.96200  1.0000 0.1390138734
H   H258      1.0  0.16560  0.17210  0.96200  1.0000 0.1390138734
H   H259      1.0  0.88580  0.49880  0.53520  1.0000 0.128596024
H   H260      1.0  0.38580  0.00120  0.53520  1.0000 0.1390138734
H   H261      1.0  0.92580  0.46920  0.50110  1.0000 0.128596024
H   H262      1.0  0.42580  0.03080  0.50110  1.0000 0.128596024
H   H263      1.0  0.91020  0.33120  0.53080  1.0000 0.1390138734
H   H264      1.0  0.41020  0.16880  0.53080  1.0000 0.1390138734
H   H265      1.0  0.86690  0.36070  0.56300  1.0000 0.128596024
H   H266      1.0  0.36690  0.13930  0.56300  1.0000 0.128596024
H   H267      1.0  0.95060  0.37150  0.41900  1.0000 0.1054812363
H   H268      1.0  0.45060  0.12850  0.41900  1.0000 0.1054812363
H   H269      1.0  0.04780  0.30710  0.39560  1.0000 0.1390138734
H   H270      1.0  0.54780  0.19290  0.39560  1.0000 0.1390138734
H   H271      1.0  0.03280  0.28690  0.50100  1.0000 0.1213865599
H   H272      1.0  0.53280  0.21310  0.50100  1.0000 0.1213865599
H   H273      1.0  0.86980  0.35180  0.29910  1.0000 0.128596024
H   H274      1.0  0.36980  0.14820  0.29910  1.0000 0.128596024
H   H275      1.0  0.83340  0.38310  0.23760  1.0000 0.128596024
H   H276      1.0  0.33340  0.11690  0.23760  1.0000 0.128596024
H   H277      1.0  0.93320  0.46020  0.23740  1.0000 0.128596024
H   H278      1.0  0.43320  0.03980  0.23740  1.0000 0.128596024
H   H279      1.0  0.97130  0.42470  0.29910  1.0000 0.1390138734
H   H280      1.0  0.47130  0.07530  0.29910  1.0000 0.1390138734
H   H281      1.0  0.07410  0.15280  0.52670  1.0000 0.128596024
H   H282      1.0  0.57410  0.34720  0.52670  1.0000 0.128596024
H   H283      1.0  0.12220  0.08890  0.55110  1.0000 0.128596024
H   H284      1.0  0.62220  0.41110  0.55110  1.0000 0.128596024
H   H285      1.0  0.21200  0.17160  0.53110  1.0000 0.128596024
H   H286      1.0  0.71200  0.32840  0.53110  1.0000 0.128596024
H   H287      1.0  0.15890  0.22440  0.49380  1.0000 0.128596024
H   H288      1.0  0.65890  0.27560  0.49380  1.0000 0.128596024
C   C1        1.0  0.77300  0.06740  0.45710  1.0000 0.5894142952
C   C2        1.0  0.27300  0.43260  0.45710  1.0000 0.5894142952
C   C3        1.0  0.79590  0.08750  0.49557  1.0000 -0.060558885
C   C4        1.0  0.29590  0.41250  0.49557  1.0000 -0.060558885
C   C5        1.0  0.83740  0.08810  0.50870  1.0000 -0.0791028067
C   C6        1.0  0.33740  0.41190  0.50870  1.0000 -0.0791028067
C   C7        1.0  0.85970  0.10150  0.54450  1.0000 -0.1584649206
C   C8        1.0  0.35970  0.39850  0.54450  1.0000 -0.1584649206
C   C9        1.0  0.83990  0.11920  0.57002  1.0000 0.2187921673
C   C10       1.0  0.33990  0.38080  0.57002  1.0000 0.2187921673
C   C11       1.0  0.79780  0.12130  0.55707  1.0000 -0.2005295797
C   C12       1.0  0.29780  0.37870  0.55707  1.0000 -0.2005295797
C   C13       1.0  0.77630  0.10570  0.51960  1.0000 -0.0791028067
C   C14       1.0  0.27630  0.39430  0.51960  1.0000 -0.0791028067
C   C15       1.0  0.90140  0.14440  0.62586  1.0000 0.4598327587
C   C16       1.0  0.40140  0.35560  0.62586  1.0000 0.4598327587
C   C17       1.0  0.91340  0.16180  0.66744  1.0000 -0.0108509424
C   C18       1.0  0.41340  0.33820  0.66744  1.0000 -0.0108509424
C   C19       1.0  0.94650  0.19320  0.67883  1.0000 -0.1024071974
C   C20       1.0  0.44650  0.30680  0.67883  1.0000 -0.1024071974
C   C21       1.0  0.95990  0.21220  0.71779  1.0000 -0.0511039243
C   C22       1.0  0.45990  0.28780  0.71779  1.0000 -0.0511039243
C   C23       1.0  0.93790  0.20040  0.74200  1.0000 -0.1267545195
C   C24       1.0  0.43790  0.29960  0.74200  1.0000 -0.1267545195
C   C25       1.0  0.90471  0.16890  0.72927  1.0000 -0.0108509424
C   C26       1.0  0.40471  0.33110  0.72927  1.0000 -0.0108509424
C   C27       1.0  0.89254  0.14910  0.69262  1.0000 -0.1714314687
C   C28       1.0  0.39254  0.35090  0.69262  1.0000 -0.1714314687
C   C29       1.0  0.99310  0.24790  0.72880  1.0000 0.4499842993
C   C30       1.0  0.49310  0.25210  0.72880  1.0000 0.4499842993
C   C31       1.0  0.04720  0.28070  0.78625  1.0000 0.249299205
C   C32       1.0  0.54720  0.21930  0.78625  1.0000 0.249299205
C   C33       1.0  0.04050  0.33280  0.77803  1.0000 -0.1714314687
C   C34       1.0  0.54050  0.16720  0.77803  1.0000 -0.1714314687
C   C35       1.0  0.06683  0.36540  0.79950  1.0000 -0.0791028067
C   C36       1.0  0.56683  0.13460  0.79950  1.0000 -0.0791028067
C   C37       1.0  0.10090  0.35100  0.83089  1.0000 -0.060558885
C   C38       1.0  0.60090  0.14900  0.83089  1.0000 -0.060558885
C   C39       1.0  0.10730  0.30300  0.83950  1.0000 -0.0702965794
C   C40       1.0  0.60730  0.19700  0.83950  1.0000 -0.0702965794
C   C41       1.0  0.08100  0.26740  0.81856  1.0000 -0.2005295797
C   C42       1.0  0.58100  0.23260  0.81856  1.0000 -0.2098453858
C   C43       1.0  0.12940  0.38950  0.85340  1.0000 0.5894142952
C   C44       1.0  0.62940  0.11050  0.85340  1.0000 0.5894142952
C   C45       1.0  0.88050  0.15910  0.75686  1.0000 0.4598327587
C   C46       1.0  0.38050  0.34090  0.75686  1.0000 0.4598327587
C   C47       1.0  0.83360  0.10170  0.77489  1.0000 0.2078009998
C   C48       1.0  0.33360  0.39830  0.77489  1.0000 0.2187921673
C   C49       1.0  0.81380  0.13790  0.79140  1.0000 -0.180288699
C   C50       1.0  0.31380  0.36210  0.79140  1.0000 -0.180288699
C   C51       1.0  0.78830  0.11810  0.81283  1.0000 -0.0791028067
C   C52       1.0  0.28830  0.38190  0.81283  1.0000 -0.0791028067
C   C53       1.0  0.77990  0.07220  0.81483  1.0000 -0.0702965794
C   C54       1.0  0.27990  0.42780  0.81483  1.0000 -0.0702965794
C   C55       1.0  0.79950  0.04160  0.79780  1.0000 -0.0702965794
C   C56       1.0  0.29950  0.45840  0.79780  1.0000 -0.0702965794
C   C57       1.0  0.82550  0.05370  0.77560  1.0000 -0.2190227509
C   C58       1.0  0.32550  0.44630  0.77560  1.0000 -0.2190227509
C   C59       1.0  0.75536  0.05360  0.83769  1.0000 0.5894142952
C   C60       1.0  0.25536  0.44640  0.83769  1.0000 0.5894142952
C   C61       1.0  0.29528  0.45940  0.32570  1.0000 0.5894142952
C   C62       1.0  0.79528  0.04060  0.32570  1.0000 0.5894142952
C   C63       1.0  0.32249  0.43990  0.30520  1.0000 -0.0791028067
C   C64       1.0  0.82249  0.06010  0.30520  1.0000 -0.0791028067
C   C65       1.0  0.36360  0.43420  0.32310  1.0000 -0.0702965794
C   C66       1.0  0.86360  0.06580  0.32310  1.0000 -0.0702965794
C   C67       1.0  0.38860  0.41510  0.30490  1.0000 -0.1714314687
C   C68       1.0  0.88860  0.08490  0.30490  1.0000 -0.1714314687
C   C69       1.0  0.37300  0.39830  0.26760  1.0000 0.2187921673
C   C70       1.0  0.87300  0.10170  0.26760  1.0000 0.2266257269
C   C71       1.0  0.33080  0.40050  0.24940  1.0000 -0.2190227509
C   C72       1.0  0.83080  0.09950  0.24940  1.0000 -0.2190227509
C   C73       1.0  0.30490  0.42300  0.26760  1.0000 -0.0702965794
C   C74       1.0  0.80490  0.07700  0.26760  1.0000 -0.0702965794
C   C75       1.0  0.43480  0.36730  0.25420  1.0000 0.4598327587
C   C76       1.0  0.93480  0.13270  0.25420  1.0000 0.4598327587
C   C77       1.0  0.45110  0.34540  0.22400  1.0000 -0.0037269307
C   C78       1.0  0.95110  0.15460  0.22400  1.0000 -0.0037269307
C   C79       1.0  0.48410  0.31510  0.23539  1.0000 -0.1507014641
C   C80       1.0  0.98410  0.18490  0.23539  1.0000 -0.1507014641
C   C81       1.0  0.49720  0.28950  0.20841  1.0000 -0.0323995494
C   C82       1.0  0.99720  0.21050  0.20841  1.0000 -0.0323995494
C   C83       1.0  0.47600  0.29580  0.16849  1.0000 -0.0899631979
C   C84       1.0  0.97600  0.20420  0.16849  1.0000 -0.0899631979
C   C85       1.0  0.44310  0.32590  0.15610  1.0000 -0.0387399666
C   C86       1.0  0.94310  0.17410  0.15610  1.0000 -0.0387399666
C   C87       1.0  0.42810  0.34940  0.18340  1.0000 -0.1919276052
C   C88       1.0  0.92810  0.15060  0.18340  1.0000 -0.1919276052
C   C89       1.0  0.53480  0.25820  0.21920  1.0000 0.4499842993
C   C90       1.0  0.03480  0.24180  0.21920  1.0000 0.4499842993
C   C91       1.0  0.57090  0.19940  0.27324  1.0000 0.2430016613
C   C92       1.0  0.07090  0.30060  0.27324  1.0000 0.2430016613
C   C93       1.0  0.60410  0.18820  0.26080  1.0000 -0.180288699
C   C94       1.0  0.10410  0.31180  0.26080  1.0000 -0.180288699
C   C95       1.0  0.63430  0.15380  0.28207  1.0000 -0.0899631979
C   C96       1.0  0.13430  0.34620  0.28207  1.0000 -0.0899631979
C   C97       1.0  0.62910  0.13050  0.31385  1.0000 -0.0387399666
C   C98       1.0  0.12910  0.36950  0.31385  1.0000 -0.0387399666
C   C99       1.0  0.59590  0.14310  0.32590  1.0000 -0.060558885
C   C100      1.0  0.09590  0.35690  0.32590  1.0000 -0.060558885
C   C101      1.0  0.56700  0.17380  0.30542  1.0000 -0.1919276052
C   C102      1.0  0.06700  0.32620  0.30542  1.0000 -0.1919276052
C   C103      1.0  0.66220  0.09470  0.33610  1.0000 0.5894142952
C   C104      1.0  0.16220  0.40530  0.33610  1.0000 0.5894142952
C   C105      1.0  0.41870  0.33160  0.11630  1.0000 0.431127228
C   C106      1.0  0.91870  0.16840  0.11630  1.0000 0.431127228
C   C107      1.0  0.36830  0.38100  0.06650  1.0000 0.2078009998
C   C108      1.0  0.86830  0.11900  0.06650  1.0000 0.2078009998
C   C109      1.0  0.35760  0.42910  0.06120  1.0000 -0.2310744458
C   C110      1.0  0.85760  0.07090  0.06120  1.0000 -0.2310744458
C   C111      1.0  0.32630  0.44500  0.02670  1.0000 -0.0791028067
C   C112      1.0  0.82630  0.05500  0.02670  1.0000 -0.0791028067
C   C113      1.0  0.30470  0.40940  0.00050  1.0000 -0.060558885
C   C114      1.0  0.80470  0.09060  0.00050  1.0000 -0.060558885
C   C115      1.0  0.31750  0.36330  0.00566  1.0000 -0.0702965794
C   C116      1.0  0.81750  0.13670  0.00566  1.0000 -0.0702965794
C   C117      1.0  0.34920  0.34840  0.03940  1.0000 -0.180288699
C   C118      1.0  0.84920  0.15160  0.03940  1.0000 -0.180288699
C   C119      1.0  0.27230  0.42770  0.96550  1.0000 0.5894142952
C   C120      1.0  0.77230  0.07230  0.96550  1.0000 0.5894142952
C   C121      1.0  0.15930  0.57090  0.29090  1.0000 0.5424866966
C   C122      1.0  0.65930  0.92910  0.29090  1.0000 0.5424866966
C   C123      1.0  0.12570  0.59230  0.26070  1.0000 -0.0511039243
C   C124      1.0  0.62570  0.90770  0.26070  1.0000 -0.0511039243
C   C125      1.0  0.11260  0.56240  0.22670  1.0000 -0.0791028067
C   C126      1.0  0.61260  0.93760  0.22670  1.0000 -0.0791028067
C   C127      1.0  0.08190  0.58410  0.19510  1.0000 -0.2521054455
C   C128      1.0  0.58190  0.91590  0.19510  1.0000 -0.2521054455
C   C129      1.0  0.06510  0.62980  0.19650  1.0000 0.2430016613
C   C130      1.0  0.56510  0.87020  0.19650  1.0000 0.2430016613
C   C131      1.0  0.07950  0.65760  0.23182  1.0000 -0.1919276052
C   C132      1.0  0.57950  0.84240  0.23182  1.0000 -0.1919276052
C   C133      1.0  0.10850  0.63510  0.26206  1.0000 -0.0511039243
C   C134      1.0  0.60850  0.86490  0.26206  1.0000 -0.0511039243
C   C135      1.0  0.02190  0.69080  0.15322  1.0000 0.4598327587
C   C136      1.0  0.52190  0.80920  0.15322  1.0000 0.4598327587
C   C137      1.0  0.99697  0.69730  0.11112  1.0000 -0.0174124969
C   C138      1.0  0.49697  0.80270  0.11112  1.0000 -0.0174124969
C   C139      1.0  0.00671  0.67320  0.08207  1.0000 -0.180288699
C   C140      1.0  0.50671  0.82680  0.08207  1.0000 -0.180288699
C   C141      1.0  0.98230  0.68030  0.04228  1.0000 -0.0108509424
C   C142      1.0  0.48230  0.81970  0.04228  1.0000 -0.0108509424
C   C143      1.0  0.95067  0.71240  0.03396  1.0000 -0.1145414913
C   C144      1.0  0.45067  0.78760  0.03396  1.0000 -0.1184315297
C   C145      1.0  0.94079  0.73870  0.06196  1.0000 -0.0511039243
C   C146      1.0  0.44079  0.76130  0.06196  1.0000 -0.0511039243
C   C147      1.0  0.96448  0.73130  0.10151  1.0000 -0.1184315297
C   C148      1.0  0.46448  0.76870  0.10151  1.0000 -0.1184315297
C   C149      1.0  0.99120  0.65530  0.00990  1.0000 0.431127228
C   C150      1.0  0.49120  0.84470  0.00990  1.0000 0.4360203019
C   C151      1.0  0.05150  0.62060  0.99500  1.0000 0.2266257269
C   C152      1.0  0.55150  0.87940  0.99500  1.0000 0.2266257269
C   C153      1.0  0.09380  0.61500  0.00800  1.0000 -0.2190227509
C   C154      1.0  0.59380  0.88500  0.00800  1.0000 -0.2190227509
C   C155      1.0  0.11410  0.59850  0.98240  1.0000 -0.0899631979
C   C156      1.0  0.61410  0.90150  0.98240  1.0000 -0.0899631979
C   C157      1.0  0.09400  0.57180  0.95100  1.0000 -0.0387399666
C   C158      1.0  0.59400  0.92820  0.95100  1.0000 -0.0387399666
C   C159      1.0  0.05290  0.57310  0.93840  1.0000 -0.0899631979
C   C160      1.0  0.55290  0.92690  0.93840  1.0000 -0.0899631979
C   C161      1.0  0.03160  0.59910  0.96054  1.0000 -0.1919276052
C   C162      1.0  0.53160  0.90090  0.96054  1.0000 -0.1919276052
C   C163      1.0  0.11960  0.54440  0.92960  1.0000 0.584583669
C   C164      1.0  0.61960  0.95560  0.92960  1.0000 0.5894142952
C   C165      1.0  0.90610  0.77170  0.05306  1.0000 0.431127228
C   C166      1.0  0.40610  0.72830  0.05306  1.0000 0.4360203019
C   C167      1.0  0.86430  0.82380  0.99700  1.0000 0.249299205
C   C168      1.0  0.36430  0.67620  0.99700  1.0000 0.249299205
C   C169      1.0  0.86230  0.83820  0.95910  1.0000 -0.2190227509
C   C170      1.0  0.36230  0.66180  0.95910  1.0000 -0.2190227509
C   C171      1.0  0.82890  0.86690  0.93750  1.0000 -0.0791028067
C   C172      1.0  0.32890  0.63310  0.93750  1.0000 -0.0791028067
C   C173      1.0  0.79980  0.88180  0.95210  1.0000 -0.060558885
C   C174      1.0  0.29980  0.61820  0.95210  1.0000 -0.060558885
C   C175      1.0  0.80220  0.86940  0.99130  1.0000 -0.0791028067
C   C176      1.0  0.30220  0.63060  0.99130  1.0000 -0.0791028067
C   C177      1.0  0.83360  0.83880  0.01270  1.0000 -0.2005295797
C   C178      1.0  0.33360  0.66120  0.01270  1.0000 -0.2005295797
C   C179      1.0  0.76490  0.91160  0.92760  1.0000 0.584583669
C   C180      1.0  0.26490  0.58840  0.92760  1.0000 0.584583669
C   C181      1.0  0.65597  0.95220  0.42495  1.0000 0.5997907809
C   C182      1.0  0.15597  0.54780  0.42495  1.0000 0.5997907809
C   C183      1.0  0.63003  0.93180  0.44751  1.0000 -0.0702965794
C   C184      1.0  0.13003  0.56820  0.44751  1.0000 -0.0702965794
C   C185      1.0  0.61030  0.96420  0.46597  1.0000 -0.0791028067
C   C186      1.0  0.11030  0.53580  0.46597  1.0000 -0.0791028067
C   C187      1.0  0.58593  0.94650  0.48535  1.0000 -0.180288699
C   C188      1.0  0.08593  0.55350  0.48535  1.0000 -0.180288699
C   C189      1.0  0.57740  0.89900  0.48653  1.0000 0.2078009998
C   C190      1.0  0.07740  0.60100  0.48653  1.0000 0.2078009998
C   C191      1.0  0.59510  0.86560  0.46860  1.0000 -0.1714314687
C   C192      1.0  0.09510  0.63440  0.46860  1.0000 -0.1714314687
C   C193      1.0  0.62080  0.88380  0.44960  1.0000 -0.0791028067
C   C194      1.0  0.12080  0.61620  0.44960  1.0000 -0.0791028067
C   C195      1.0  0.53281  0.83990  0.50522  1.0000 0.4499842993
C   C196      1.0  0.03281  0.66010  0.50522  1.0000 0.4499842993
C   C197      1.0  0.51212  0.83210  0.53549  1.0000 0.0004713476
C   C198      1.0  0.01212  0.66790  0.53549  1.0000 0.0004713476
C   C199      1.0  0.52536  0.85150  0.57257  1.0000 -0.2005295797
C   C200      1.0  0.02536  0.64850  0.57257  1.0000 -0.2005295797
C   C201      1.0  0.50210  0.84080  0.59849  1.0000 -0.0108509424
C   C202      1.0  0.00210  0.65920  0.59849  1.0000 -0.0108509424
C   C203      1.0  0.46778  0.81250  0.58727  1.0000 -0.1184315297
C   C204      1.0  0.96778  0.68750  0.58727  1.0000 -0.1184315297
C   C205      1.0  0.45599  0.79190  0.55110  1.0000 -0.0108509424
C   C206      1.0  0.95599  0.70810  0.55110  1.0000 -0.0108509424
C   C207      1.0  0.47670  0.80110  0.52440  1.0000 -0.1584649206
C   C208      1.0  0.97670  0.69890  0.52440  1.0000 -0.1584649206
C   C209      1.0  0.51600  0.86440  0.63829  1.0000 0.4499842993
C   C210      1.0  0.01600  0.63560  0.63829  1.0000 0.4499842993
C   C211      1.0  0.57600  0.88640  0.69491  1.0000 0.2187921673
C   C212      1.0  0.07600  0.61360  0.69491  1.0000 0.2187921673
C   C213      1.0  0.61690  0.87360  0.71360  1.0000 -0.2098453858
C   C214      1.0  0.11690  0.62640  0.71360  1.0000 -0.2098453858
C   C215      1.0  0.63850  0.89170  0.75012  1.0000 -0.0791028067
C   C216      1.0  0.13850  0.60830  0.75012  1.0000 -0.0791028067
C   C217      1.0  0.61900  0.92180  0.76807  1.0000 -0.0323995494
C   C218      1.0  0.11900  0.57820  0.76807  1.0000 -0.0323995494
C   C219      1.0  0.57931  0.93680  0.75031  1.0000 -0.0899631979
C   C220      1.0  0.07931  0.56320  0.75031  1.0000 -0.0899631979
C   C221      1.0  0.55693  0.91670  0.71292  1.0000 -0.2005295797
C   C222      1.0  0.05693  0.58330  0.71292  1.0000 -0.2005295797
C   C223      1.0  0.64180  0.94170  0.80890  1.0000 0.5894142952
C   C224      1.0  0.14180  0.55830  0.80890  1.0000 0.5894142952
C   C225      1.0  0.41650  0.76250  0.53930  1.0000 0.4499842993
C   C226      1.0  0.91650  0.73750  0.53930  1.0000 0.4499842993
C   C227      1.0  0.38610  0.69280  0.49410  1.0000 0.2187921673
C   C228      1.0  0.88610  0.80720  0.49410  1.0000 0.2187921673
C   C229      1.0  0.39850  0.65470  0.47420  1.0000 -0.2190227509
C   C230      1.0  0.89850  0.84530  0.47420  1.0000 -0.2098453858
C   C231      1.0  0.36960  0.62010  0.45600  1.0000 -0.0702965794
C   C232      1.0  0.86960  0.87990  0.45600  1.0000 -0.0791028067
C   C233      1.0  0.32590  0.63160  0.44770  1.0000 -0.0791028067
C   C234      1.0  0.82590  0.86840  0.44770  1.0000 -0.0791028067
C   C235      1.0  0.31550  0.66740  0.46910  1.0000 -0.0702965794
C   C236      1.0  0.81550  0.83260  0.46910  1.0000 -0.0702965794
C   C237      1.0  0.34790  0.69820  0.49180  1.0000 -0.180288699
C   C238      1.0  0.84790  0.80180  0.49180  1.0000 -0.1714314687
C   C239      1.0  0.29680  0.59550  0.42340  1.0000 0.5894142952
C   C240      1.0  0.79680  0.90450  0.42340  1.0000 0.5894142952
C   C241      1.0  0.72700  0.56740  0.54290  1.0000 0.5894142952
C   C242      1.0  0.22700  0.93260  0.54290  1.0000 0.5894142952
C   C243      1.0  0.70410  0.58750  0.50443  1.0000 -0.060558885
C   C244      1.0  0.20410  0.91250  0.50443  1.0000 -0.060558885
C   C245      1.0  0.66260  0.58810  0.49130  1.0000 -0.0791028067
C   C246      1.0  0.16260  0.91190  0.49130  1.0000 -0.0791028067
C   C247      1.0  0.64030  0.60150  0.45550  1.0000 -0.1584649206
C   C248      1.0  0.14030  0.89850  0.45550  1.0000 -0.1584649206
C   C249      1.0  0.66010  0.61920  0.42998  1.0000 0.2187921673
C   C250      1.0  0.16010  0.88080  0.42998  1.0000 0.2187921673
C   C251      1.0  0.70220  0.62130  0.44293  1.0000 -0.2005295797
C   C252      1.0  0.20220  0.87870  0.44293  1.0000 -0.2005295797
C   C253      1.0  0.72370  0.60570  0.48040  1.0000 -0.0791028067
C   C254      1.0  0.22370  0.89430  0.48040  1.0000 -0.0791028067
C   C255      1.0  0.59860  0.64440  0.37414  1.0000 0.4598327587
C   C256      1.0  0.09860  0.85560  0.37414  1.0000 0.4598327587
C   C257      1.0  0.58660  0.66180  0.33256  1.0000 -0.0108509424
C   C258      1.0  0.08660  0.83820  0.33256  1.0000 -0.0108509424
C   C259      1.0  0.55350  0.69320  0.32117  1.0000 -0.1024071974
C   C260      1.0  0.05350  0.80680  0.32117  1.0000 -0.1024071974
C   C261      1.0  0.54010  0.71220  0.28221  1.0000 -0.0511039243
C   C262      1.0  0.04010  0.78780  0.28221  1.0000 -0.0511039243
C   C263      1.0  0.56210  0.70040  0.25800  1.0000 -0.1267545195
C   C264      1.0  0.06210  0.79960  0.25800  1.0000 -0.1267545195
C   C265      1.0  0.59529  0.66890  0.27073  1.0000 -0.0108509424
C   C266      1.0  0.09529  0.83110  0.27073  1.0000 -0.0108509424
C   C267      1.0  0.60746  0.64910  0.30738  1.0000 -0.180288699
C   C268      1.0  0.10746  0.85090  0.30738  1.0000 -0.1714314687
C   C269      1.0  0.50690  0.74790  0.27120  1.0000 0.4499842993
C   C270      1.0  0.00690  0.75210  0.27120  1.0000 0.4499842993
C   C271      1.0  0.45280  0.78070  0.21375  1.0000 0.249299205
C   C272      1.0  0.95280  0.71930  0.21375  1.0000 0.249299205
C   C273      1.0  0.45950  0.83280  0.22197  1.0000 -0.1714314687
C   C274      1.0  0.95950  0.66720  0.22197  1.0000 -0.1714314687
C   C275      1.0  0.43317  0.86540  0.20050  1.0000 -0.0791028067
C   C276      1.0  0.93317  0.63460  0.20050  1.0000 -0.0791028067
C   C277      1.0  0.39910  0.85100  0.16911  1.0000 -0.060558885
C   C278      1.0  0.89910  0.64900  0.16911  1.0000 -0.060558885
C   C279      1.0  0.39270  0.80300  0.16050  1.0000 -0.0702965794
C   C280      1.0  0.89270  0.69700  0.16050  1.0000 -0.0702965794
C   C281      1.0  0.41900  0.76740  0.18144  1.0000 -0.2098453858
C   C282      1.0  0.91900  0.73260  0.18144  1.0000 -0.2098453858
C   C283      1.0  0.37060  0.88950  0.14660  1.0000 0.5894142952
C   C284      1.0  0.87060  0.61050  0.14660  1.0000 0.5894142952
C   C285      1.0  0.61950  0.65910  0.24314  1.0000 0.4598327587
C   C286      1.0  0.11950  0.84090  0.24314  1.0000 0.4598327587
C   C287      1.0  0.66640  0.60170  0.22511  1.0000 0.2078009998
C   C288      1.0  0.16640  0.89830  0.22511  1.0000 0.2078009998
C   C289      1.0  0.68620  0.63790  0.20860  1.0000 -0.1919276052
C   C290      1.0  0.18620  0.86210  0.20860  1.0000 -0.1919276052
C   C291      1.0  0.71170  0.61810  0.18717  1.0000 -0.0791028067
C   C292      1.0  0.21170  0.88190  0.18717  1.0000 -0.0791028067
C   C293      1.0  0.72010  0.57220  0.18517  1.0000 -0.0702965794
C   C294      1.0  0.22010  0.92780  0.18517  1.0000 -0.0702965794
C   C295      1.0  0.70050  0.54160  0.20220  1.0000 -0.0702965794
C   C296      1.0  0.20050  0.95840  0.20220  1.0000 -0.0702965794
C   C297      1.0  0.67450  0.55370  0.22440  1.0000 -0.2098453858
C   C298      1.0  0.17450  0.94630  0.22440  1.0000 -0.2098453858
C   C299      1.0  0.74464  0.55360  0.16231  1.0000 0.5894142952
C   C300      1.0  0.24464  0.94640  0.16231  1.0000 0.5894142952
C   C301      1.0  0.20472  0.95940  0.67430  1.0000 0.5894142952
C   C302      1.0  0.70472  0.54060  0.67430  1.0000 0.5894142952
C   C303      1.0  0.17751  0.93990  0.69480  1.0000 -0.0791028067
C   C304      1.0  0.67751  0.56010  0.69480  1.0000 -0.0791028067
C   C305      1.0  0.13640  0.93420  0.67690  1.0000 -0.0702965794
C   C306      1.0  0.63640  0.56580  0.67690  1.0000 -0.0702965794
C   C307      1.0  0.11140  0.91510  0.69510  1.0000 -0.1714314687
C   C308      1.0  0.61140  0.58490  0.69510  1.0000 -0.1714314687
C   C309      1.0  0.12700  0.89830  0.73240  1.0000 0.2266257269
C   C310      1.0  0.62700  0.60170  0.73240  1.0000 0.2266257269
C   C311      1.0  0.16920  0.90050  0.75060  1.0000 -0.2190227509
C   C312      1.0  0.66920  0.59950  0.75060  1.0000 -0.2190227509
C   C313      1.0  0.19510  0.92300  0.73240  1.0000 -0.0702965794
C   C314      1.0  0.69510  0.57700  0.73240  1.0000 -0.0702965794
C   C315      1.0  0.06520  0.86730  0.74580  1.0000 0.4598327587
C   C316      1.0  0.56520  0.63270  0.74580  1.0000 0.4598327587
C   C317      1.0  0.04890  0.84540  0.77600  1.0000 -0.0037269307
C   C318      1.0  0.54890  0.65460  0.77600  1.0000 -0.0037269307
C   C319      1.0  0.01590  0.81510  0.76461  1.0000 -0.1507014641
C   C320      1.0  0.51590  0.68490  0.76461  1.0000 -0.1507014641
C   C321      1.0  0.00280  0.78950  0.79159  1.0000 -0.0323995494
C   C322      1.0  0.50280  0.71050  0.79159  1.0000 -0.0323995494
C   C323      1.0  0.02400  0.79580  0.83151  1.0000 -0.0899631979
C   C324      1.0  0.52400  0.70420  0.83151  1.0000 -0.0899631979
C   C325      1.0  0.05690  0.82590  0.84390  1.0000 -0.0387399666
C   C326      1.0  0.55690  0.67410  0.84390  1.0000 -0.0387399666
C   C327      1.0  0.07190  0.84940  0.81660  1.0000 -0.1919276052
C   C328      1.0  0.57190  0.65060  0.81660  1.0000 -0.1919276052
C   C329      1.0  0.96520  0.75820  0.78080  1.0000 0.4499842993
C   C330      1.0  0.46520  0.74180  0.78080  1.0000 0.4499842993
C   C331      1.0  0.92910  0.69940  0.72676  1.0000 0.2430016613
C   C332      1.0  0.42910  0.80060  0.72676  1.0000 0.2430016613
C   C333      1.0  0.89590  0.68820  0.73920  1.0000 -0.180288699
C   C334      1.0  0.39590  0.81180  0.73920  1.0000 -0.180288699
C   C335      1.0  0.86570  0.65380  0.71793  1.0000 -0.0899631979
C   C336      1.0  0.36570  0.84620  0.71793  1.0000 -0.0899631979
C   C337      1.0  0.87090  0.63050  0.68615  1.0000 -0.0387399666
C   C338      1.0  0.37090  0.86950  0.68615  1.0000 -0.0387399666
C   C339      1.0  0.90410  0.64310  0.67410  1.0000 -0.060558885
C   C340      1.0  0.40410  0.85690  0.67410  1.0000 -0.060558885
C   C341      1.0  0.93300  0.67380  0.69458  1.0000 -0.1919276052
C   C342      1.0  0.43300  0.82620  0.69458  1.0000 -0.1919276052
C   C343      1.0  0.83780  0.59470  0.66390  1.0000 0.5894142952
C   C344      1.0  0.33780  0.90530  0.66390  1.0000 0.5894142952
C   C345      1.0  0.08130  0.83160  0.88370  1.0000 0.431127228
C   C346      1.0  0.58130  0.66840  0.88370  1.0000 0.431127228
C   C347      1.0  0.13170  0.88100  0.93350  1.0000 0.2078009998
C   C348      1.0  0.63170  0.61900  0.93350  1.0000 0.2078009998
C   C349      1.0  0.14240  0.92910  0.93880  1.0000 -0.2310744458
C   C350      1.0  0.64240  0.57090  0.93880  1.0000 -0.2310744458
C   C351      1.0  0.17370  0.94500  0.97330  1.0000 -0.0702965794
C   C352      1.0  0.67370  0.55500  0.97330  1.0000 -0.0702965794
C   C353      1.0  0.19530  0.90940  0.99950  1.0000 -0.060558885
C   C354      1.0  0.69530  0.59060  0.99950  1.0000 -0.060558885
C   C355      1.0  0.18250  0.86330  0.99434  1.0000 -0.0702965794
C   C356      1.0  0.68250  0.63670  0.99434  1.0000 -0.0702965794
C   C357      1.0  0.15080  0.84840  0.96060  1.0000 -0.180288699
C   C358      1.0  0.65080  0.65160  0.96060  1.0000 -0.180288699
C   C359      1.0  0.22770  0.92770  0.03450  1.0000 0.5894142952
C   C360      1.0  0.72770  0.57230  0.03450  1.0000 0.5894142952
C   C361      1.0  0.34070  0.07090  0.70910  1.0000 0.5424866966
C   C362      1.0  0.84070  0.42910  0.70910  1.0000 0.5424866966
C   C363      1.0  0.37430  0.09230  0.73930  1.0000 -0.0511039243
C   C364      1.0  0.87430  0.40770  0.73930  1.0000 -0.0511039243
C   C365      1.0  0.38740  0.06240  0.77330  1.0000 -0.0791028067
C   C366      1.0  0.88740  0.43760  0.77330  1.0000 -0.0791028067
C   C367      1.0  0.41810  0.08410  0.80490  1.0000 -0.2521054455
C   C368      1.0  0.91810  0.41590  0.80490  1.0000 -0.2521054455
C   C369      1.0  0.43490  0.12980  0.80350  1.0000 0.2430016613
C   C370      1.0  0.93490  0.37020  0.80350  1.0000 0.2430016613
C   C371      1.0  0.42050  0.15760  0.76818  1.0000 -0.1919276052
C   C372      1.0  0.92050  0.34240  0.76818  1.0000 -0.1919276052
C   C373      1.0  0.39150  0.13510  0.73794  1.0000 -0.0511039243
C   C374      1.0  0.89150  0.36490  0.73794  1.0000 -0.0511039243
C   C375      1.0  0.47810  0.19080  0.84678  1.0000 0.4598327587
C   C376      1.0  0.97810  0.30920  0.84678  1.0000 0.4598327587
C   C377      1.0  0.50303  0.19730  0.88888  1.0000 -0.0174124969
C   C378      1.0  0.00303  0.30270  0.88888  1.0000 -0.0174124969
C   C379      1.0  0.49329  0.17320  0.91793  1.0000 -0.180288699
C   C380      1.0  0.99329  0.32680  0.91793  1.0000 -0.180288699
C   C381      1.0  0.51770  0.18030  0.95772  1.0000 -0.0108509424
C   C382      1.0  0.01770  0.31970  0.95772  1.0000 -0.0108509424
C   C383      1.0  0.54933  0.21240  0.96604  1.0000 -0.1145414913
C   C384      1.0  0.04933  0.28760  0.96604  1.0000 -0.1145414913
C   C385      1.0  0.55921  0.23870  0.93804  1.0000 -0.0511039243
C   C386      1.0  0.05921  0.26130  0.93804  1.0000 -0.0511039243
C   C387      1.0  0.53552  0.23130  0.89849  1.0000 -0.1145414913
C   C388      1.0  0.03552  0.26870  0.89849  1.0000 -0.1145414913
C   C389      1.0  0.50880  0.15530  0.99010  1.0000 0.431127228
C   C390      1.0  0.00880  0.34470  0.99010  1.0000 0.4360203019
C   C391      1.0  0.44850  0.12060  0.00500  1.0000 0.2266257269
C   C392      1.0  0.94850  0.37940  0.00500  1.0000 0.2266257269
C   C393      1.0  0.40620  0.11500  0.99200  1.0000 -0.2190227509
C   C394      1.0  0.90620  0.38500  0.99200  1.0000 -0.2190227509
C   C395      1.0  0.38590  0.09850  0.01760  1.0000 -0.0899631979
C   C396      1.0  0.88590  0.40150  0.01760  1.0000 -0.0899631979
C   C397      1.0  0.40600  0.07180  0.04900  1.0000 -0.0387399666
C   C398      1.0  0.90600  0.42820  0.04900  1.0000 -0.0387399666
C   C399      1.0  0.44710  0.07310  0.06160  1.0000 -0.0899631979
C   C400      1.0  0.94710  0.42690  0.06160  1.0000 -0.0899631979
C   C401      1.0  0.46840  0.09910  0.03946  1.0000 -0.1919276052
C   C402      1.0  0.96840  0.40090  0.03946  1.0000 -0.1919276052
C   C403      1.0  0.38040  0.04440  0.07040  1.0000 0.5894142952
C   C404      1.0  0.88040  0.45560  0.07040  1.0000 0.5894142952
C   C405      1.0  0.59390  0.27170  0.94694  1.0000 0.4360203019
C   C406      1.0  0.09390  0.22830  0.94694  1.0000 0.4360203019
C   C407      1.0  0.63570  0.32380  0.00300  1.0000 0.249299205
C   C408      1.0  0.13570  0.17620  0.00300  1.0000 0.249299205
C   C409      1.0  0.63770  0.33820  0.04090  1.0000 -0.2190227509
C   C410      1.0  0.13770  0.16180  0.04090  1.0000 -0.2190227509
C   C411      1.0  0.67110  0.36690  0.06250  1.0000 -0.0791028067
C   C412      1.0  0.17110  0.13310  0.06250  1.0000 -0.0791028067
C   C413      1.0  0.70020  0.38180  0.04790  1.0000 -0.0702965794
C   C414      1.0  0.20020  0.11820  0.04790  1.0000 -0.0702965794
C   C415      1.0  0.69780  0.36940  0.00870  1.0000 -0.0791028067
C   C416      1.0  0.19780  0.13060  0.00870  1.0000 -0.0791028067
C   C417      1.0  0.66640  0.33880  0.98730  1.0000 -0.2005295797
C   C418      1.0  0.16640  0.16120  0.98730  1.0000 -0.2005295797
C   C419      1.0  0.73510  0.41160  0.07240  1.0000 0.5894142952
C   C420      1.0  0.23510  0.08840  0.07240  1.0000 0.5894142952
C   C421      1.0  0.84403  0.45220  0.57505  1.0000 0.5997907809
C   C422      1.0  0.34403  0.04780  0.57505  1.0000 0.5997907809
C   C423      1.0  0.86997  0.43180  0.55249  1.0000 -0.0702965794
C   C424      1.0  0.36997  0.06820  0.55249  1.0000 -0.0702965794
C   C425      1.0  0.88970  0.46420  0.53403  1.0000 -0.0791028067
C   C426      1.0  0.38970  0.03580  0.53403  1.0000 -0.0791028067
C   C427      1.0  0.91407  0.44650  0.51465  1.0000 -0.180288699
C   C428      1.0  0.41407  0.05350  0.51465  1.0000 -0.180288699
C   C429      1.0  0.92260  0.39900  0.51347  1.0000 0.2078009998
C   C430      1.0  0.42260  0.10100  0.51347  1.0000 0.2078009998
C   C431      1.0  0.90490  0.36560  0.53140  1.0000 -0.1714314687
C   C432      1.0  0.40490  0.13440  0.53140  1.0000 -0.1714314687
C   C433      1.0  0.87920  0.38380  0.55040  1.0000 -0.0791028067
C   C434      1.0  0.37920  0.11620  0.55040  1.0000 -0.0899631979
C   C435      1.0  0.96719  0.33990  0.49478  1.0000 0.4499842993
C   C436      1.0  0.46719  0.16010  0.49478  1.0000 0.4499842993
C   C437      1.0  0.98788  0.33210  0.46451  1.0000 0.0004713476
C   C438      1.0  0.48788  0.16790  0.46451  1.0000 0.0004713476
C   C439      1.0  0.97464  0.35150  0.42743  1.0000 -0.2005295797
C   C440      1.0  0.47464  0.14850  0.42743  1.0000 -0.2005295797
C   C441      1.0  0.99790  0.34080  0.40151  1.0000 -0.0108509424
C   C442      1.0  0.49790  0.15920  0.40151  1.0000 -0.0108509424
C   C443      1.0  0.03222  0.31250  0.41273  1.0000 -0.1184315297
C   C444      1.0  0.53222  0.18750  0.41273  1.0000 -0.1184315297
C   C445      1.0  0.04401  0.29190  0.44890  1.0000 -0.0108509424
C   C446      1.0  0.54401  0.20810  0.44890  1.0000 -0.0108509424
C   C447      1.0  0.02330  0.30110  0.47560  1.0000 -0.1584649206
C   C448      1.0  0.52330  0.19890  0.47560  1.0000 -0.1584649206
C   C449      1.0  0.98400  0.36440  0.36171  1.0000 0.4499842993
C   C450      1.0  0.48400  0.13560  0.36171  1.0000 0.4499842993
C   C451      1.0  0.92400  0.38640  0.30509  1.0000 0.2187921673
C   C452      1.0  0.42400  0.11360  0.30509  1.0000 0.2187921673
C   C453      1.0  0.88310  0.37360  0.28640  1.0000 -0.2098453858
C   C454      1.0  0.38310  0.12640  0.28640  1.0000 -0.2098453858
C   C455      1.0  0.86150  0.39170  0.24988  1.0000 -0.0791028067
C   C456      1.0  0.36150  0.10830  0.24988  1.0000 -0.0791028067
C   C457      1.0  0.88100  0.42180  0.23193  1.0000 -0.0387399666
C   C458      1.0  0.38100  0.07820  0.23193  1.0000 -0.0387399666
C   C459      1.0  0.92069  0.43680  0.24969  1.0000 -0.0899631979
C   C460      1.0  0.42069  0.06320  0.24969  1.0000 -0.0899631979
C   C461      1.0  0.94307  0.41670  0.28708  1.0000 -0.2005295797
C   C462      1.0  0.44307  0.08330  0.28708  1.0000 -0.2005295797
C   C463      1.0  0.85820  0.44170  0.19110  1.0000 0.5894142952
C   C464      1.0  0.35820  0.05830  0.19110  1.0000 0.5894142952
C   C465      1.0  0.08350  0.26250  0.46070  1.0000 0.4499842993
C   C466      1.0  0.58350  0.23750  0.46070  1.0000 0.4499842993
C   C467      1.0  0.11390  0.19280  0.50590  1.0000 0.2187921673
C   C468      1.0  0.61390  0.30720  0.50590  1.0000 0.2187921673
C   C469      1.0  0.10150  0.15470  0.52580  1.0000 -0.2190227509
C   C470      1.0  0.60150  0.34530  0.52580  1.0000 -0.2190227509
C   C471      1.0  0.13040  0.12010  0.54400  1.0000 -0.0702965794
C   C472      1.0  0.63040  0.37990  0.54400  1.0000 -0.0702965794
C   C473      1.0  0.17410  0.13160  0.55230  1.0000 -0.0791028067
C   C474      1.0  0.67410  0.36840  0.55230  1.0000 -0.0791028067
C   C475      1.0  0.18450  0.16740  0.53090  1.0000 -0.0702965794
C   C476      1.0  0.68450  0.33260  0.53090  1.0000 -0.0702965794
C   C477      1.0  0.15210  0.19820  0.50820  1.0000 -0.180288699
C   C478      1.0  0.65210  0.30180  0.50820  1.0000 -0.180288699
C   C479      1.0  0.20320  0.09550  0.57660  1.0000 0.5894142952
C   C480      1.0  0.70320  0.40450  0.57660  1.0000 0.5894142952
N   N1        1.0  0.86049  0.13710  0.60927  1.0000 -0.3698156584
N   N2        1.0  0.36049  0.36290  0.60927  1.0000 -0.3698156584
N   N3        1.0  0.01862  0.24560  0.76577  1.0000 -0.3392931678
N   N4        1.0  0.51862  0.25440  0.76577  1.0000 -0.3392931678
N   N5        1.0  0.85934  0.11910  0.75322  1.0000 -0.3596378517
N   N6        1.0  0.35934  0.38090  0.75322  1.0000 -0.3596378517
N   N7        1.0  0.39559  0.37750  0.24591  1.0000 -0.3596378517
N   N8        1.0  0.89559  0.12250  0.24591  1.0000 -0.3596378517
N   N9        1.0  0.53994  0.23340  0.25476  1.0000 -0.3501825918
N   N10       1.0  0.03994  0.26660  0.25476  1.0000 -0.3501825918
N   N11       1.0  0.39870  0.36970  0.10366  1.0000 -0.3596378517
N   N12       1.0  0.89870  0.13030  0.10366  1.0000 -0.3501825918
N   N13       1.0  0.03810  0.64680  0.16296  1.0000 -0.3300322452
N   N14       1.0  0.53810  0.85320  0.16296  1.0000 -0.3300322452
N   N15       1.0  0.03248  0.64470  0.01791  1.0000 -0.3596378517
N   N16       1.0  0.53248  0.85530  0.01791  1.0000 -0.3596378517
N   N17       1.0  0.89750  0.79510  0.01768  1.0000 -0.3501825918
N   N18       1.0  0.39750  0.70490  0.01768  1.0000 -0.3501825918
N   N19       1.0  0.55185  0.88290  0.50766  1.0000 -0.3596378517
N   N20       1.0  0.05185  0.61710  0.50766  1.0000 -0.3596378517
N   N21       1.0  0.55680  0.86698  0.65768  1.0000 -0.3501825918
N   N22       1.0  0.05680  0.63302  0.65768  1.0000 -0.3501825918
N   N23       1.0  0.41835  0.72360  0.51520  1.0000 -0.3698156584
N   N24       1.0  0.91835  0.77640  0.51520  1.0000 -0.3698156584
N   N25       1.0  0.63951  0.63710  0.39073  1.0000 -0.3698156584
N   N26       1.0  0.13951  0.86290  0.39073  1.0000 -0.3698156584
N   N27       1.0  0.48138  0.74560  0.23423  1.0000 -0.3392931678
N   N28       1.0  0.98138  0.75440  0.23423  1.0000 -0.3392931678
N   N29       1.0  0.64066  0.61910  0.24678  1.0000 -0.3596378517
N   N30       1.0  0.14066  0.88090  0.24678  1.0000 -0.3596378517
N   N31       1.0  0.10441  0.87750  0.75409  1.0000 -0.3596378517
N   N32       1.0  0.60441  0.62250  0.75409  1.0000 -0.3596378517
N   N33       1.0  0.96006  0.73340  0.74524  1.0000 -0.3501825918
N   N34       1.0  0.46006  0.76660  0.74524  1.0000 -0.3501825918
N   N35       1.0  0.10130  0.86970  0.89634  1.0000 -0.3501825918
N   N36       1.0  0.60130  0.63030  0.89634  1.0000 -0.3501825918
N   N37       1.0  0.46190  0.14680  0.83704  1.0000 -0.3300322452
N   N38       1.0  0.96190  0.35320  0.83704  1.0000 -0.3300322452
N   N39       1.0  0.46752  0.14470  0.98209  1.0000 -0.3596378517
N   N40       1.0  0.96752  0.35530  0.98209  1.0000 -0.3596378517
N   N41       1.0  0.60250  0.29510  0.98232  1.0000 -0.3501825918
N   N42       1.0  0.10250  0.20490  0.98232  1.0000 -0.3501825918
N   N43       1.0  0.94815  0.38290  0.49234  1.0000 -0.3596378517
N   N44       1.0  0.44815  0.11710  0.49234  1.0000 -0.3698156584
N   N45       1.0  0.94320  0.36698  0.34232  1.0000 -0.3501825918
N   N46       1.0  0.44320  0.13302  0.34232  1.0000 -0.3501825918
N   N47       1.0  0.08165  0.22360  0.48480  1.0000 -0.3698156584
N   N48       1.0  0.58165  0.27640  0.48480  1.0000 -0.3698156584
O   O1        1.0  0.73338  0.06716  0.44569  1.0000 -0.539969523
O   O2        1.0  0.23338  0.43284  0.44569  1.0000 -0.539969523
O   O3        1.0  0.79415  0.04910  0.43637  1.0000 -0.5585185256
O   O4        1.0  0.29415  0.45090  0.43637  1.0000 -0.5585185256
O   O5        1.0  0.11446  0.43190  0.85121  1.0000 -0.5298149197
O   O6        1.0  0.61446  0.06810  0.85121  1.0000 -0.5298149197
O   O7        1.0  0.16644  0.37593  0.87482  1.0000 -0.548813642
O   O8        1.0  0.66644  0.12407  0.87482  1.0000 -0.548813642
O   O9        1.0  0.74935  0.00613  0.83824  1.0000 -0.539969523
O   O10       1.0  0.24935  0.49387  0.83824  1.0000 -0.539969523
O   O11       1.0  0.73987  0.08480  0.85466  1.0000 -0.5173892217
O   O12       1.0  0.23987  0.41520  0.85466  1.0000 -0.5173892217
O   O13       1.0  0.92703  0.13950  0.60976  1.0000 -0.4422819504
O   O14       1.0  0.42703  0.36050  0.60976  1.0000 -0.4422819504
O   O15       1.0  0.99756  0.27950  0.70634  1.0000 -0.4292779834
O   O16       1.0  0.49756  0.22050  0.70634  1.0000 -0.4292779834
O   O17       1.0  0.87992  0.19100  0.78082  1.0000 -0.4477529783
O   O18       1.0  0.37992  0.30900  0.78082  1.0000 -0.4477529783
O   O19       1.0  0.25754  0.46945  0.30539  1.0000 -0.548813642
O   O20       1.0  0.75754  0.03055  0.30539  1.0000 -0.548813642
O   O21       1.0  0.31109  0.47113  0.36094  1.0000 -0.5173892217
O   O22       1.0  0.81109  0.02887  0.36094  1.0000 -0.5173892217
O   O23       1.0  0.68756  0.07935  0.32080  1.0000 -0.548813642
O   O24       1.0  0.18756  0.42065  0.32080  1.0000 -0.548813642
O   O25       1.0  0.65873  0.07919  0.36820  1.0000 -0.539969523
O   O26       1.0  0.15873  0.42081  0.36820  1.0000 -0.539969523
O   O27       1.0  0.25312  0.39630  0.94074  1.0000 -0.5173892217
O   O28       1.0  0.75312  0.10370  0.94074  1.0000 -0.5173892217
O   O29       1.0  0.26441  0.47400  0.96333  1.0000 -0.5816468605
O   O30       1.0  0.76441  0.02600  0.96333  1.0000 -0.5816468605
O   O31       1.0  0.46020  0.37770  0.28669  1.0000 -0.4597509512
O   O32       1.0  0.96020  0.12230  0.28669  1.0000 -0.4597509512
O   O33       1.0  0.55611  0.25070  0.19939  1.0000 -0.4292779834
O   O34       1.0  0.05611  0.24930  0.19939  1.0000 -0.4292779834
O   O35       1.0  0.41750  0.29530  0.09393  1.0000 -0.4477529783
O   O36       1.0  0.91750  0.20470  0.09393  1.0000 -0.4477529783
O   O37       1.0  0.17900  0.53320  0.28777  1.0000 -0.4781174519
O   O38       1.0  0.67900  0.96680  0.28777  1.0000 -0.4781174519
O   O39       1.0  0.17168  0.59650  0.32701  1.0000 -0.6251557776
O   O40       1.0  0.67168  0.90350  0.32701  1.0000 -0.6251557776
O   O41       1.0  0.09991  0.52218  0.89937  1.0000 -0.5117992867
O   O42       1.0  0.59991  0.97782  0.89937  1.0000 -0.5117992867
O   O43       1.0  0.15670  0.55270  0.94140  1.0000 -0.539969523
O   O44       1.0  0.65670  0.94730  0.94140  1.0000 -0.539969523
O   O45       1.0  0.73799  0.92420  0.94389  1.0000 -0.5585185256
O   O46       1.0  0.23799  0.57580  0.94389  1.0000 -0.5585185256
O   O47       1.0  0.76264  0.92487  0.89472  1.0000 -0.4898245045
O   O48       1.0  0.26264  0.57513  0.89472  1.0000 -0.4898245045
O   O49       1.0  0.02739  0.72528  0.17702  1.0000 -0.4477529783
O   O50       1.0  0.52739  0.77472  0.17702  1.0000 -0.4477529783
O   O51       1.0  0.96601  0.64370  0.98006  1.0000 -0.4182118111
O   O52       1.0  0.46601  0.85630  0.98006  1.0000 -0.4182118111
O   O53       1.0  0.88589  0.78055  0.07552  1.0000 -0.4597509512
O   O54       1.0  0.38589  0.71945  0.07552  1.0000 -0.4661495496
O   O55       1.0  0.66160  0.99756  0.42417  1.0000 -0.5117992867
O   O56       1.0  0.16160  0.50244  0.42417  1.0000 -0.5117992867
O   O57       1.0  0.67272  0.92000  0.40968  1.0000 -0.539969523
O   O58       1.0  0.17272  0.58000  0.40968  1.0000 -0.539969523
O   O59       1.0  0.67990  0.93407  0.82174  1.0000 -0.5298149197
O   O60       1.0  0.17990  0.56593  0.82174  1.0000 -0.5298149197
O   O61       1.0  0.61994  0.96494  0.82534  1.0000 -0.539969523
O   O62       1.0  0.11994  0.53506  0.82534  1.0000 -0.539969523
O   O63       1.0  0.31110  0.55520  0.41380  1.0000 -0.539969523
O   O64       1.0  0.81110  0.94480  0.41380  1.0000 -0.539969523
O   O65       1.0  0.26080  0.60510  0.41570  1.0000 -0.4979497203
O   O66       1.0  0.76080  0.89490  0.41570  1.0000 -0.4979497203
O   O67       1.0  0.53388  0.80833  0.48253  1.0000 -0.4477529783
O   O68       1.0  0.03388  0.69167  0.48253  1.0000 -0.4422819504
O   O69       1.0  0.48982  0.88118  0.65150  1.0000 -0.4477529783
O   O70       1.0  0.98982  0.61882  0.65150  1.0000 -0.4422819504
O   O71       1.0  0.38722  0.77160  0.54905  1.0000 -0.4422819504
O   O72       1.0  0.88722  0.72840  0.54905  1.0000 -0.4422819504
O   O73       1.0  0.72431  0.99343  0.37346  1.0000 -1.0229838797
O   O74       1.0  0.22431  0.50657  0.37346  1.0000 -1.0229838797
O   O75       1.0  0.19408  0.48961  0.89368  1.0000 -1.0315476963
O   O76       1.0  0.69408  0.01039  0.89368  1.0000 -1.0315476963
O   O77       1.0  0.76662  0.56716  0.55431  1.0000 -0.539969523
O   O78       1.0  0.26662  0.93284  0.55431  1.0000 -0.539969523
O   O79       1.0  0.70585  0.54910  0.56363  1.0000 -0.5585185256
O   O80       1.0  0.20585  0.95090  0.56363  1.0000 -0.548813642
O   O81       1.0  0.38554  0.93190  0.14879  1.0000 -0.5298149197
O   O82       1.0  0.88554  0.56810  0.14879  1.0000 -0.5298149197
O   O83       1.0  0.33356  0.87593  0.12518  1.0000 -0.548813642
O   O84       1.0  0.83356  0.62407  0.12518  1.0000 -0.548813642
O   O85       1.0  0.75065  0.50613  0.16176  1.0000 -0.539969523
O   O86       1.0  0.25065  0.99387  0.16176  1.0000 -0.539969523
O   O87       1.0  0.76013  0.58480  0.14534  1.0000 -0.5173892217
O   O88       1.0  0.26013  0.91520  0.14534  1.0000 -0.5173892217
O   O89       1.0  0.57297  0.63950  0.39024  1.0000 -0.4422819504
O   O90       1.0  0.07297  0.86050  0.39024  1.0000 -0.4422819504
O   O91       1.0  0.50244  0.77950  0.29366  1.0000 -0.4292779834
O   O92       1.0  0.00244  0.72050  0.29366  1.0000 -0.4292779834
O   O93       1.0  0.62008  0.69100  0.21918  1.0000 -0.4477529783
O   O94       1.0  0.12008  0.80900  0.21918  1.0000 -0.4477529783
O   O95       1.0  0.24246  0.96945  0.69461  1.0000 -0.548813642
O   O96       1.0  0.74246  0.53055  0.69461  1.0000 -0.548813642
O   O97       1.0  0.18891  0.97113  0.63906  1.0000 -0.5173892217
O   O98       1.0  0.68891  0.52887  0.63906  1.0000 -0.5173892217
O   O99       1.0  0.81244  0.57935  0.67920  1.0000 -0.548813642
O   O100      1.0  0.31244  0.92065  0.67920  1.0000 -0.539969523
O   O101      1.0  0.84127  0.57919  0.63180  1.0000 -0.539969523
O   O102      1.0  0.34127  0.92081  0.63180  1.0000 -0.539969523
O   O103      1.0  0.24688  0.89630  0.05926  1.0000 -0.5173892217
O   O104      1.0  0.74688  0.60370  0.05926  1.0000 -0.5173892217
O   O105      1.0  0.23559  0.97400  0.03667  1.0000 -0.5816468605
O   O106      1.0  0.73559  0.52600  0.03667  1.0000 -0.5816468605
O   O107      1.0  0.03980  0.87770  0.71331  1.0000 -0.4597509512
O   O108      1.0  0.53980  0.62230  0.71331  1.0000 -0.4597509512
O   O109      1.0  0.94389  0.75070  0.80061  1.0000 -0.4292779834
O   O110      1.0  0.44389  0.74930  0.80061  1.0000 -0.4292779834
O   O111      1.0  0.08250  0.79530  0.90607  1.0000 -0.4477529783
O   O112      1.0  0.58250  0.70470  0.90607  1.0000 -0.4477529783
O   O113      1.0  0.32100  0.03320  0.71223  1.0000 -0.4781174519
O   O114      1.0  0.82100  0.46680  0.71223  1.0000 -0.4781174519
O   O115      1.0  0.32832  0.09650  0.67299  1.0000 -0.6217781612
O   O116      1.0  0.82832  0.40350  0.67299  1.0000 -0.6217781612
O   O117      1.0  0.40009  0.02218  0.10063  1.0000 -0.5117992867
O   O118      1.0  0.90009  0.47782  0.10063  1.0000 -0.5117992867
O   O119      1.0  0.34330  0.05270  0.05860  1.0000 -0.539969523
O   O120      1.0  0.84330  0.44730  0.05860  1.0000 -0.539969523
O   O121      1.0  0.76201  0.42420  0.05611  1.0000 -0.5585185256
O   O122      1.0  0.26201  0.07580  0.05611  1.0000 -0.5585185256
O   O123      1.0  0.73736  0.42487  0.10528  1.0000 -0.4898245045
O   O124      1.0  0.23736  0.07513  0.10528  1.0000 -0.4898245045
O   O125      1.0  0.47261  0.22528  0.82298  1.0000 -0.4477529783
O   O126      1.0  0.97261  0.27472  0.82298  1.0000 -0.4477529783
O   O127      1.0  0.53399  0.14370  0.01994  1.0000 -0.4182118111
O   O128      1.0  0.03399  0.35630  0.01994  1.0000 -0.4182118111
O   O129      1.0  0.61411  0.28055  0.92448  1.0000 -0.4661495496
O   O130      1.0  0.11411  0.21945  0.92448  1.0000 -0.4661495496
O   O131      1.0  0.83840  0.49756  0.57583  1.0000 -0.5173892217
O   O132      1.0  0.33840  0.00244  0.57583  1.0000 -0.5173892217
O   O133      1.0  0.82728  0.42000  0.59032  1.0000 -0.539969523
O   O134      1.0  0.32728  0.08000  0.59032  1.0000 -0.539969523
O   O135      1.0  0.82010  0.43407  0.17826  1.0000 -0.539969523
O   O136      1.0  0.32010  0.06593  0.17826  1.0000 -0.539969523
O   O137      1.0  0.88006  0.46494  0.17466  1.0000 -0.539969523
O   O138      1.0  0.38006  0.03506  0.17466  1.0000 -0.539969523
O   O139      1.0  0.18890  0.05520  0.58620  1.0000 -0.539969523
O   O140      1.0  0.68890  0.44480  0.58620  1.0000 -0.539969523
O   O141      1.0  0.23920  0.10510  0.58430  1.0000 -0.4979497203
O   O142      1.0  0.73920  0.39490  0.58430  1.0000 -0.4979497203
O   O143      1.0  0.96612  0.30833  0.51747  1.0000 -0.4477529783
O   O144      1.0  0.46612  0.19167  0.51747  1.0000 -0.4477529783
O   O145      1.0  0.01018  0.38118  0.34850  1.0000 -0.4477529783
O   O146      1.0  0.51018  0.11882  0.34850  1.0000 -0.4477529783
O   O147      1.0  0.11278  0.27160  0.45095  1.0000 -0.4422819504
O   O148      1.0  0.61278  0.22840  0.45095  1.0000 -0.4422819504
O   O149      1.0  0.77569  0.49343  0.62654  1.0000 -1.0229838797
O   O150      1.0  0.27569  0.00657  0.62654  1.0000 -1.0229838797
O   O151      1.0  0.30592  0.98961  0.10632  1.0000 -1.0315476963
O   O152      1.0  0.80592  0.51039  0.10632  1.0000 -1.0315476963
