# DDEC6 charges by PACMAN v1.1 (https://github.com/mtap-research/PACMAN-charge/)
data_2010[Cd][nan]3[ASR]3
_chemical_formula_sum              "Cd8 H44 C80 N8 O36"
_cell_length_a       15.2986
_cell_length_b       15.2986
_cell_length_c       17.316
_cell_angle_alpha    84.7218
_cell_angle_beta     95.2782
_cell_angle_gamma    45.9418

_symmetry_space_group_name_H-M    "P 1"
_symmetry_Int_Tables_number       1

loop_
  _symmetry_equiv_pos_as_xyz
  'x, y, z'

loop_
  _atom_site_type_symbol
  _atom_site_label
  _atom_site_symmetry_multiplicity
  _atom_site_fract_x
  _atom_site_fract_y
  _atom_site_fract_z
  _atom_site_occupancy
  _atom_site_charge
Cd  Cd1       1.0  0.52726  0.91008  0.66556  1.0000 0.8952645278
Cd  Cd2       1.0  0.91008  0.52726  0.83444  1.0000 0.8952645278
Cd  Cd3       1.0  0.47274  0.08992  0.33444  1.0000 0.8952645278
Cd  Cd4       1.0  0.08992  0.47274  0.16556  1.0000 0.8952645278
Cd  Cd5       1.0  0.20915  0.42157  0.81412  1.0000 1.0023776955
Cd  Cd6       1.0  0.42157  0.20915  0.68588  1.0000 1.0023776955
Cd  Cd7       1.0  0.79085  0.57843  0.18588  1.0000 1.0023776955
Cd  Cd8       1.0  0.57843  0.79085  0.31412  1.0000 1.0023776955
H   H1        1.0  0.89210  0.45650  0.53570  1.0000 0.1290652048
H   H2        1.0  0.45650  0.89210  0.96430  1.0000 0.1290652048
H   H3        1.0  0.10790  0.54350  0.46430  1.0000 0.1290652048
H   H4        1.0  0.54350  0.10790  0.03570  1.0000 0.1290652048
H   H5        1.0  0.08920  0.29120  0.61440  1.0000 0.1397659695
H   H6        1.0  0.29120  0.08920  0.88560  1.0000 0.1397659695
H   H7        1.0  0.91080  0.70880  0.38560  1.0000 0.1397659695
H   H8        1.0  0.70880  0.91080  0.11440  1.0000 0.1397659695
H   H9        1.0  0.50900  0.78220  0.80720  1.0000 0.1290652048
H   H10       1.0  0.78220  0.50900  0.69280  1.0000 0.1290652048
H   H11       1.0  0.49100  0.21780  0.19280  1.0000 0.1290652048
H   H12       1.0  0.21780  0.49100  0.30720  1.0000 0.1290652048
H   H13       1.0  0.43840  0.69680  0.83800  1.0000 0.1397659695
H   H14       1.0  0.69680  0.43840  0.66200  1.0000 0.1397659695
H   H15       1.0  0.56160  0.30320  0.16200  1.0000 0.1397659695
H   H16       1.0  0.30320  0.56160  0.33800  1.0000 0.1397659695
H   H17       1.0  0.44580  0.54800  0.84960  1.0000 0.1290652048
H   H18       1.0  0.54800  0.44580  0.65040  1.0000 0.1290652048
H   H19       1.0  0.55420  0.45200  0.15040  1.0000 0.1290652048
H   H20       1.0  0.45200  0.55420  0.34960  1.0000 0.1290652048
H   H21       1.0  0.38890  0.44510  0.87500  1.0000 0.113137764
H   H22       1.0  0.44510  0.38890  0.62500  1.0000 0.113137764
H   H23       1.0  0.61110  0.55490  0.12500  1.0000 0.113137764
H   H24       1.0  0.55490  0.61110  0.37500  1.0000 0.113137764
H   H25       1.0  0.13510  0.64030  0.67960  1.0000 0.1185409604
H   H26       1.0  0.64030  0.13510  0.82040  1.0000 0.1185409604
H   H27       1.0  0.86490  0.35970  0.32040  1.0000 0.1185409604
H   H28       1.0  0.35970  0.86490  0.17960  1.0000 0.1185409604
H   H29       1.0  0.19030  0.74130  0.64710  1.0000 0.1397659695
H   H30       1.0  0.74130  0.19030  0.85290  1.0000 0.1397659695
H   H31       1.0  0.80970  0.25870  0.35290  1.0000 0.1397659695
H   H32       1.0  0.25870  0.80970  0.14710  1.0000 0.1397659695
H   H33       1.0  0.32270  0.75130  0.60680  1.0000 0.1397659695
H   H34       1.0  0.75130  0.32270  0.89320  1.0000 0.1397659695
H   H35       1.0  0.67730  0.24870  0.39320  1.0000 0.1397659695
H   H36       1.0  0.24870  0.67730  0.10680  1.0000 0.1397659695
H   H37       1.0  0.40150  0.83490  0.58230  1.0000 0.1185409604
H   H38       1.0  0.83490  0.40150  0.91770  1.0000 0.1185409604
H   H39       1.0  0.59850  0.16510  0.41770  1.0000 0.1185409604
H   H40       1.0  0.16510  0.59850  0.08230  1.0000 0.1185409604
H   H41       1.0  0.15300  0.49900  0.97230  1.0000 0.4299105322
H   H42       1.0  0.49900  0.15300  0.52770  1.0000 0.4299105322
H   H43       1.0  0.84700  0.50100  0.02770  1.0000 0.4299105322
H   H44       1.0  0.50100  0.84700  0.47230  1.0000 0.4299105322
C   C1        1.0  0.30720  0.13180  0.57540  1.0000 0.5716577387
C   C2        1.0  0.13180  0.30720  0.92460  1.0000 0.5716577387
C   C3        1.0  0.69280  0.86820  0.42460  1.0000 0.5716577387
C   C4        1.0  0.86820  0.69280  0.07540  1.0000 0.5716577387
C   C5        1.0  0.18220  0.24820  0.52620  1.0000 -0.0235274658
C   C6        1.0  0.24820  0.18220  0.97380  1.0000 -0.0235274658
C   C7        1.0  0.81780  0.75180  0.47380  1.0000 -0.0235274658
C   C8        1.0  0.75180  0.81780  0.02620  1.0000 -0.0235274658
C   C9        1.0  0.16760  0.28580  0.44620  1.0000 -0.0294986656
C   C10       1.0  0.28580  0.16760  0.05380  1.0000 -0.0294986656
C   C11       1.0  0.83240  0.71420  0.55380  1.0000 -0.0294986656
C   C12       1.0  0.71420  0.83240  0.94620  1.0000 -0.0294986656
C   C13       1.0  0.28100  0.21960  0.41120  1.0000 0.5716577387
C   C14       1.0  0.21960  0.28100  0.08880  1.0000 0.5716577387
C   C15       1.0  0.71900  0.78040  0.58880  1.0000 0.5716577387
C   C16       1.0  0.78040  0.71900  0.91120  1.0000 0.5716577387
C   C17       1.0  0.04890  0.38550  0.39780  1.0000 -0.0522168311
C   C18       1.0  0.38550  0.04890  0.10220  1.0000 -0.0522168311
C   C19       1.0  0.95110  0.61450  0.60220  1.0000 -0.0522168311
C   C20       1.0  0.61450  0.95110  0.89780  1.0000 -0.0522168311
C   C21       1.0  0.04030  0.41950  0.31120  1.0000 0.5969639486
C   C22       1.0  0.41950  0.04030  0.18880  1.0000 0.5969639486
C   C23       1.0  0.95970  0.58050  0.68880  1.0000 0.5969639486
C   C24       1.0  0.58050  0.95970  0.81120  1.0000 0.5969639486
C   C25       1.0  0.94490  0.44790  0.43230  1.0000 -0.0522168311
C   C26       1.0  0.44790  0.94490  0.06770  1.0000 -0.0522168311
C   C27       1.0  0.05510  0.55210  0.56770  1.0000 -0.0522168311
C   C28       1.0  0.55210  0.05510  0.93230  1.0000 -0.0522168311
C   C29       1.0  0.81490  0.56030  0.38500  1.0000 0.5475626653
C   C30       1.0  0.56030  0.81490  0.11500  1.0000 0.5475626653
C   C31       1.0  0.18510  0.43970  0.61500  1.0000 0.5475626653
C   C32       1.0  0.43970  0.18510  0.88500  1.0000 0.5475626653
C   C33       1.0  0.96130  0.41290  0.51280  1.0000 -0.0977958539
C   C34       1.0  0.41290  0.96130  0.98720  1.0000 -0.0977958539
C   C35       1.0  0.03870  0.58710  0.48720  1.0000 -0.0977958539
C   C36       1.0  0.58710  0.03870  0.01280  1.0000 -0.0977958539
C   C37       1.0  0.07930  0.31370  0.56020  1.0000 -0.105059714
C   C38       1.0  0.31370  0.07930  0.93980  1.0000 -0.105059714
C   C39       1.0  0.92070  0.68630  0.43980  1.0000 -0.105059714
C   C40       1.0  0.68630  0.92070  0.06020  1.0000 -0.0977958539
C   C41       1.0  0.47120  0.77580  0.76620  1.0000 0.0784272021
C   C42       1.0  0.77580  0.47120  0.73380  1.0000 0.0784272021
C   C43       1.0  0.52880  0.22420  0.23380  1.0000 0.0784272021
C   C44       1.0  0.22420  0.52880  0.26620  1.0000 0.0784272021
C   C45       1.0  0.42820  0.72500  0.78490  1.0000 -0.1907705599
C   C46       1.0  0.72500  0.42820  0.71510  1.0000 -0.1907705599
C   C47       1.0  0.57180  0.27500  0.21510  1.0000 -0.1907705599
C   C48       1.0  0.27500  0.57180  0.28490  1.0000 -0.1907705599
C   C49       1.0  0.37070  0.71450  0.72730  1.0000 0.0996187097
C   C50       1.0  0.71450  0.37070  0.77270  1.0000 0.0996187097
C   C51       1.0  0.62930  0.28550  0.27270  1.0000 0.0996187097
C   C52       1.0  0.28550  0.62930  0.22730  1.0000 0.0996187097
C   C53       1.0  0.32610  0.65630  0.74530  1.0000 0.0996187097
C   C54       1.0  0.65630  0.32610  0.75470  1.0000 0.0996187097
C   C55       1.0  0.67390  0.34370  0.25470  1.0000 0.0996187097
C   C56       1.0  0.34370  0.67390  0.24530  1.0000 0.0996187097
C   C57       1.0  0.38290  0.56750  0.81320  1.0000 -0.1986180497
C   C58       1.0  0.56750  0.38290  0.68680  1.0000 -0.1986180497
C   C59       1.0  0.61710  0.43250  0.18680  1.0000 -0.1986180497
C   C60       1.0  0.43250  0.61710  0.31320  1.0000 -0.1986180497
C   C61       1.0  0.34760  0.50600  0.82850  1.0000 0.0996187097
C   C62       1.0  0.50600  0.34760  0.67150  1.0000 0.0996187097
C   C63       1.0  0.65240  0.49400  0.17150  1.0000 0.0996187097
C   C64       1.0  0.49400  0.65240  0.32850  1.0000 0.0996187097
C   C65       1.0  0.20030  0.61950  0.71400  1.0000 0.0906252256
C   C66       1.0  0.61950  0.20030  0.78600  1.0000 0.0906252256
C   C67       1.0  0.79970  0.38050  0.28600  1.0000 0.0906252256
C   C68       1.0  0.38050  0.79970  0.21400  1.0000 0.0906252256
C   C69       1.0  0.23190  0.68190  0.69440  1.0000 -0.1986180497
C   C70       1.0  0.68190  0.23190  0.80560  1.0000 -0.1986180497
C   C71       1.0  0.76810  0.31810  0.30560  1.0000 -0.1986180497
C   C72       1.0  0.31810  0.76810  0.19440  1.0000 -0.1986180497
C   C73       1.0  0.36030  0.75650  0.64880  1.0000 -0.2067427271
C   C74       1.0  0.75650  0.36030  0.85120  1.0000 -0.2067427271
C   C75       1.0  0.63970  0.24350  0.35120  1.0000 -0.2067427271
C   C76       1.0  0.24350  0.63970  0.14880  1.0000 -0.2067427271
C   C77       1.0  0.40810  0.80710  0.63470  1.0000 0.113137764
C   C78       1.0  0.80710  0.40810  0.86530  1.0000 0.113137764
C   C79       1.0  0.59190  0.19290  0.36530  1.0000 0.113137764
C   C80       1.0  0.19290  0.59190  0.13470  1.0000 0.113137764
N   N1        1.0  0.46140  0.81700  0.69130  1.0000 -0.2276919121
N   N2        1.0  0.81700  0.46140  0.80870  1.0000 -0.2276919121
N   N3        1.0  0.53860  0.18300  0.30870  1.0000 -0.2276919121
N   N4        1.0  0.18300  0.53860  0.19130  1.0000 -0.2276919121
N   N5        1.0  0.25720  0.53060  0.77950  1.0000 -0.2276919121
N   N6        1.0  0.53060  0.25720  0.72050  1.0000 -0.2276919121
N   N7        1.0  0.74280  0.46940  0.22050  1.0000 -0.2276919121
N   N8        1.0  0.46940  0.74280  0.27950  1.0000 -0.2276919121
O   O1        1.0  0.36970  0.03730  0.54720  1.0000 -0.4754479313
O   O2        1.0  0.03730  0.36970  0.95280  1.0000 -0.4754479313
O   O3        1.0  0.63030  0.96270  0.45280  1.0000 -0.4754479313
O   O4        1.0  0.96270  0.63030  0.04720  1.0000 -0.4754479313
O   O5        1.0  0.34405  0.12765  0.64540  1.0000 -0.535666042
O   O6        1.0  0.12765  0.34405  0.85460  1.0000 -0.535666042
O   O7        1.0  0.65595  0.87235  0.35460  1.0000 -0.527757201
O   O8        1.0  0.87235  0.65595  0.14540  1.0000 -0.535666042
O   O9        1.0  0.35798  0.22238  0.43580  1.0000 -0.5107859233
O   O10       1.0  0.22238  0.35798  0.06420  1.0000 -0.5107859233
O   O11       1.0  0.64202  0.77762  0.56420  1.0000 -0.5107859233
O   O12       1.0  0.77762  0.64202  0.93580  1.0000 -0.5107859233
O   O13       1.0  0.29120  0.16840  0.35550  1.0000 -0.4588609794
O   O14       1.0  0.16840  0.29120  0.14450  1.0000 -0.4588609794
O   O15       1.0  0.70880  0.83160  0.64450  1.0000 -0.4588609794
O   O16       1.0  0.83160  0.70880  0.85550  1.0000 -0.4588609794
O   O17       1.0  0.09010  0.45590  0.29520  1.0000 -0.527757201
O   O18       1.0  0.45590  0.09010  0.20480  1.0000 -0.527757201
O   O19       1.0  0.90990  0.54410  0.70480  1.0000 -0.527757201
O   O20       1.0  0.54410  0.90990  0.79520  1.0000 -0.527757201
O   O21       1.0  0.98918  0.40618  0.25950  1.0000 -0.527757201
O   O22       1.0  0.40618  0.98918  0.24050  1.0000 -0.527757201
O   O23       1.0  0.01082  0.59382  0.74050  1.0000 -0.527757201
O   O24       1.0  0.59382  0.01082  0.75950  1.0000 -0.527757201
O   O25       1.0  0.79779  0.61319  0.31680  1.0000 -0.5567230517
O   O26       1.0  0.61319  0.79779  0.18320  1.0000 -0.5567230517
O   O27       1.0  0.20221  0.38681  0.68320  1.0000 -0.5567230517
O   O28       1.0  0.38681  0.20221  0.81680  1.0000 -0.5567230517
O   O29       1.0  0.72480  0.60460  0.41570  1.0000 -0.5107859233
O   O30       1.0  0.60460  0.72480  0.08430  1.0000 -0.5107859233
O   O31       1.0  0.27520  0.39540  0.58430  1.0000 -0.5107859233
O   O32       1.0  0.39540  0.27520  0.91570  1.0000 -0.5107859233
O   O33       1.0  0.13230  0.52230  0.91970  1.0000 -0.7824806953
O   O34       1.0  0.52230  0.13230  0.58030  1.0000 -0.7824806953
O   O35       1.0  0.86770  0.47770  0.08030  1.0000 -0.7824806953
O   O36       1.0  0.47770  0.86770  0.41970  1.0000 -0.7824806953
