# DDEC6 charges by PACMAN v1.1 (https://github.com/mtap-research/PACMAN-charge/)
data_2010[Er][nan]3[ASR]2
_chemical_formula_sum              "Er4 H12 C36 O24"
_cell_length_a       10.267
_cell_length_b       10.267
_cell_length_c       14.462
_cell_angle_alpha    90
_cell_angle_beta     90
_cell_angle_gamma    90

_symmetry_space_group_name_H-M    "P 1"
_symmetry_Int_Tables_number       1

loop_
  _symmetry_equiv_pos_as_xyz
  'x, y, z'

loop_
  _atom_site_type_symbol
  _atom_site_label
  _atom_site_symmetry_multiplicity
  _atom_site_fract_x
  _atom_site_fract_y
  _atom_site_fract_z
  _atom_site_occupancy
  _atom_site_charge
Er  Er1       1.0  0.14741  0.14741  0.12500  1.0000 2.1121728225
Er  Er2       1.0  0.85259  0.85259  0.62500  1.0000 2.1121728225
Er  Er3       1.0  0.85259  0.14741  0.87500  1.0000 2.1121728225
Er  Er4       1.0  0.14741  0.85259  0.37500  1.0000 2.1121728225
H   H1        1.0  0.07460  0.55820  0.12860  1.0000 0.1361897393
H   H2        1.0  0.92540  0.44180  0.62860  1.0000 0.1361897393
H   H3        1.0  0.44180  0.07460  0.87860  1.0000 0.1361897393
H   H4        1.0  0.55820  0.92540  0.37860  1.0000 0.1361897393
H   H5        1.0  0.92540  0.55820  0.87140  1.0000 0.1361897393
H   H6        1.0  0.07460  0.44180  0.37140  1.0000 0.1361897393
H   H7        1.0  0.55820  0.07460  0.12140  1.0000 0.1361897393
H   H8        1.0  0.44180  0.92540  0.62140  1.0000 0.1361897393
H   H9        1.0  0.00000  0.89750  0.00000  1.0000 0.1078431933
H   H10       1.0  0.00000  0.10250  0.50000  1.0000 0.1078431933
H   H11       1.0  0.10250  0.00000  0.75000  1.0000 0.1078431933
H   H12       1.0  0.89750  0.00000  0.25000  1.0000 0.1078431933
C   C1        1.0  0.04440  0.60330  0.07710  1.0000 -0.0926591875
C   C2        1.0  0.95560  0.39670  0.57710  1.0000 -0.0926591875
C   C3        1.0  0.39670  0.04440  0.82710  1.0000 -0.0926591875
C   C4        1.0  0.60330  0.95560  0.32710  1.0000 -0.0926591875
C   C5        1.0  0.95560  0.60330  0.92290  1.0000 -0.0926591875
C   C6        1.0  0.04440  0.39670  0.42290  1.0000 -0.0926591875
C   C7        1.0  0.60330  0.04440  0.17290  1.0000 -0.0926591875
C   C8        1.0  0.39670  0.95560  0.67290  1.0000 -0.0926591875
C   C9        1.0  0.00000  0.53490  0.00000  1.0000 -0.0492108175
C   C10       1.0  0.00000  0.46510  0.50000  1.0000 -0.0492108175
C   C11       1.0  0.46510  0.00000  0.75000  1.0000 -0.0492108175
C   C12       1.0  0.53490  0.00000  0.25000  1.0000 -0.0492108175
C   C13       1.0  0.00000  0.38940  0.00000  1.0000 0.6750098868
C   C14       1.0  0.00000  0.61060  0.50000  1.0000 0.6750098868
C   C15       1.0  0.61060  0.00000  0.75000  1.0000 0.6747120424
C   C16       1.0  0.38940  0.00000  0.25000  1.0000 0.6750098868
C   C17       1.0  0.04380  0.73920  0.07730  1.0000 -0.0370816476
C   C18       1.0  0.95620  0.26080  0.57730  1.0000 -0.0370816476
C   C19       1.0  0.26080  0.04380  0.82730  1.0000 -0.0370816476
C   C20       1.0  0.73920  0.95620  0.32730  1.0000 -0.0370816476
C   C21       1.0  0.95620  0.73920  0.92270  1.0000 -0.0370816476
C   C22       1.0  0.04380  0.26080  0.42270  1.0000 -0.0370816476
C   C23       1.0  0.73920  0.04380  0.17270  1.0000 -0.0370816476
C   C24       1.0  0.26080  0.95620  0.67270  1.0000 -0.0370816476
C   C25       1.0  0.08680  0.81600  0.16050  1.0000 0.6515661879
C   C26       1.0  0.91320  0.18400  0.66050  1.0000 0.6515661879
C   C27       1.0  0.18400  0.08680  0.91050  1.0000 0.6515661879
C   C28       1.0  0.81600  0.91320  0.41050  1.0000 0.6515661879
C   C29       1.0  0.91320  0.81600  0.83950  1.0000 0.6515661879
C   C30       1.0  0.08680  0.18400  0.33950  1.0000 0.6515661879
C   C31       1.0  0.81600  0.08680  0.08950  1.0000 0.6515661879
C   C32       1.0  0.18400  0.91320  0.58950  1.0000 0.6515661879
C   C33       1.0  0.00000  0.80700  0.00000  1.0000 -0.1059988485
C   C34       1.0  0.00000  0.19300  0.50000  1.0000 -0.1059988485
C   C35       1.0  0.19300  0.00000  0.75000  1.0000 -0.1059988485
C   C36       1.0  0.80700  0.00000  0.25000  1.0000 -0.1059988485
O   O1        1.0  0.09430  0.75860  0.23714  1.0000 -0.6680250661
O   O2        1.0  0.90570  0.24140  0.73714  1.0000 -0.6680250661
O   O3        1.0  0.24140  0.09430  0.98714  1.0000 -0.6680250661
O   O4        1.0  0.75860  0.90570  0.48714  1.0000 -0.6680250661
O   O5        1.0  0.90570  0.75860  0.76286  1.0000 -0.6680250661
O   O6        1.0  0.09430  0.24140  0.26286  1.0000 -0.6680250661
O   O7        1.0  0.75860  0.09430  0.01286  1.0000 -0.6680250661
O   O8        1.0  0.24140  0.90570  0.51286  1.0000 -0.6680250661
O   O9        1.0  0.07190  0.33470  0.05825  1.0000 -0.6799304568
O   O10       1.0  0.92810  0.66530  0.55825  1.0000 -0.6799304568
O   O11       1.0  0.66530  0.07190  0.80825  1.0000 -0.6799304568
O   O12       1.0  0.33470  0.92810  0.30825  1.0000 -0.6799304568
O   O13       1.0  0.92810  0.33470  0.94175  1.0000 -0.6799304568
O   O14       1.0  0.07190  0.66530  0.44175  1.0000 -0.6799304568
O   O15       1.0  0.33470  0.07190  0.19175  1.0000 -0.6799304568
O   O16       1.0  0.66530  0.92810  0.69175  1.0000 -0.6799304568
O   O17       1.0  0.11160  0.93200  0.15040  1.0000 -0.6799304568
O   O18       1.0  0.88840  0.06800  0.65040  1.0000 -0.6799304568
O   O19       1.0  0.06800  0.11160  0.90040  1.0000 -0.6799304568
O   O20       1.0  0.93200  0.88840  0.40040  1.0000 -0.6799304568
O   O21       1.0  0.88840  0.93200  0.84960  1.0000 -0.6799304568
O   O22       1.0  0.11160  0.06800  0.34960  1.0000 -0.6799304568
O   O23       1.0  0.93200  0.11160  0.09960  1.0000 -0.6799304568
O   O24       1.0  0.06800  0.88840  0.59960  1.0000 -0.6799304568
