# DDEC6 charges by PACMAN v1.1 (https://github.com/mtap-research/PACMAN-charge/)
data_2010[Mn][nan]3[ASR]12
_chemical_formula_sum              "Mn8 H64 C112 O32"
_cell_length_a       13.819
_cell_length_b       15.382
_cell_length_c       24.383
_cell_angle_alpha    100.41
_cell_angle_beta     95.25
_cell_angle_gamma    101.09

_symmetry_space_group_name_H-M    "P 1"
_symmetry_Int_Tables_number       1

loop_
  _symmetry_equiv_pos_as_xyz
  'x, y, z'

loop_
  _atom_site_type_symbol
  _atom_site_label
  _atom_site_symmetry_multiplicity
  _atom_site_fract_x
  _atom_site_fract_y
  _atom_site_fract_z
  _atom_site_occupancy
  _atom_site_charge
Mn  Mn1       1.0  0.82541  0.35638  0.67658  1.0000 1.0171514309
Mn  Mn2       1.0  0.17459  0.64362  0.32342  1.0000 1.0171514309
Mn  Mn3       1.0  0.63215  0.44381  0.72615  1.0000 1.0322569764
Mn  Mn4       1.0  0.36785  0.55619  0.27385  1.0000 1.0322569764
Mn  Mn5       1.0  0.39127  0.34596  0.67525  1.0000 0.9890643513
Mn  Mn6       1.0  0.60873  0.65404  0.32475  1.0000 0.9890643513
Mn  Mn7       1.0  0.18134  0.30157  0.73739  1.0000 1.0640932477
Mn  Mn8       1.0  0.81866  0.69843  0.26261  1.0000 1.0640932477
H   H1        1.0  0.71240  0.64750  0.68800  1.0000 0.1196627648
H   H2        1.0  0.28760  0.35250  0.31200  1.0000 0.1196627648
H   H3        1.0  0.73930  0.80090  0.69020  1.0000 0.1116035512
H   H4        1.0  0.26070  0.19910  0.30980  1.0000 0.1116035512
H   H5        1.0  0.01960  0.80420  0.66600  1.0000 0.1116035512
H   H6        1.0  0.98040  0.19580  0.33400  1.0000 0.1116035512
H   H7        1.0  0.99370  0.65230  0.66580  1.0000 0.1196627648
H   H8        1.0  0.00630  0.34770  0.33420  1.0000 0.1196627648
H   H9        1.0  0.76120  0.92240  0.64900  1.0000 0.1116035512
H   H10       1.0  0.23880  0.07760  0.35100  1.0000 0.1116035512
H   H11       1.0  0.78860  0.07560  0.65350  1.0000 0.1116035512
H   H12       1.0  0.21140  0.92440  0.34650  1.0000 0.1116035512
H   H13       1.0  0.06730  0.10320  0.71580  1.0000 0.1196627648
H   H14       1.0  0.93270  0.89680  0.28420  1.0000 0.1196627648
H   H15       1.0  0.04030  0.95040  0.71330  1.0000 0.1116035512
H   H16       1.0  0.95970  0.04960  0.28670  1.0000 0.1116035512
H   H17       1.0  0.78130  0.52740  0.89890  1.0000 0.1116035512
H   H18       1.0  0.21870  0.47260  0.10110  1.0000 0.1116035512
H   H19       1.0  0.86360  0.55500  0.98850  1.0000 0.1044374301
H   H20       1.0  0.13640  0.44500  0.01150  1.0000 0.1044374301
H   H21       1.0  0.06580  0.42390  0.93090  1.0000 0.1116035512
H   H22       1.0  0.93420  0.57610  0.06910  1.0000 0.1116035512
H   H23       1.0  0.97890  0.38840  0.84370  1.0000 0.1296927875
H   H24       1.0  0.02110  0.61160  0.15630  1.0000 0.1296927875
H   H25       1.0  0.45060  0.23710  0.55730  1.0000 0.1296927875
H   H26       1.0  0.54940  0.76290  0.44270  1.0000 0.1296927875
H   H27       1.0  0.40860  0.10270  0.49230  1.0000 0.1116035512
H   H28       1.0  0.59140  0.89730  0.50770  1.0000 0.1116035512
H   H29       1.0  0.63140  0.01670  0.56500  1.0000 0.1116035512
H   H30       1.0  0.36860  0.98330  0.43500  1.0000 0.1116035512
H   H31       1.0  0.67350  0.14970  0.62950  1.0000 0.1196627648
H   H32       1.0  0.32650  0.85030  0.37050  1.0000 0.1196627648
H   H33       1.0  0.31430  0.41180  0.86460  1.0000 0.1196627648
H   H34       1.0  0.68570  0.58820  0.13540  1.0000 0.1196627648
H   H35       1.0  0.34330  0.46720  0.95980  1.0000 0.1116035512
H   H36       1.0  0.65670  0.53280  0.04020  1.0000 0.1116035512
H   H37       1.0  0.63000  0.47730  0.95570  1.0000 0.1116035512
H   H38       1.0  0.37000  0.52270  0.04430  1.0000 0.1116035512
H   H39       1.0  0.60180  0.43090  0.86090  1.0000 0.1296927875
H   H40       1.0  0.39820  0.56910  0.13910  1.0000 0.1296927875
H   H41       1.0  0.30650  0.59260  0.68580  1.0000 0.1296927875
H   H42       1.0  0.69350  0.40740  0.31420  1.0000 0.1296927875
H   H43       1.0  0.25920  0.72750  0.68200  1.0000 0.1116035512
H   H44       1.0  0.74080  0.27250  0.31800  1.0000 0.1116035512
H   H45       1.0  0.54080  0.86170  0.73520  1.0000 0.1116035512
H   H46       1.0  0.45920  0.13830  0.26480  1.0000 0.1116035512
H   H47       1.0  0.58610  0.72650  0.74120  1.0000 0.1116035512
H   H48       1.0  0.41390  0.27350  0.25880  1.0000 0.1116035512
H   H49       1.0  0.24650  0.88360  0.74030  1.0000 0.1116035512
H   H50       1.0  0.75350  0.11640  0.25970  1.0000 0.1116035512
H   H51       1.0  0.21240  0.02320  0.73660  1.0000 0.1116035512
H   H52       1.0  0.78760  0.97680  0.26340  1.0000 0.1116035512
H   H53       1.0  0.43850  0.07350  0.64940  1.0000 0.1116035512
H   H54       1.0  0.56150  0.92650  0.35060  1.0000 0.1116035512
H   H55       1.0  0.48040  0.94120  0.65950  1.0000 0.1116035512
H   H56       1.0  0.51960  0.05880  0.34050  1.0000 0.1116035512
H   H57       1.0  0.23660  0.40340  0.51580  1.0000 0.1196627648
H   H58       1.0  0.76340  0.59660  0.48420  1.0000 0.1196627648
H   H59       1.0  0.13290  0.46660  0.46200  1.0000 0.1116035512
H   H60       1.0  0.86710  0.53340  0.53800  1.0000 0.1116035512
H   H61       1.0  0.96230  0.48170  0.58370  1.0000 0.1116035512
H   H62       1.0  0.03770  0.51830  0.41630  1.0000 0.1116035512
H   H63       1.0  0.06490  0.41870  0.63570  1.0000 0.1296927875
H   H64       1.0  0.93510  0.58130  0.36430  1.0000 0.1296927875
C   C1        1.0  0.85050  0.63310  0.67737  1.0000 -0.0277605568
C   C2        1.0  0.14950  0.36690  0.32263  1.0000 -0.0277605568
C   C3        1.0  0.77530  0.67870  0.68410  1.0000 -0.0917107851
C   C4        1.0  0.22470  0.32130  0.31590  1.0000 -0.0917107851
C   C5        1.0  0.79150  0.77130  0.68510  1.0000 -0.1486998597
C   C6        1.0  0.20850  0.22870  0.31490  1.0000 -0.1486998597
C   C7        1.0  0.88150  0.81940  0.67890  1.0000 0.0771249936
C   C8        1.0  0.11850  0.18060  0.32110  1.0000 0.0771249936
C   C9        1.0  0.95730  0.77330  0.67110  1.0000 -0.1561417081
C   C10       1.0  0.04270  0.22670  0.32890  1.0000 -0.1561417081
C   C11       1.0  0.94140  0.68180  0.67070  1.0000 -0.0996244256
C   C12       1.0  0.05860  0.31820  0.32930  1.0000 -0.0996244256
C   C13       1.0  0.89890  0.91890  0.68040  1.0000 0.0771249936
C   C14       1.0  0.10110  0.08110  0.31960  1.0000 0.0771249936
C   C15       1.0  0.82400  0.95810  0.66280  1.0000 -0.1561417081
C   C16       1.0  0.17600  0.04190  0.33720  1.0000 -0.1561417081
C   C17       1.0  0.84090  0.05070  0.66560  1.0000 -0.1072967857
C   C18       1.0  0.15910  0.94930  0.33440  1.0000 -0.1072967857
C   C19       1.0  0.93120  0.10660  0.68519  1.0000 -0.0214601395
C   C20       1.0  0.06880  0.89340  0.31481  1.0000 -0.0214601395
C   C21       1.0  0.00440  0.06750  0.70230  1.0000 -0.0996244256
C   C22       1.0  0.99560  0.93250  0.29770  1.0000 -0.0996244256
C   C23       1.0  0.98810  0.97470  0.70040  1.0000 -0.1486998597
C   C24       1.0  0.01190  0.02530  0.29960  1.0000 -0.1486998597
C   C25       1.0  0.83340  0.53410  0.67716  1.0000 0.5708167112
C   C26       1.0  0.16660  0.46590  0.32284  1.0000 0.5708167112
C   C27       1.0  0.94710  0.20750  0.68729  1.0000 0.6075050986
C   C28       1.0  0.05290  0.79250  0.31271  1.0000 0.6075050986
C   C29       1.0  0.86920  0.45110  0.86162  1.0000 -0.0277605568
C   C30       1.0  0.13080  0.54890  0.13838  1.0000 -0.0277605568
C   C31       1.0  0.83730  0.50360  0.90550  1.0000 -0.0996244256
C   C32       1.0  0.16270  0.49640  0.09450  1.0000 -0.0996244256
C   C33       1.0  0.88780  0.52120  0.95930  1.0000 -0.1561417081
C   C34       1.0  0.11220  0.47880  0.04070  1.0000 -0.1561417081
C   C35       1.0  0.97300  0.49010  0.97110  1.0000 0.0716047982
C   C36       1.0  0.02700  0.50990  0.02890  1.0000 0.0716047982
C   C37       1.0  0.00630  0.44270  0.92540  1.0000 -0.1486998597
C   C38       1.0  0.99370  0.55730  0.07460  1.0000 -0.1486998597
C   C39       1.0  0.95480  0.42260  0.87280  1.0000 -0.0917107851
C   C40       1.0  0.04520  0.57740  0.12720  1.0000 -0.0917107851
C   C41       1.0  0.81400  0.43120  0.80316  1.0000 0.5890465704
C   C42       1.0  0.18600  0.56880  0.19684  1.0000 0.5890465704
C   C43       1.0  0.56550  0.20680  0.60053  1.0000 -0.0277605568
C   C44       1.0  0.43450  0.79320  0.39947  1.0000 -0.0277605568
C   C45       1.0  0.48710  0.19260  0.55927  1.0000 -0.0917107851
C   C46       1.0  0.51290  0.80740  0.44073  1.0000 -0.0917107851
C   C47       1.0  0.46210  0.11150  0.52019  1.0000 -0.1486998597
C   C48       1.0  0.53790  0.88850  0.47981  1.0000 -0.1486998597
C   C49       1.0  0.51390  0.04360  0.52136  1.0000 0.0716047982
C   C50       1.0  0.48610  0.95640  0.47864  1.0000 0.0716047982
C   C51       1.0  0.59390  0.06060  0.56310  1.0000 -0.1561417081
C   C52       1.0  0.40610  0.93940  0.43690  1.0000 -0.1561417081
C   C53       1.0  0.61930  0.14030  0.60192  1.0000 -0.0996244256
C   C54       1.0  0.38070  0.85970  0.39808  1.0000 -0.0996244256
C   C55       1.0  0.59170  0.29150  0.64480  1.0000 0.5890465704
C   C56       1.0  0.40830  0.70850  0.35520  1.0000 0.584010994
C   C57       1.0  0.45480  0.41490  0.85235  1.0000 -0.0214601395
C   C58       1.0  0.54520  0.58510  0.14765  1.0000 -0.0214601395
C   C59       1.0  0.37930  0.42640  0.88277  1.0000 -0.1072967857
C   C60       1.0  0.62070  0.57360  0.11723  1.0000 -0.1072967857
C   C61       1.0  0.39680  0.45960  0.94033  1.0000 -0.1561417081
C   C62       1.0  0.60320  0.54040  0.05967  1.0000 -0.1561417081
C   C63       1.0  0.49010  0.48150  0.96910  1.0000 0.0771249936
C   C64       1.0  0.50990  0.51850  0.03090  1.0000 0.0771249936
C   C65       1.0  0.56530  0.46650  0.93760  1.0000 -0.1561417081
C   C66       1.0  0.43470  0.53350  0.06240  1.0000 -0.1486998597
C   C67       1.0  0.54830  0.43660  0.88070  1.0000 -0.0996244256
C   C68       1.0  0.45170  0.56340  0.11930  1.0000 -0.0996244256
C   C69       1.0  0.43620  0.38120  0.79003  1.0000 0.5950745499
C   C70       1.0  0.56380  0.61880  0.20997  1.0000 0.5950745499
C   C71       1.0  0.45130  0.64540  0.71110  1.0000 -0.0277605568
C   C72       1.0  0.54870  0.35460  0.28890  1.0000 -0.0277605568
C   C73       1.0  0.35390  0.64650  0.69510  1.0000 -0.0917107851
C   C74       1.0  0.64610  0.35350  0.30490  1.0000 -0.0917107851
C   C75       1.0  0.32570  0.72760  0.69250  1.0000 -0.1486998597
C   C76       1.0  0.67430  0.27240  0.30750  1.0000 -0.1486998597
C   C77       1.0  0.39520  0.80890  0.70540  1.0000 0.0716047982
C   C78       1.0  0.60480  0.19110  0.29460  1.0000 0.0716047982
C   C79       1.0  0.49360  0.80770  0.72460  1.0000 -0.1561417081
C   C80       1.0  0.50640  0.19230  0.27540  1.0000 -0.1561417081
C   C81       1.0  0.52090  0.72670  0.72780  1.0000 -0.1072967857
C   C82       1.0  0.47910  0.27330  0.27220  1.0000 -0.1072967857
C   C83       1.0  0.36620  0.89570  0.69960  1.0000 0.0646220303
C   C84       1.0  0.63380  0.10430  0.30040  1.0000 0.0646220303
C   C85       1.0  0.28690  0.92250  0.72260  1.0000 -0.1486998597
C   C86       1.0  0.71310  0.07750  0.27740  1.0000 -0.1486998597
C   C87       1.0  0.26570  0.00610  0.72010  1.0000 -0.1072967857
C   C88       1.0  0.73430  0.99390  0.27990  1.0000 -0.1072967857
C   C89       1.0  0.32340  0.06440  0.69310  1.0000 -0.0277605568
C   C90       1.0  0.67660  0.93560  0.30690  1.0000 -0.0277605568
C   C91       1.0  0.40090  0.03650  0.66930  1.0000 -0.0996244256
C   C92       1.0  0.59910  0.96350  0.33070  1.0000 -0.0996244256
C   C93       1.0  0.42430  0.95600  0.67390  1.0000 -0.1486998597
C   C94       1.0  0.57570  0.04400  0.32610  1.0000 -0.1486998597
C   C95       1.0  0.48290  0.55670  0.71120  1.0000 0.584010994
C   C96       1.0  0.51710  0.44330  0.28880  1.0000 0.584010994
C   C97       1.0  0.30550  0.15730  0.69127  1.0000 0.5890465704
C   C98       1.0  0.69450  0.84270  0.30873  1.0000 0.5890465704
C   C99       1.0  0.16080  0.40250  0.58039  1.0000 -0.0214601395
C   C100      1.0  0.83920  0.59750  0.41961  1.0000 -0.0214601395
C   C101      1.0  0.18000  0.41820  0.52970  1.0000 -0.0996244256
C   C102      1.0  0.82000  0.58180  0.47030  1.0000 -0.0996244256
C   C103      1.0  0.11740  0.45640  0.49690  1.0000 -0.1486998597
C   C104      1.0  0.88260  0.54360  0.50310  1.0000 -0.1486998597
C   C105      1.0  0.03280  0.47890  0.51641  1.0000 0.0716047982
C   C106      1.0  0.96720  0.52110  0.48359  1.0000 0.0716047982
C   C107      1.0  0.01710  0.46500  0.56870  1.0000 -0.1403623962
C   C108      1.0  0.98290  0.53500  0.43130  1.0000 -0.1403623962
C   C109      1.0  0.07910  0.42740  0.60030  1.0000 -0.0917107851
C   C110      1.0  0.92090  0.57260  0.39970  1.0000 -0.0917107851
C   C111      1.0  0.23110  0.36430  0.61483  1.0000 0.5890465704
C   C112      1.0  0.76890  0.63570  0.38517  1.0000 0.5890465704
O   O1        1.0  0.74560  0.49139  0.67726  1.0000 -0.5811305785
O   O2        1.0  0.25440  0.50861  0.32274  1.0000 -0.5811305785
O   O3        1.0  0.90450  0.49520  0.67647  1.0000 -0.5299971743
O   O4        1.0  0.09550  0.50480  0.32353  1.0000 -0.5299971743
O   O5        1.0  0.87270  0.23592  0.67049  1.0000 -0.5617702671
O   O6        1.0  0.12730  0.76408  0.32951  1.0000 -0.5617702671
O   O7        1.0  0.02910  0.25672  0.70540  1.0000 -0.5617702671
O   O8        1.0  0.97090  0.74328  0.29460  1.0000 -0.5617702671
O   O9        1.0  0.73640  0.46190  0.79679  1.0000 -0.5617702671
O   O10       1.0  0.26360  0.53810  0.20321  1.0000 -0.5617702671
O   O11       1.0  0.85090  0.38747  0.76508  1.0000 -0.5494640538
O   O12       1.0  0.14910  0.61253  0.23492  1.0000 -0.5494640538
O   O13       1.0  0.66646  0.30525  0.68169  1.0000 -0.5617702671
O   O14       1.0  0.33354  0.69475  0.31831  1.0000 -0.5617702671
O   O15       1.0  0.53753  0.35040  0.64584  1.0000 -0.5494640538
O   O16       1.0  0.46247  0.64960  0.35416  1.0000 -0.5494640538
O   O17       1.0  0.50923  0.37432  0.76344  1.0000 -0.5494640538
O   O18       1.0  0.49077  0.62568  0.23656  1.0000 -0.5494640538
O   O19       1.0  0.34916  0.36086  0.76569  1.0000 -0.5722150349
O   O20       1.0  0.65084  0.63914  0.23431  1.0000 -0.5722150349
O   O21       1.0  0.41900  0.48734  0.68951  1.0000 -0.5376843059
O   O22       1.0  0.58100  0.51266  0.31049  1.0000 -0.5376843059
O   O23       1.0  0.57020  0.55861  0.73113  1.0000 -0.5494640538
O   O24       1.0  0.42980  0.44139  0.26887  1.0000 -0.5494640538
O   O25       1.0  0.36790  0.20810  0.67144  1.0000 -0.5197173798
O   O26       1.0  0.63210  0.79190  0.32856  1.0000 -0.5299971743
O   O27       1.0  0.22976  0.17793  0.71195  1.0000 -0.5811305785
O   O28       1.0  0.77024  0.82207  0.28805  1.0000 -0.5811305785
O   O29       1.0  0.30750  0.34600  0.59533  1.0000 -0.5197173798
O   O30       1.0  0.69250  0.65400  0.40467  1.0000 -0.5197173798
O   O31       1.0  0.21470  0.35700  0.66452  1.0000 -0.5998098695
O   O32       1.0  0.78530  0.64300  0.33548  1.0000 -0.5998098695
