# DDEC6 charges by PACMAN v1.1 (https://github.com/mtap-research/PACMAN-charge/)
data_2010[Fe][the]3[ASR]1
_chemical_formula_sum              "Fe12 H24 C72 N96 Cl3"
_cell_length_a       18.8754
_cell_length_b       18.8754
_cell_length_c       18.8754
_cell_angle_alpha    90
_cell_angle_beta     90
_cell_angle_gamma    90

_symmetry_space_group_name_H-M    "P 1"
_symmetry_Int_Tables_number       1

loop_
  _symmetry_equiv_pos_as_xyz
  'x, y, z'

loop_
  _atom_site_type_symbol
  _atom_site_label
  _atom_site_symmetry_multiplicity
  _atom_site_fract_x
  _atom_site_fract_y
  _atom_site_fract_z
  _atom_site_occupancy
  _atom_site_charge
Fe  Fe1       1.0  0.13538  0.50000  0.00000  1.0000 0.4559966296
Fe  Fe2       1.0  0.86462  0.50000  0.00000  1.0000 0.4559966296
Fe  Fe3       1.0  0.00000  0.13538  0.50000  1.0000 0.4546073546
Fe  Fe4       1.0  0.00000  0.86462  0.50000  1.0000 0.4559966296
Fe  Fe5       1.0  0.50000  0.00000  0.13538  1.0000 0.4546073546
Fe  Fe6       1.0  0.50000  0.00000  0.86462  1.0000 0.4559966296
Fe  Fe7       1.0  0.50000  0.13538  0.00000  1.0000 0.4559966296
Fe  Fe8       1.0  0.50000  0.86462  0.00000  1.0000 0.4559966296
Fe  Fe9       1.0  0.13538  0.00000  0.50000  1.0000 0.4546073546
Fe  Fe10      1.0  0.86462  0.00000  0.50000  1.0000 0.4559966296
Fe  Fe11      1.0  0.00000  0.50000  0.86462  1.0000 0.4559966296
Fe  Fe12      1.0  0.00000  0.50000  0.13538  1.0000 0.4559966296
H   H1        1.0  0.26572  0.26572  0.10595  1.0000 0.1345174928
H   H2        1.0  0.73428  0.73428  0.10595  1.0000 0.1345174928
H   H3        1.0  0.73428  0.26572  0.89405  1.0000 0.1345174928
H   H4        1.0  0.26572  0.73428  0.89405  1.0000 0.1345174928
H   H5        1.0  0.10595  0.26572  0.26572  1.0000 0.1345174928
H   H6        1.0  0.10595  0.73428  0.73428  1.0000 0.1345174928
H   H7        1.0  0.89405  0.73428  0.26572  1.0000 0.1345174928
H   H8        1.0  0.89405  0.26572  0.73428  1.0000 0.1345174928
H   H9        1.0  0.26572  0.10595  0.26572  1.0000 0.1345174928
H   H10       1.0  0.73428  0.10595  0.73428  1.0000 0.1345174928
H   H11       1.0  0.26572  0.89405  0.73428  1.0000 0.1345174928
H   H12       1.0  0.73428  0.89405  0.26572  1.0000 0.1345174928
H   H13       1.0  0.26572  0.26572  0.89405  1.0000 0.1345174928
H   H14       1.0  0.73428  0.73428  0.89405  1.0000 0.1345174928
H   H15       1.0  0.26572  0.73428  0.10595  1.0000 0.1345174928
H   H16       1.0  0.73428  0.26572  0.10595  1.0000 0.1345174928
H   H17       1.0  0.26572  0.10595  0.73428  1.0000 0.1345174928
H   H18       1.0  0.73428  0.10595  0.26572  1.0000 0.1345174928
H   H19       1.0  0.73428  0.89405  0.73428  1.0000 0.1345174928
H   H20       1.0  0.26572  0.89405  0.26572  1.0000 0.1345174928
H   H21       1.0  0.10595  0.26572  0.73428  1.0000 0.1345174928
H   H22       1.0  0.10595  0.73428  0.26572  1.0000 0.1345174928
H   H23       1.0  0.89405  0.26572  0.26572  1.0000 0.1345174928
H   H24       1.0  0.89405  0.73428  0.73428  1.0000 0.1345174928
C   C1        1.0  0.15160  0.33575  0.15160  1.0000 0.2218307947
C   C2        1.0  0.84840  0.66425  0.15160  1.0000 0.2218307947
C   C3        1.0  0.84840  0.33575  0.84840  1.0000 0.2218307947
C   C4        1.0  0.15160  0.66425  0.84840  1.0000 0.2218307947
C   C5        1.0  0.15160  0.15160  0.33575  1.0000 0.2218307947
C   C6        1.0  0.15160  0.84840  0.66425  1.0000 0.2218307947
C   C7        1.0  0.84840  0.84840  0.33575  1.0000 0.2218307947
C   C8        1.0  0.84840  0.15160  0.66425  1.0000 0.2218307947
C   C9        1.0  0.33575  0.15160  0.15160  1.0000 0.2218307947
C   C10       1.0  0.66425  0.15160  0.84840  1.0000 0.2218307947
C   C11       1.0  0.33575  0.84840  0.84840  1.0000 0.2218307947
C   C12       1.0  0.66425  0.84840  0.15160  1.0000 0.2218307947
C   C13       1.0  0.33575  0.15160  0.84840  1.0000 0.2218307947
C   C14       1.0  0.66425  0.84840  0.84840  1.0000 0.2218307947
C   C15       1.0  0.33575  0.84840  0.15160  1.0000 0.2218307947
C   C16       1.0  0.66425  0.15160  0.15160  1.0000 0.2218307947
C   C17       1.0  0.15160  0.15160  0.66425  1.0000 0.2218307947
C   C18       1.0  0.84840  0.15160  0.33575  1.0000 0.2218307947
C   C19       1.0  0.84840  0.84840  0.66425  1.0000 0.2218307947
C   C20       1.0  0.15160  0.84840  0.33575  1.0000 0.2218307947
C   C21       1.0  0.15160  0.33575  0.84840  1.0000 0.2218307947
C   C22       1.0  0.15160  0.66425  0.15160  1.0000 0.2218307947
C   C23       1.0  0.84840  0.33575  0.15160  1.0000 0.2218307947
C   C24       1.0  0.84840  0.66425  0.84840  1.0000 0.2218307947
C   C25       1.0  0.18004  0.27115  0.18004  1.0000 0.0494699037
C   C26       1.0  0.81996  0.72885  0.18004  1.0000 0.0494699037
C   C27       1.0  0.81996  0.27115  0.81996  1.0000 0.0494699037
C   C28       1.0  0.18004  0.72885  0.81996  1.0000 0.0494699037
C   C29       1.0  0.18004  0.18004  0.27115  1.0000 0.0494699037
C   C30       1.0  0.18004  0.81996  0.72885  1.0000 0.0494699037
C   C31       1.0  0.81996  0.81996  0.27115  1.0000 0.0494699037
C   C32       1.0  0.81996  0.18004  0.72885  1.0000 0.0494699037
C   C33       1.0  0.27115  0.18004  0.18004  1.0000 0.0494699037
C   C34       1.0  0.72885  0.18004  0.81996  1.0000 0.0494699037
C   C35       1.0  0.27115  0.81996  0.81996  1.0000 0.0494699037
C   C36       1.0  0.72885  0.81996  0.18004  1.0000 0.0494699037
C   C37       1.0  0.27115  0.18004  0.81996  1.0000 0.0494699037
C   C38       1.0  0.72885  0.81996  0.81996  1.0000 0.0494699037
C   C39       1.0  0.27115  0.81996  0.18004  1.0000 0.0494699037
C   C40       1.0  0.72885  0.18004  0.18004  1.0000 0.0494699037
C   C41       1.0  0.18004  0.18004  0.72885  1.0000 0.0494699037
C   C42       1.0  0.81996  0.18004  0.27115  1.0000 0.0494699037
C   C43       1.0  0.81996  0.81996  0.72885  1.0000 0.0494699037
C   C44       1.0  0.18004  0.81996  0.27115  1.0000 0.0494699037
C   C45       1.0  0.18004  0.27115  0.81996  1.0000 0.0494699037
C   C46       1.0  0.18004  0.72885  0.18004  1.0000 0.0494699037
C   C47       1.0  0.81996  0.27115  0.18004  1.0000 0.0494699037
C   C48       1.0  0.81996  0.72885  0.81996  1.0000 0.0494699037
C   C49       1.0  0.24227  0.24227  0.14984  1.0000 -0.1297992709
C   C50       1.0  0.75773  0.75773  0.14984  1.0000 -0.1297992709
C   C51       1.0  0.75773  0.24227  0.85016  1.0000 -0.1297992709
C   C52       1.0  0.24227  0.75773  0.85016  1.0000 -0.1297992709
C   C53       1.0  0.14984  0.24227  0.24227  1.0000 -0.1297992709
C   C54       1.0  0.14984  0.75773  0.75773  1.0000 -0.1297992709
C   C55       1.0  0.85016  0.75773  0.24227  1.0000 -0.1297992709
C   C56       1.0  0.85016  0.24227  0.75773  1.0000 -0.1297992709
C   C57       1.0  0.24227  0.14984  0.24227  1.0000 -0.1297992709
C   C58       1.0  0.75773  0.14984  0.75773  1.0000 -0.1297992709
C   C59       1.0  0.24227  0.85016  0.75773  1.0000 -0.1297992709
C   C60       1.0  0.75773  0.85016  0.24227  1.0000 -0.1297992709
C   C61       1.0  0.24227  0.24227  0.85016  1.0000 -0.1297992709
C   C62       1.0  0.75773  0.75773  0.85016  1.0000 -0.1297992709
C   C63       1.0  0.24227  0.75773  0.14984  1.0000 -0.1297992709
C   C64       1.0  0.75773  0.24227  0.14984  1.0000 -0.1297992709
C   C65       1.0  0.24227  0.14984  0.75773  1.0000 -0.1297992709
C   C66       1.0  0.75773  0.14984  0.24227  1.0000 -0.1297992709
C   C67       1.0  0.75773  0.85016  0.75773  1.0000 -0.1297992709
C   C68       1.0  0.24227  0.85016  0.24227  1.0000 -0.1297992709
C   C69       1.0  0.14984  0.24227  0.75773  1.0000 -0.1297992709
C   C70       1.0  0.14984  0.75773  0.24227  1.0000 -0.1297992709
C   C71       1.0  0.85016  0.24227  0.24227  1.0000 -0.1297992709
C   C72       1.0  0.85016  0.75773  0.75773  1.0000 -0.1297992709
N   N1        1.0  0.13108  0.42056  0.08167  1.0000 -0.0104439774
N   N2        1.0  0.86892  0.57944  0.08167  1.0000 -0.0104439774
N   N3        1.0  0.86892  0.42056  0.91833  1.0000 -0.0104439774
N   N4        1.0  0.13108  0.57944  0.91833  1.0000 -0.0104439774
N   N5        1.0  0.08167  0.13108  0.42056  1.0000 -0.0104439774
N   N6        1.0  0.08167  0.86892  0.57944  1.0000 -0.0104439774
N   N7        1.0  0.91833  0.86892  0.42056  1.0000 -0.0104439774
N   N8        1.0  0.91833  0.13108  0.57944  1.0000 -0.0104439774
N   N9        1.0  0.42056  0.08167  0.13108  1.0000 -0.0104439774
N   N10       1.0  0.57944  0.08167  0.86892  1.0000 -0.0104439774
N   N11       1.0  0.42056  0.91833  0.86892  1.0000 -0.0104439774
N   N12       1.0  0.57944  0.91833  0.13108  1.0000 -0.0104439774
N   N13       1.0  0.42056  0.13108  0.91833  1.0000 -0.0104439774
N   N14       1.0  0.57944  0.86892  0.91833  1.0000 -0.0104439774
N   N15       1.0  0.42056  0.86892  0.08167  1.0000 -0.0104439774
N   N16       1.0  0.57944  0.13108  0.08167  1.0000 -0.0104439774
N   N17       1.0  0.13108  0.08167  0.57944  1.0000 -0.0104439774
N   N18       1.0  0.86892  0.08167  0.42056  1.0000 -0.0104439774
N   N19       1.0  0.86892  0.91833  0.57944  1.0000 -0.0104439774
N   N20       1.0  0.13108  0.91833  0.42056  1.0000 -0.0104439774
N   N21       1.0  0.08167  0.42056  0.86892  1.0000 -0.0104439774
N   N22       1.0  0.08167  0.57944  0.13108  1.0000 -0.0104439774
N   N23       1.0  0.91833  0.42056  0.13108  1.0000 -0.0104439774
N   N24       1.0  0.91833  0.57944  0.86892  1.0000 -0.0104439774
N   N25       1.0  0.86892  0.57944  0.91833  1.0000 -0.0104439774
N   N26       1.0  0.13108  0.42056  0.91833  1.0000 -0.0104439774
N   N27       1.0  0.13108  0.57944  0.08167  1.0000 -0.0104439774
N   N28       1.0  0.86892  0.42056  0.08167  1.0000 -0.0104439774
N   N29       1.0  0.91833  0.86892  0.57944  1.0000 -0.0104439774
N   N30       1.0  0.91833  0.13108  0.42056  1.0000 -0.0104439774
N   N31       1.0  0.08167  0.13108  0.57944  1.0000 -0.0104439774
N   N32       1.0  0.08167  0.86892  0.42056  1.0000 -0.0104439774
N   N33       1.0  0.57944  0.91833  0.86892  1.0000 -0.0104439774
N   N34       1.0  0.42056  0.91833  0.13108  1.0000 -0.0104439774
N   N35       1.0  0.57944  0.08167  0.13108  1.0000 -0.0104439774
N   N36       1.0  0.42056  0.08167  0.86892  1.0000 -0.0104439774
N   N37       1.0  0.57944  0.86892  0.08167  1.0000 -0.0104439774
N   N38       1.0  0.42056  0.13108  0.08167  1.0000 -0.0104439774
N   N39       1.0  0.57944  0.13108  0.91833  1.0000 -0.0104439774
N   N40       1.0  0.42056  0.86892  0.91833  1.0000 -0.0104439774
N   N41       1.0  0.86892  0.91833  0.42056  1.0000 -0.0104439774
N   N42       1.0  0.13108  0.91833  0.57944  1.0000 -0.0104439774
N   N43       1.0  0.13108  0.08167  0.42056  1.0000 -0.0104439774
N   N44       1.0  0.86892  0.08167  0.57944  1.0000 -0.0104439774
N   N45       1.0  0.91833  0.57944  0.13108  1.0000 -0.0104439774
N   N46       1.0  0.91833  0.42056  0.86892  1.0000 -0.0104439774
N   N47       1.0  0.08167  0.57944  0.86892  1.0000 -0.0104439774
N   N48       1.0  0.08167  0.42056  0.13108  1.0000 -0.0104439774
N   N49       1.0  0.17569  0.36802  0.09165  1.0000 -0.21735778
N   N50       1.0  0.82431  0.63198  0.09165  1.0000 -0.21735778
N   N51       1.0  0.82431  0.36802  0.90835  1.0000 -0.21735778
N   N52       1.0  0.17569  0.63198  0.90835  1.0000 -0.21735778
N   N53       1.0  0.09165  0.17569  0.36802  1.0000 -0.21735778
N   N54       1.0  0.09165  0.82431  0.63198  1.0000 -0.21735778
N   N55       1.0  0.90835  0.82431  0.36802  1.0000 -0.21735778
N   N56       1.0  0.90835  0.17569  0.63198  1.0000 -0.21735778
N   N57       1.0  0.36802  0.09165  0.17569  1.0000 -0.21735778
N   N58       1.0  0.63198  0.09165  0.82431  1.0000 -0.21735778
N   N59       1.0  0.36802  0.90835  0.82431  1.0000 -0.21735778
N   N60       1.0  0.63198  0.90835  0.17569  1.0000 -0.21735778
N   N61       1.0  0.36802  0.17569  0.90835  1.0000 -0.21735778
N   N62       1.0  0.63198  0.82431  0.90835  1.0000 -0.21735778
N   N63       1.0  0.36802  0.82431  0.09165  1.0000 -0.21735778
N   N64       1.0  0.63198  0.17569  0.09165  1.0000 -0.21735778
N   N65       1.0  0.17569  0.09165  0.63198  1.0000 -0.21735778
N   N66       1.0  0.82431  0.09165  0.36802  1.0000 -0.21735778
N   N67       1.0  0.82431  0.90835  0.63198  1.0000 -0.21735778
N   N68       1.0  0.17569  0.90835  0.36802  1.0000 -0.21735778
N   N69       1.0  0.09165  0.36802  0.82431  1.0000 -0.21735778
N   N70       1.0  0.09165  0.63198  0.17569  1.0000 -0.21735778
N   N71       1.0  0.90835  0.36802  0.17569  1.0000 -0.21735778
N   N72       1.0  0.90835  0.63198  0.82431  1.0000 -0.21735778
N   N73       1.0  0.82431  0.63198  0.90835  1.0000 -0.21735778
N   N74       1.0  0.17569  0.36802  0.90835  1.0000 -0.21735778
N   N75       1.0  0.17569  0.63198  0.09165  1.0000 -0.21735778
N   N76       1.0  0.82431  0.36802  0.09165  1.0000 -0.21735778
N   N77       1.0  0.90835  0.82431  0.63198  1.0000 -0.21735778
N   N78       1.0  0.90835  0.17569  0.36802  1.0000 -0.21735778
N   N79       1.0  0.09165  0.17569  0.63198  1.0000 -0.21735778
N   N80       1.0  0.09165  0.82431  0.36802  1.0000 -0.21735778
N   N81       1.0  0.63198  0.90835  0.82431  1.0000 -0.21735778
N   N82       1.0  0.36802  0.90835  0.17569  1.0000 -0.21735778
N   N83       1.0  0.63198  0.09165  0.17569  1.0000 -0.21735778
N   N84       1.0  0.36802  0.09165  0.82431  1.0000 -0.21735778
N   N85       1.0  0.63198  0.82431  0.09165  1.0000 -0.21735778
N   N86       1.0  0.36802  0.17569  0.09165  1.0000 -0.21735778
N   N87       1.0  0.63198  0.17569  0.90835  1.0000 -0.21735778
N   N88       1.0  0.36802  0.82431  0.90835  1.0000 -0.21735778
N   N89       1.0  0.82431  0.90835  0.36802  1.0000 -0.21735778
N   N90       1.0  0.17569  0.90835  0.63198  1.0000 -0.21735778
N   N91       1.0  0.17569  0.09165  0.36802  1.0000 -0.21735778
N   N92       1.0  0.82431  0.09165  0.63198  1.0000 -0.21735778
N   N93       1.0  0.90835  0.63198  0.17569  1.0000 -0.21735778
N   N94       1.0  0.90835  0.36802  0.82431  1.0000 -0.21735778
N   N95       1.0  0.09165  0.63198  0.82431  1.0000 -0.21735778
N   N96       1.0  0.09165  0.36802  0.17569  1.0000 -0.21735778
Cl  Cl1       1.0  0.00000  0.50000  0.00000  1.0000 -0.3859204879
Cl  Cl2       1.0  0.00000  0.00000  0.50000  1.0000 -0.3859204879
Cl  Cl3       1.0  0.50000  0.00000  0.00000  1.0000 -0.3859204879
