# DDEC6 charges by PACMAN v1.1 (https://github.com/mtap-research/PACMAN-charge/)
data_2010[Cd][pts]3[ASR]1
_chemical_formula_sum              "Cd4 H104 C100 S8 N16 O16"
_cell_length_a       12.2731
_cell_length_b       12.2731
_cell_length_c       25.135
_cell_angle_alpha    90
_cell_angle_beta     90
_cell_angle_gamma    90

_symmetry_space_group_name_H-M    "P 1"
_symmetry_Int_Tables_number       1

loop_
  _symmetry_equiv_pos_as_xyz
  'x, y, z'

loop_
  _atom_site_type_symbol
  _atom_site_label
  _atom_site_symmetry_multiplicity
  _atom_site_fract_x
  _atom_site_fract_y
  _atom_site_fract_z
  _atom_site_occupancy
  _atom_site_charge
Cd  Cd1       1.0  0.50000  0.50000  0.67322  1.0000 0.615429967
Cd  Cd2       1.0  0.00000  0.00000  0.17322  1.0000 0.615429967
Cd  Cd3       1.0  0.00000  0.00000  0.82678  1.0000 0.615429967
Cd  Cd4       1.0  0.50000  0.50000  0.32678  1.0000 0.615429967
H   H1        1.0  0.66900  0.32300  0.61940  1.0000 0.0932631636
H   H2        1.0  0.33100  0.67700  0.61940  1.0000 0.0932631636
H   H3        1.0  0.17700  0.16900  0.11940  1.0000 0.0932631636
H   H4        1.0  0.82300  0.83100  0.11940  1.0000 0.0932631636
H   H5        1.0  0.68520  0.18500  0.55810  1.0000 0.1489580379
H   H6        1.0  0.31480  0.81500  0.55810  1.0000 0.1489580379
H   H7        1.0  0.31500  0.18520  0.05810  1.0000 0.1489580379
H   H8        1.0  0.68500  0.81480  0.05810  1.0000 0.1489580379
H   H9        1.0  0.38350  0.25460  0.50900  1.0000 0.1335962446
H   H10       1.0  0.61650  0.74540  0.50900  1.0000 0.1335962446
H   H11       1.0  0.24540  0.88350  0.00900  1.0000 0.1335962446
H   H12       1.0  0.75460  0.11650  0.00900  1.0000 0.1335962446
H   H13       1.0  0.37600  0.38790  0.57290  1.0000 0.0999386938
H   H14       1.0  0.62400  0.61210  0.57290  1.0000 0.0999386938
H   H15       1.0  0.11210  0.87600  0.07290  1.0000 0.0999386938
H   H16       1.0  0.88790  0.12400  0.07290  1.0000 0.0999386938
H   H17       1.0  0.39770  0.07470  0.47780  1.0000 0.0999386938
H   H18       1.0  0.60230  0.92530  0.47780  1.0000 0.0999386938
H   H19       1.0  0.42530  0.89770  0.97780  1.0000 0.0999386938
H   H20       1.0  0.57470  0.10230  0.97780  1.0000 0.0999386938
H   H21       1.0  0.44320  0.15790  0.43560  1.0000 0.0999386938
H   H22       1.0  0.55680  0.84210  0.43560  1.0000 0.0999386938
H   H23       1.0  0.34210  0.94320  0.93560  1.0000 0.0999386938
H   H24       1.0  0.65790  0.05680  0.93560  1.0000 0.0999386938
H   H25       1.0  0.35170  0.92350  0.41090  1.0000 0.0999386938
H   H26       1.0  0.64830  0.07650  0.41090  1.0000 0.0999386938
H   H27       1.0  0.57650  0.85170  0.91090  1.0000 0.0999386938
H   H28       1.0  0.42350  0.14830  0.91090  1.0000 0.0999386938
H   H29       1.0  0.43150  0.90720  0.36240  1.0000 0.0999386938
H   H30       1.0  0.56850  0.09280  0.36240  1.0000 0.0999386938
H   H31       1.0  0.59280  0.93150  0.86240  1.0000 0.0999386938
H   H32       1.0  0.40720  0.06850  0.86240  1.0000 0.0999386938
H   H33       1.0  0.16940  0.86370  0.24720  1.0000 0.0999386938
H   H34       1.0  0.83060  0.13630  0.24720  1.0000 0.0999386938
H   H35       1.0  0.63630  0.66940  0.74720  1.0000 0.0999386938
H   H36       1.0  0.36370  0.33060  0.74720  1.0000 0.0999386938
H   H37       1.0  0.29030  0.87130  0.31730  1.0000 0.137887291
H   H38       1.0  0.70970  0.12870  0.31730  1.0000 0.137887291
H   H39       1.0  0.62870  0.79030  0.81730  1.0000 0.137887291
H   H40       1.0  0.37130  0.20970  0.81730  1.0000 0.137887291
H   H41       1.0  0.24980  0.19360  0.31600  1.0000 0.137887291
H   H42       1.0  0.75020  0.80640  0.31600  1.0000 0.137887291
H   H43       1.0  0.30640  0.74980  0.81600  1.0000 0.137887291
H   H44       1.0  0.69360  0.25020  0.81600  1.0000 0.137887291
H   H45       1.0  0.12830  0.17300  0.24770  1.0000 0.0932631636
H   H46       1.0  0.87170  0.82700  0.24770  1.0000 0.0932631636
H   H47       1.0  0.32700  0.62830  0.74770  1.0000 0.0932631636
H   H48       1.0  0.67300  0.37170  0.74770  1.0000 0.0932631636
H   H49       1.0  0.25870  0.52080  0.69750  1.0000 0.1489580379
H   H50       1.0  0.74130  0.47920  0.69750  1.0000 0.1489580379
H   H51       1.0  0.97920  0.75870  0.19750  1.0000 0.1489580379
H   H52       1.0  0.02080  0.24130  0.19750  1.0000 0.1489580379
H   H53       1.0  0.83100  0.17700  0.88060  1.0000 0.0932631636
H   H54       1.0  0.16900  0.82300  0.88060  1.0000 0.0932631636
H   H55       1.0  0.32300  0.33100  0.38060  1.0000 0.0932631636
H   H56       1.0  0.67700  0.66900  0.38060  1.0000 0.0932631636
H   H57       1.0  0.81480  0.31500  0.94190  1.0000 0.1489580379
H   H58       1.0  0.18520  0.68500  0.94190  1.0000 0.1489580379
H   H59       1.0  0.18500  0.31480  0.44190  1.0000 0.1489580379
H   H60       1.0  0.81500  0.68520  0.44190  1.0000 0.1489580379
H   H61       1.0  0.11650  0.24540  0.99100  1.0000 0.1335962446
H   H62       1.0  0.88350  0.75460  0.99100  1.0000 0.1335962446
H   H63       1.0  0.25460  0.61650  0.49100  1.0000 0.1335962446
H   H64       1.0  0.74540  0.38350  0.49100  1.0000 0.1335962446
H   H65       1.0  0.12400  0.11210  0.92710  1.0000 0.0999386938
H   H66       1.0  0.87600  0.88790  0.92710  1.0000 0.0999386938
H   H67       1.0  0.38790  0.62400  0.42710  1.0000 0.0999386938
H   H68       1.0  0.61210  0.37600  0.42710  1.0000 0.0999386938
H   H69       1.0  0.10230  0.42530  0.02220  1.0000 0.0999386938
H   H70       1.0  0.89770  0.57470  0.02220  1.0000 0.0999386938
H   H71       1.0  0.07470  0.60230  0.52220  1.0000 0.0999386938
H   H72       1.0  0.92530  0.39770  0.52220  1.0000 0.0999386938
H   H73       1.0  0.05680  0.34210  0.06440  1.0000 0.0999386938
H   H74       1.0  0.94320  0.65790  0.06440  1.0000 0.0999386938
H   H75       1.0  0.15790  0.55680  0.56440  1.0000 0.0999386938
H   H76       1.0  0.84210  0.44320  0.56440  1.0000 0.0999386938
H   H77       1.0  0.14830  0.57650  0.08910  1.0000 0.0999386938
H   H78       1.0  0.85170  0.42350  0.08910  1.0000 0.0999386938
H   H79       1.0  0.92350  0.64830  0.58910  1.0000 0.0999386938
H   H80       1.0  0.07650  0.35170  0.58910  1.0000 0.0999386938
H   H81       1.0  0.06850  0.59280  0.13760  1.0000 0.0999386938
H   H82       1.0  0.93150  0.40720  0.13760  1.0000 0.0999386938
H   H83       1.0  0.90720  0.56850  0.63760  1.0000 0.0999386938
H   H84       1.0  0.09280  0.43150  0.63760  1.0000 0.0999386938
H   H85       1.0  0.33060  0.63630  0.25280  1.0000 0.0999386938
H   H86       1.0  0.66940  0.36370  0.25280  1.0000 0.0999386938
H   H87       1.0  0.86370  0.83060  0.75280  1.0000 0.0999386938
H   H88       1.0  0.13630  0.16940  0.75280  1.0000 0.0999386938
H   H89       1.0  0.20970  0.62870  0.18270  1.0000 0.137887291
H   H90       1.0  0.79030  0.37130  0.18270  1.0000 0.137887291
H   H91       1.0  0.87130  0.70970  0.68270  1.0000 0.137887291
H   H92       1.0  0.12870  0.29030  0.68270  1.0000 0.137887291
H   H93       1.0  0.25020  0.30640  0.18400  1.0000 0.137887291
H   H94       1.0  0.74980  0.69360  0.18400  1.0000 0.137887291
H   H95       1.0  0.19360  0.75020  0.68400  1.0000 0.137887291
H   H96       1.0  0.80640  0.24980  0.68400  1.0000 0.137887291
H   H97       1.0  0.37170  0.32700  0.25230  1.0000 0.0932631636
H   H98       1.0  0.62830  0.67300  0.25230  1.0000 0.0932631636
H   H99       1.0  0.17300  0.87170  0.75230  1.0000 0.0932631636
H   H100      1.0  0.82700  0.12830  0.75230  1.0000 0.0932631636
H   H101      1.0  0.24130  0.97920  0.80250  1.0000 0.1489580379
H   H102      1.0  0.75870  0.02080  0.80250  1.0000 0.1489580379
H   H103      1.0  0.52080  0.74130  0.30250  1.0000 0.1489580379
H   H104      1.0  0.47920  0.25870  0.30250  1.0000 0.1489580379
C   C1        1.0  0.60990  0.30790  0.59754  1.0000 0.0789999986
C   C2        1.0  0.39010  0.69210  0.59754  1.0000 0.0789999986
C   C3        1.0  0.19210  0.10990  0.09754  1.0000 0.0789999986
C   C4        1.0  0.80790  0.89010  0.09754  1.0000 0.0789999986
C   C5        1.0  0.62110  0.22510  0.56030  1.0000 -0.275152654
C   C6        1.0  0.37890  0.77490  0.56030  1.0000 -0.275152654
C   C7        1.0  0.27490  0.12110  0.06030  1.0000 -0.275152654
C   C8        1.0  0.72510  0.87890  0.06030  1.0000 -0.275152654
C   C9        1.0  0.53520  0.20390  0.52681  1.0000 0.2797979408
C   C10       1.0  0.46480  0.79610  0.52681  1.0000 0.2797979408
C   C11       1.0  0.29610  0.03520  0.02681  1.0000 0.2797979408
C   C12       1.0  0.70390  0.96480  0.02681  1.0000 0.2797979408
C   C13       1.0  0.44260  0.26600  0.53140  1.0000 -0.2985009185
C   C14       1.0  0.55740  0.73400  0.53140  1.0000 -0.2985009185
C   C15       1.0  0.23400  0.94260  0.03140  1.0000 -0.2985009185
C   C16       1.0  0.76600  0.05740  0.03140  1.0000 -0.2985009185
C   C17       1.0  0.43900  0.34620  0.57030  1.0000 0.0999386938
C   C18       1.0  0.56100  0.65380  0.57030  1.0000 0.0999386938
C   C19       1.0  0.15380  0.93900  0.07030  1.0000 0.0999386938
C   C20       1.0  0.84620  0.06100  0.07030  1.0000 0.0999386938
C   C21       1.0  0.46170  0.09560  0.45753  1.0000 -0.0893385509
C   C22       1.0  0.53830  0.90440  0.45753  1.0000 -0.0893385509
C   C23       1.0  0.40440  0.96170  0.95753  1.0000 -0.0893385509
C   C24       1.0  0.59560  0.03830  0.95753  1.0000 -0.0893385509
C   C25       1.0  0.50000  0.00000  0.42250  1.0000 0.0789999986
C   C26       1.0  0.50000  0.00000  0.92250  1.0000 0.0789999986
C   C27       1.0  0.40570  0.95910  0.38868  1.0000 -0.0981087672
C   C28       1.0  0.59430  0.04090  0.38868  1.0000 -0.0981087672
C   C29       1.0  0.54090  0.90570  0.88868  1.0000 -0.0981087672
C   C30       1.0  0.45910  0.09430  0.88868  1.0000 -0.0981087672
C   C31       1.0  0.18560  0.93160  0.26160  1.0000 0.0999386938
C   C32       1.0  0.81440  0.06840  0.26160  1.0000 0.0999386938
C   C33       1.0  0.56840  0.68560  0.76160  1.0000 0.0999386938
C   C34       1.0  0.43160  0.31440  0.76160  1.0000 0.0999386938
C   C35       1.0  0.26030  0.93470  0.30340  1.0000 -0.2615686959
C   C36       1.0  0.73970  0.06530  0.30340  1.0000 -0.2615686959
C   C37       1.0  0.56530  0.76030  0.80340  1.0000 -0.2615686959
C   C38       1.0  0.43470  0.23970  0.80340  1.0000 -0.2615686959
C   C39       1.0  0.28730  0.03390  0.32272  1.0000 0.2745330924
C   C40       1.0  0.71270  0.96610  0.32272  1.0000 0.2745330924
C   C41       1.0  0.46610  0.78730  0.82272  1.0000 0.2745330924
C   C42       1.0  0.53390  0.21270  0.82272  1.0000 0.2745330924
C   C43       1.0  0.23540  0.12460  0.30240  1.0000 -0.2667148157
C   C44       1.0  0.76460  0.87540  0.30240  1.0000 -0.2667148157
C   C45       1.0  0.37540  0.73540  0.80240  1.0000 -0.2667148157
C   C46       1.0  0.62460  0.26460  0.80240  1.0000 -0.2667148157
C   C47       1.0  0.16180  0.11120  0.26150  1.0000 0.0789999986
C   C48       1.0  0.83820  0.88880  0.26150  1.0000 0.0789999986
C   C49       1.0  0.38880  0.66180  0.76150  1.0000 0.0789999986
C   C50       1.0  0.61120  0.33820  0.76150  1.0000 0.0789999986
C   C51       1.0  0.89010  0.19210  0.90246  1.0000 0.0789999986
C   C52       1.0  0.10990  0.80790  0.90246  1.0000 0.0789999986
C   C53       1.0  0.30790  0.39010  0.40246  1.0000 0.0789999986
C   C54       1.0  0.69210  0.60990  0.40246  1.0000 0.0789999986
C   C55       1.0  0.87890  0.27490  0.93970  1.0000 -0.275152654
C   C56       1.0  0.12110  0.72510  0.93970  1.0000 -0.275152654
C   C57       1.0  0.22510  0.37890  0.43970  1.0000 -0.275152654
C   C58       1.0  0.77490  0.62110  0.43970  1.0000 -0.275152654
C   C59       1.0  0.96480  0.29610  0.97319  1.0000 0.2797979408
C   C60       1.0  0.03520  0.70390  0.97319  1.0000 0.2797979408
C   C61       1.0  0.20390  0.46480  0.47319  1.0000 0.2797979408
C   C62       1.0  0.79610  0.53520  0.47319  1.0000 0.2797979408
C   C63       1.0  0.05740  0.23400  0.96860  1.0000 -0.2985009185
C   C64       1.0  0.94260  0.76600  0.96860  1.0000 -0.2985009185
C   C65       1.0  0.26600  0.55740  0.46860  1.0000 -0.2985009185
C   C66       1.0  0.73400  0.44260  0.46860  1.0000 -0.2985009185
C   C67       1.0  0.06100  0.15380  0.92970  1.0000 0.0999386938
C   C68       1.0  0.93900  0.84620  0.92970  1.0000 0.0999386938
C   C69       1.0  0.34620  0.56100  0.42970  1.0000 0.0999386938
C   C70       1.0  0.65380  0.43900  0.42970  1.0000 0.0999386938
C   C71       1.0  0.03830  0.40440  0.04247  1.0000 -0.0893385509
C   C72       1.0  0.96170  0.59560  0.04247  1.0000 -0.0893385509
C   C73       1.0  0.09560  0.53830  0.54247  1.0000 -0.0893385509
C   C74       1.0  0.90440  0.46170  0.54247  1.0000 -0.0893385509
C   C75       1.0  0.00000  0.50000  0.07750  1.0000 0.0789999986
C   C76       1.0  0.00000  0.50000  0.57750  1.0000 0.0789999986
C   C77       1.0  0.09430  0.54090  0.11132  1.0000 -0.0981087672
C   C78       1.0  0.90570  0.45910  0.11132  1.0000 -0.0981087672
C   C79       1.0  0.95910  0.59430  0.61132  1.0000 -0.0981087672
C   C80       1.0  0.04090  0.40570  0.61132  1.0000 -0.0981087672
C   C81       1.0  0.31440  0.56840  0.23840  1.0000 0.0999386938
C   C82       1.0  0.68560  0.43160  0.23840  1.0000 0.0999386938
C   C83       1.0  0.93160  0.81440  0.73840  1.0000 0.0999386938
C   C84       1.0  0.06840  0.18560  0.73840  1.0000 0.0999386938
C   C85       1.0  0.23970  0.56530  0.19660  1.0000 -0.2615686959
C   C86       1.0  0.76030  0.43470  0.19660  1.0000 -0.2615686959
C   C87       1.0  0.93470  0.73970  0.69660  1.0000 -0.2615686959
C   C88       1.0  0.06530  0.26030  0.69660  1.0000 -0.2615686959
C   C89       1.0  0.21270  0.46610  0.17728  1.0000 0.2745330924
C   C90       1.0  0.78730  0.53390  0.17728  1.0000 0.2745330924
C   C91       1.0  0.03390  0.71270  0.67728  1.0000 0.2745330924
C   C92       1.0  0.96610  0.28730  0.67728  1.0000 0.2745330924
C   C93       1.0  0.26460  0.37540  0.19760  1.0000 -0.2667148157
C   C94       1.0  0.73540  0.62460  0.19760  1.0000 -0.2667148157
C   C95       1.0  0.12460  0.76460  0.69760  1.0000 -0.2667148157
C   C96       1.0  0.87540  0.23540  0.69760  1.0000 -0.2667148157
C   C97       1.0  0.33820  0.38880  0.23850  1.0000 0.0789999986
C   C98       1.0  0.66180  0.61120  0.23850  1.0000 0.0789999986
C   C99       1.0  0.11120  0.83820  0.73850  1.0000 0.0789999986
C   C100      1.0  0.88880  0.16180  0.73850  1.0000 0.0789999986
S   S1        1.0  0.29178  0.47386  0.67154  1.0000 -0.6527037925
S   S2        1.0  0.70822  0.52614  0.67154  1.0000 -0.6527037925
S   S3        1.0  0.02614  0.79178  0.17154  1.0000 -0.6527037925
S   S4        1.0  0.97386  0.20822  0.17154  1.0000 -0.6527037925
S   S5        1.0  0.20822  0.02614  0.82846  1.0000 -0.6527037925
S   S6        1.0  0.79178  0.97386  0.82846  1.0000 -0.6527037925
S   S7        1.0  0.47386  0.70822  0.32846  1.0000 -0.6527037925
S   S8        1.0  0.52614  0.29178  0.32846  1.0000 -0.6527037925
N   N1        1.0  0.51980  0.36720  0.60394  1.0000 -0.2337314791
N   N2        1.0  0.48020  0.63280  0.60394  1.0000 -0.2337314791
N   N3        1.0  0.13280  0.01980  0.10394  1.0000 -0.2337314791
N   N4        1.0  0.86720  0.98020  0.10394  1.0000 -0.2337314791
N   N5        1.0  0.13620  0.01680  0.24086  1.0000 -0.2365451163
N   N6        1.0  0.86380  0.98320  0.24086  1.0000 -0.2365451163
N   N7        1.0  0.48320  0.63620  0.74086  1.0000 -0.2365451163
N   N8        1.0  0.51680  0.36380  0.74086  1.0000 -0.2365451163
N   N9        1.0  0.98020  0.13280  0.89606  1.0000 -0.2337314791
N   N10       1.0  0.01980  0.86720  0.89606  1.0000 -0.2337314791
N   N11       1.0  0.36720  0.48020  0.39606  1.0000 -0.2337314791
N   N12       1.0  0.63280  0.51980  0.39606  1.0000 -0.2337314791
N   N13       1.0  0.36380  0.48320  0.25914  1.0000 -0.2365451163
N   N14       1.0  0.63620  0.51680  0.25914  1.0000 -0.2365451163
N   N15       1.0  0.01680  0.86380  0.75914  1.0000 -0.2365451163
N   N16       1.0  0.98320  0.13620  0.75914  1.0000 -0.2365451163
O   O1        1.0  0.54930  0.12230  0.49258  1.0000 -0.1702520015
O   O2        1.0  0.45070  0.87770  0.49258  1.0000 -0.1702520015
O   O3        1.0  0.37770  0.04930  0.99258  1.0000 -0.1702520015
O   O4        1.0  0.62230  0.95070  0.99258  1.0000 -0.1702520015
O   O5        1.0  0.35920  0.05250  0.36290  1.0000 -0.1702520015
O   O6        1.0  0.64080  0.94750  0.36290  1.0000 -0.1702520015
O   O7        1.0  0.44750  0.85920  0.86290  1.0000 -0.1702520015
O   O8        1.0  0.55250  0.14080  0.86290  1.0000 -0.1702520015
O   O9        1.0  0.95070  0.37770  0.00742  1.0000 -0.1702520015
O   O10       1.0  0.04930  0.62230  0.00742  1.0000 -0.1702520015
O   O11       1.0  0.12230  0.45070  0.50742  1.0000 -0.1702520015
O   O12       1.0  0.87770  0.54930  0.50742  1.0000 -0.1702520015
O   O13       1.0  0.14080  0.44750  0.13710  1.0000 -0.1702520015
O   O14       1.0  0.85920  0.55250  0.13710  1.0000 -0.1702520015
O   O15       1.0  0.05250  0.64080  0.63710  1.0000 -0.1702520015
O   O16       1.0  0.94750  0.35920  0.63710  1.0000 -0.1702520015
