# DDEC6 charges by PACMAN v1.1 (https://github.com/mtap-research/PACMAN-charge/)
data_2010[Nd][flu]3[ASR]1
_chemical_formula_sum              "Nd2 P2 H24 C42 O14"
_cell_length_a       10.7298
_cell_length_b       11.9079
_cell_length_c       14.7678
_cell_angle_alpha    73.057
_cell_angle_beta     71.528
_cell_angle_gamma    66.456

_symmetry_space_group_name_H-M    "P 1"
_symmetry_Int_Tables_number       1

loop_
  _symmetry_equiv_pos_as_xyz
  'x, y, z'

loop_
  _atom_site_type_symbol
  _atom_site_label
  _atom_site_symmetry_multiplicity
  _atom_site_fract_x
  _atom_site_fract_y
  _atom_site_fract_z
  _atom_site_occupancy
  _atom_site_charge
Nd  Nd1       1.0  0.98505  0.54945  0.62829  1.0000 2.1373299666
Nd  Nd2       1.0  0.01495  0.45055  0.37171  1.0000 2.1373299666
P   P1        1.0  0.14072  0.71810  0.72648  1.0000 0.897905291
P   P2        1.0  0.85928  0.28190  0.27352  1.0000 0.897905291
H   H1        1.0  0.50230  0.63740  0.44220  1.0000 0.1227482674
H   H2        1.0  0.49770  0.36260  0.55780  1.0000 0.1227482674
H   H3        1.0  0.95020  0.89720  0.61860  1.0000 0.1265512862
H   H4        1.0  0.04980  0.10280  0.38140  1.0000 0.1265512862
H   H5        1.0  0.27370  0.68040  0.53680  1.0000 0.1265512862
H   H6        1.0  0.72630  0.31960  0.46320  1.0000 0.1265512862
H   H7        1.0  0.97220  0.82470  0.89250  1.0000 0.1115070664
H   H8        1.0  0.02780  0.17530  0.10750  1.0000 0.1115070664
H   H9        1.0  0.64090  0.61470  0.67540  1.0000 0.1227482674
H   H10       1.0  0.35910  0.38530  0.32460  1.0000 0.1265512862
H   H11       1.0  0.41060  0.66510  0.76890  1.0000 0.1115070664
H   H12       1.0  0.58940  0.33490  0.23110  1.0000 0.1115070664
H   H13       1.0  0.18480  0.91590  0.77820  1.0000 0.1115070664
H   H14       1.0  0.81520  0.08410  0.22180  1.0000 0.1115070664
H   H15       1.0  0.24970  0.42250  0.01660  1.0000 0.1227482674
H   H16       1.0  0.75030  0.57750  0.98340  1.0000 0.1227482674
H   H17       1.0  0.93940  0.74910  0.06080  1.0000 0.1227482674
H   H18       1.0  0.06060  0.25090  0.93920  1.0000 0.1227482674
H   H19       1.0  0.88460  0.11300  0.56470  1.0000 0.1227482674
H   H20       1.0  0.11540  0.88700  0.43530  1.0000 0.1227482674
H   H21       1.0  0.10460  0.13560  0.73280  1.0000 0.1363810011
H   H22       1.0  0.89540  0.86440  0.26720  1.0000 0.1363810011
H   H23       1.0  0.27440  0.49180  0.84770  1.0000 0.1227482674
H   H24       1.0  0.72560  0.50820  0.15230  1.0000 0.1227482674
C   C1        1.0  0.12840  0.66570  0.85440  1.0000 -0.1571530617
C   C2        1.0  0.87160  0.33430  0.14560  1.0000 -0.1571530617
C   C3        1.0  0.48390  0.64150  0.50860  1.0000 -0.0914954081
C   C4        1.0  0.51610  0.35850  0.49140  1.0000 -0.0914954081
C   C5        1.0  0.07600  0.88650  0.70130  1.0000 -0.147630959
C   C6        1.0  0.92400  0.11350  0.29870  1.0000 -0.147630959
C   C7        1.0  0.32100  0.67500  0.66210  1.0000 -0.1571530617
C   C8        1.0  0.67900  0.32500  0.33790  1.0000 -0.1571530617
C   C9        1.0  0.98490  0.94490  0.63960  1.0000 -0.0820054105
C   C10       1.0  0.01510  0.05510  0.36040  1.0000 -0.0820054105
C   C11       1.0  0.34810  0.66760  0.56470  1.0000 -0.072224795
C   C12       1.0  0.65190  0.33240  0.43530  1.0000 -0.072224795
C   C13       1.0  0.59400  0.62100  0.55000  1.0000 -0.0126094021
C   C14       1.0  0.40600  0.37900  0.45000  1.0000 -0.0153390776
C   C15       1.0  0.02760  0.74300  0.91730  1.0000 -0.0969641331
C   C16       1.0  0.97240  0.25700  0.08270  1.0000 -0.0969641331
C   C17       1.0  0.56640  0.62890  0.64720  1.0000 -0.0914954081
C   C18       1.0  0.43360  0.37110  0.35280  1.0000 -0.0914954081
C   C19       1.0  0.42970  0.65750  0.70320  1.0000 -0.0969641331
C   C20       1.0  0.57030  0.34250  0.29680  1.0000 -0.0969641331
C   C21       1.0  0.12260  0.95630  0.73580  1.0000 -0.1057130686
C   C22       1.0  0.87740  0.04370  0.26420  1.0000 -0.1057130686
C   C23       1.0  0.09270  0.57980  0.05430  1.0000 0.0035757896
C   C24       1.0  0.90730  0.42020  0.94570  1.0000 0.0035757896
C   C25       1.0  0.07020  0.53720  0.16260  1.0000 0.5604574092
C   C26       1.0  0.92980  0.46280  0.83740  1.0000 0.5604574092
C   C27       1.0  0.19260  0.50320  0.99150  1.0000 -0.0914954081
C   C28       1.0  0.80740  0.49680  0.00850  1.0000 -0.0914954081
C   C29       1.0  0.00950  0.69810  0.01740  1.0000 -0.0969641331
C   C30       1.0  0.99050  0.30190  0.98260  1.0000 -0.0969641331
C   C31       1.0  0.99140  0.14370  0.64150  1.0000 -0.0126094021
C   C32       1.0  0.00860  0.85630  0.35850  1.0000 -0.0126094021
C   C33       1.0  0.94460  0.07310  0.60860  1.0000 -0.0969641331
C   C34       1.0  0.05540  0.92690  0.39140  1.0000 -0.0969641331
C   C35       1.0  0.07710  0.08670  0.70730  1.0000 -0.0914954081
C   C36       1.0  0.92290  0.91330  0.29270  1.0000 -0.0914954081
C   C37       1.0  0.95510  0.28240  0.60220  1.0000 0.6290563055
C   C38       1.0  0.04490  0.71760  0.39780  1.0000 0.6290563055
C   C39       1.0  0.73940  0.58730  0.48900  1.0000 0.6129160829
C   C40       1.0  0.26060  0.41270  0.51100  1.0000 0.6129160829
C   C41       1.0  0.20880  0.54520  0.89100  1.0000 -0.0914954081
C   C42       1.0  0.79120  0.45480  0.10900  1.0000 -0.0914954081
O   O1        1.0  0.95110  0.58130  0.21460  1.0000 -0.6000661246
O   O2        1.0  0.04890  0.41870  0.78540  1.0000 -0.6000661246
O   O3        1.0  0.76130  0.56610  0.40530  1.0000 -0.6000661246
O   O4        1.0  0.23870  0.43390  0.59470  1.0000 -0.6000661246
O   O5        1.0  0.92760  0.32010  0.51930  1.0000 -0.6652478866
O   O6        1.0  0.07240  0.67990  0.48070  1.0000 -0.6652478866
O   O7        1.0  0.17340  0.45960  0.19970  1.0000 -0.664347022
O   O8        1.0  0.82660  0.54040  0.80030  1.0000 -0.664347022
O   O9        1.0  0.95750  0.34850  0.65380  1.0000 -0.6377029113
O   O10       1.0  0.04250  0.65150  0.34620  1.0000 -0.6377029113
O   O11       1.0  0.84060  0.57710  0.52250  1.0000 -0.7712045453
O   O12       1.0  0.15940  0.42290  0.47750  1.0000 -0.7712045453
O   O13       1.0  0.06090  0.67030  0.68890  1.0000 -0.7712045453
O   O14       1.0  0.93910  0.32970  0.31110  1.0000 -0.7712045453
