# DDEC6 charges by PACMAN v1.1 (https://github.com/mtap-research/PACMAN-charge/)
data_2010[Cu][nts]3[ASR]1
_chemical_formula_sum              "Cu24 H192 C480 O96"
_cell_length_a       41.8275
_cell_length_b       41.8275
_cell_length_c       41.8275
_cell_angle_alpha    60
_cell_angle_beta     60
_cell_angle_gamma    60

_symmetry_space_group_name_H-M    "P 1"
_symmetry_Int_Tables_number       1

loop_
  _symmetry_equiv_pos_as_xyz
  'x, y, z'

loop_
  _atom_site_type_symbol
  _atom_site_label
  _atom_site_symmetry_multiplicity
  _atom_site_fract_x
  _atom_site_fract_y
  _atom_site_fract_z
  _atom_site_occupancy
  _atom_site_charge
Cu  Cu1       1.0  0.19074  0.00000  0.00000  1.0000 0.8611987572
Cu  Cu2       1.0  0.19074  0.00000  0.80926  1.0000 0.8611987572
Cu  Cu3       1.0  0.00000  0.19074  0.80926  1.0000 0.8611987572
Cu  Cu4       1.0  0.00000  0.19074  0.00000  1.0000 0.8611987572
Cu  Cu5       1.0  0.80926  0.00000  0.00000  1.0000 0.8611987572
Cu  Cu6       1.0  0.00000  0.80926  0.19074  1.0000 0.8611987572
Cu  Cu7       1.0  0.00000  0.00000  0.19074  1.0000 0.8611987572
Cu  Cu8       1.0  0.19074  0.80926  0.00000  1.0000 0.8611987572
Cu  Cu9       1.0  0.00000  0.00000  0.80926  1.0000 0.8611987572
Cu  Cu10      1.0  0.80926  0.00000  0.19074  1.0000 0.8611987572
Cu  Cu11      1.0  0.00000  0.80926  0.00000  1.0000 0.8611987572
Cu  Cu12      1.0  0.80926  0.19074  0.00000  1.0000 0.8611987572
Cu  Cu13      1.0  0.25400  0.00000  0.00000  1.0000 0.8699140938
Cu  Cu14      1.0  0.25400  0.00000  0.74600  1.0000 0.8699140938
Cu  Cu15      1.0  0.00000  0.25400  0.74600  1.0000 0.8699140938
Cu  Cu16      1.0  0.00000  0.25400  0.00000  1.0000 0.8699140938
Cu  Cu17      1.0  0.74600  0.00000  0.00000  1.0000 0.8699140938
Cu  Cu18      1.0  0.00000  0.74600  0.25400  1.0000 0.8699140938
Cu  Cu19      1.0  0.00000  0.00000  0.25400  1.0000 0.8699140938
Cu  Cu20      1.0  0.25400  0.74600  0.00000  1.0000 0.8699140938
Cu  Cu21      1.0  0.00000  0.00000  0.74600  1.0000 0.8699140938
Cu  Cu22      1.0  0.74600  0.00000  0.25400  1.0000 0.8699140938
Cu  Cu23      1.0  0.00000  0.74600  0.00000  1.0000 0.8699140938
Cu  Cu24      1.0  0.74600  0.25400  0.00000  1.0000 0.8699140938
H   H1        1.0  0.11890  0.11890  0.99130  1.0000 0.1372823582
H   H2        1.0  0.22910  0.00870  0.88110  1.0000 0.1372823582
H   H3        1.0  0.11890  0.11890  0.77090  1.0000 0.1372823582
H   H4        1.0  0.00870  0.22910  0.88110  1.0000 0.1372823582
H   H5        1.0  0.88110  0.22910  0.88110  1.0000 0.1372823582
H   H6        1.0  0.77090  0.99130  0.11890  1.0000 0.1372823582
H   H7        1.0  0.00870  0.88110  0.22910  1.0000 0.1372823582
H   H8        1.0  0.88110  0.00870  0.22910  1.0000 0.1372823582
H   H9        1.0  0.99130  0.77090  0.11890  1.0000 0.1372823582
H   H10       1.0  0.22910  0.88110  0.88110  1.0000 0.1372823582
H   H11       1.0  0.99130  0.11890  0.11890  1.0000 0.1372823582
H   H12       1.0  0.11890  0.99130  0.11890  1.0000 0.1372823582
H   H13       1.0  0.99130  0.11890  0.77090  1.0000 0.1372823582
H   H14       1.0  0.77090  0.11890  0.11890  1.0000 0.1372823582
H   H15       1.0  0.11890  0.77090  0.11890  1.0000 0.1372823582
H   H16       1.0  0.11890  0.99130  0.77090  1.0000 0.1372823582
H   H17       1.0  0.11890  0.77090  0.99130  1.0000 0.1372823582
H   H18       1.0  0.77090  0.11890  0.99130  1.0000 0.1372823582
H   H19       1.0  0.88110  0.88110  0.22910  1.0000 0.1372823582
H   H20       1.0  0.88110  0.88110  0.00870  1.0000 0.1372823582
H   H21       1.0  0.22910  0.88110  0.00870  1.0000 0.1372823582
H   H22       1.0  0.88110  0.00870  0.88110  1.0000 0.1372823582
H   H23       1.0  0.88110  0.22910  0.00870  1.0000 0.1372823582
H   H24       1.0  0.00870  0.88110  0.88110  1.0000 0.1372823582
H   H25       1.0  0.21990  0.12310  0.97610  1.0000 0.1372823582
H   H26       1.0  0.31910  0.02390  0.78010  1.0000 0.1372823582
H   H27       1.0  0.12310  0.21990  0.68090  1.0000 0.1372823582
H   H28       1.0  0.02390  0.31910  0.87690  1.0000 0.1372823582
H   H29       1.0  0.87690  0.31910  0.78010  1.0000 0.1372823582
H   H30       1.0  0.68090  0.97610  0.12310  1.0000 0.1372823582
H   H31       1.0  0.02390  0.78010  0.31910  1.0000 0.1372823582
H   H32       1.0  0.87690  0.02390  0.31910  1.0000 0.1372823582
H   H33       1.0  0.97610  0.68090  0.21990  1.0000 0.1372823582
H   H34       1.0  0.31910  0.78010  0.87690  1.0000 0.1372823582
H   H35       1.0  0.97610  0.21990  0.12310  1.0000 0.1372823582
H   H36       1.0  0.12310  0.97610  0.21990  1.0000 0.1372823582
H   H37       1.0  0.97610  0.12310  0.68090  1.0000 0.1372823582
H   H38       1.0  0.68090  0.12310  0.21990  1.0000 0.1372823582
H   H39       1.0  0.21990  0.68090  0.12310  1.0000 0.1372823582
H   H40       1.0  0.21990  0.97610  0.68090  1.0000 0.1372823582
H   H41       1.0  0.12310  0.68090  0.97610  1.0000 0.1372823582
H   H42       1.0  0.68090  0.21990  0.97610  1.0000 0.1372823582
H   H43       1.0  0.78010  0.87690  0.31910  1.0000 0.1372823582
H   H44       1.0  0.87690  0.78010  0.02390  1.0000 0.1372823582
H   H45       1.0  0.31910  0.87690  0.02390  1.0000 0.1372823582
H   H46       1.0  0.78010  0.02390  0.87690  1.0000 0.1372823582
H   H47       1.0  0.78010  0.31910  0.02390  1.0000 0.1372823582
H   H48       1.0  0.02390  0.87690  0.78010  1.0000 0.1372823582
H   H49       1.0  0.78010  0.87690  0.02390  1.0000 0.1372823582
H   H50       1.0  0.68090  0.97610  0.21990  1.0000 0.1372823582
H   H51       1.0  0.87690  0.78010  0.31910  1.0000 0.1372823582
H   H52       1.0  0.97610  0.68090  0.12310  1.0000 0.1372823582
H   H53       1.0  0.12310  0.68090  0.21990  1.0000 0.1372823582
H   H54       1.0  0.31910  0.02390  0.87690  1.0000 0.1372823582
H   H55       1.0  0.97610  0.21990  0.68090  1.0000 0.1372823582
H   H56       1.0  0.12310  0.97610  0.68090  1.0000 0.1372823582
H   H57       1.0  0.02390  0.31910  0.78010  1.0000 0.1372823582
H   H58       1.0  0.68090  0.21990  0.12310  1.0000 0.1372823582
H   H59       1.0  0.02390  0.78010  0.87690  1.0000 0.1372823582
H   H60       1.0  0.87690  0.02390  0.78010  1.0000 0.1372823582
H   H61       1.0  0.02390  0.87690  0.31910  1.0000 0.1372823582
H   H62       1.0  0.31910  0.87690  0.78010  1.0000 0.1372823582
H   H63       1.0  0.78010  0.31910  0.87690  1.0000 0.1372823582
H   H64       1.0  0.78010  0.02390  0.31910  1.0000 0.1372823582
H   H65       1.0  0.87690  0.31910  0.02390  1.0000 0.1372823582
H   H66       1.0  0.31910  0.78010  0.02390  1.0000 0.1372823582
H   H67       1.0  0.21990  0.12310  0.68090  1.0000 0.1372823582
H   H68       1.0  0.12310  0.21990  0.97610  1.0000 0.1372823582
H   H69       1.0  0.68090  0.12310  0.97610  1.0000 0.1372823582
H   H70       1.0  0.21990  0.97610  0.12310  1.0000 0.1372823582
H   H71       1.0  0.21990  0.68090  0.97610  1.0000 0.1372823582
H   H72       1.0  0.97610  0.12310  0.21990  1.0000 0.1372823582
H   H73       1.0  0.28830  0.19150  0.95150  1.0000 0.1205542107
H   H74       1.0  0.43130  0.04850  0.71170  1.0000 0.1205542107
H   H75       1.0  0.19150  0.28830  0.56870  1.0000 0.1205542107
H   H76       1.0  0.04850  0.43130  0.80850  1.0000 0.1205542107
H   H77       1.0  0.80850  0.43130  0.71170  1.0000 0.1205542107
H   H78       1.0  0.56870  0.95150  0.19150  1.0000 0.1205542107
H   H79       1.0  0.04850  0.71170  0.43130  1.0000 0.1205542107
H   H80       1.0  0.80850  0.04850  0.43130  1.0000 0.1205542107
H   H81       1.0  0.95150  0.56870  0.28830  1.0000 0.1205542107
H   H82       1.0  0.43130  0.71170  0.80850  1.0000 0.1205542107
H   H83       1.0  0.95150  0.28830  0.19150  1.0000 0.1205542107
H   H84       1.0  0.19150  0.95150  0.28830  1.0000 0.1205542107
H   H85       1.0  0.95150  0.19150  0.56870  1.0000 0.1205542107
H   H86       1.0  0.56870  0.19150  0.28830  1.0000 0.1205542107
H   H87       1.0  0.28830  0.56870  0.19150  1.0000 0.1205542107
H   H88       1.0  0.28830  0.95150  0.56870  1.0000 0.1205542107
H   H89       1.0  0.19150  0.56870  0.95150  1.0000 0.1205542107
H   H90       1.0  0.56870  0.28830  0.95150  1.0000 0.1205542107
H   H91       1.0  0.71170  0.80850  0.43130  1.0000 0.1205542107
H   H92       1.0  0.80850  0.71170  0.04850  1.0000 0.1205542107
H   H93       1.0  0.43130  0.80850  0.04850  1.0000 0.1205542107
H   H94       1.0  0.71170  0.04850  0.80850  1.0000 0.1205542107
H   H95       1.0  0.71170  0.43130  0.04850  1.0000 0.1205542107
H   H96       1.0  0.04850  0.80850  0.71170  1.0000 0.1205542107
H   H97       1.0  0.71170  0.80850  0.04850  1.0000 0.1205542107
H   H98       1.0  0.56870  0.95150  0.28830  1.0000 0.1205542107
H   H99       1.0  0.80850  0.71170  0.43130  1.0000 0.1205542107
H   H100      1.0  0.95150  0.56870  0.19150  1.0000 0.1205542107
H   H101      1.0  0.19150  0.56870  0.28830  1.0000 0.1205542107
H   H102      1.0  0.43130  0.04850  0.80850  1.0000 0.1205542107
H   H103      1.0  0.95150  0.28830  0.56870  1.0000 0.1205542107
H   H104      1.0  0.19150  0.95150  0.56870  1.0000 0.1205542107
H   H105      1.0  0.04850  0.43130  0.71170  1.0000 0.1205542107
H   H106      1.0  0.56870  0.28830  0.19150  1.0000 0.1205542107
H   H107      1.0  0.04850  0.71170  0.80850  1.0000 0.1205542107
H   H108      1.0  0.80850  0.04850  0.71170  1.0000 0.1205542107
H   H109      1.0  0.04850  0.80850  0.43130  1.0000 0.1205542107
H   H110      1.0  0.43130  0.80850  0.71170  1.0000 0.1205542107
H   H111      1.0  0.71170  0.43130  0.80850  1.0000 0.1205542107
H   H112      1.0  0.71170  0.04850  0.43130  1.0000 0.1205542107
H   H113      1.0  0.80850  0.43130  0.04850  1.0000 0.1205542107
H   H114      1.0  0.43130  0.71170  0.04850  1.0000 0.1205542107
H   H115      1.0  0.28830  0.19150  0.56870  1.0000 0.1205542107
H   H116      1.0  0.19150  0.28830  0.95150  1.0000 0.1205542107
H   H117      1.0  0.56870  0.19150  0.95150  1.0000 0.1205542107
H   H118      1.0  0.28830  0.95150  0.19150  1.0000 0.1205542107
H   H119      1.0  0.28830  0.56870  0.95150  1.0000 0.1205542107
H   H120      1.0  0.95150  0.19150  0.28830  1.0000 0.1205542107
H   H121      1.0  0.32380  0.22700  0.94040  1.0000 0.1205542107
H   H122      1.0  0.49120  0.05960  0.67620  1.0000 0.1205542107
H   H123      1.0  0.22700  0.32380  0.50880  1.0000 0.1205542107
H   H124      1.0  0.05960  0.49120  0.77300  1.0000 0.1205542107
H   H125      1.0  0.77300  0.49120  0.67620  1.0000 0.1205542107
H   H126      1.0  0.50880  0.94040  0.22700  1.0000 0.1205542107
H   H127      1.0  0.05960  0.67620  0.49120  1.0000 0.1205542107
H   H128      1.0  0.77300  0.05960  0.49120  1.0000 0.1205542107
H   H129      1.0  0.94040  0.50880  0.32380  1.0000 0.1205542107
H   H130      1.0  0.49120  0.67620  0.77300  1.0000 0.1205542107
H   H131      1.0  0.94040  0.32380  0.22700  1.0000 0.1205542107
H   H132      1.0  0.22700  0.94040  0.32380  1.0000 0.1205542107
H   H133      1.0  0.94040  0.22700  0.50880  1.0000 0.1205542107
H   H134      1.0  0.50880  0.22700  0.32380  1.0000 0.1205542107
H   H135      1.0  0.32380  0.50880  0.22700  1.0000 0.1205542107
H   H136      1.0  0.32380  0.94040  0.50880  1.0000 0.1205542107
H   H137      1.0  0.22700  0.50880  0.94040  1.0000 0.1205542107
H   H138      1.0  0.50880  0.32380  0.94040  1.0000 0.1205542107
H   H139      1.0  0.67620  0.77300  0.49120  1.0000 0.1205542107
H   H140      1.0  0.77300  0.67620  0.05960  1.0000 0.1205542107
H   H141      1.0  0.49120  0.77300  0.05960  1.0000 0.1205542107
H   H142      1.0  0.67620  0.05960  0.77300  1.0000 0.1205542107
H   H143      1.0  0.67620  0.49120  0.05960  1.0000 0.1205542107
H   H144      1.0  0.05960  0.77300  0.67620  1.0000 0.1205542107
H   H145      1.0  0.67620  0.77300  0.05960  1.0000 0.1205542107
H   H146      1.0  0.50880  0.94040  0.32380  1.0000 0.1205542107
H   H147      1.0  0.77300  0.67620  0.49120  1.0000 0.1205542107
H   H148      1.0  0.94040  0.50880  0.22700  1.0000 0.1205542107
H   H149      1.0  0.22700  0.50880  0.32380  1.0000 0.1205542107
H   H150      1.0  0.49120  0.05960  0.77300  1.0000 0.1205542107
H   H151      1.0  0.94040  0.32380  0.50880  1.0000 0.1205542107
H   H152      1.0  0.22700  0.94040  0.50880  1.0000 0.1205542107
H   H153      1.0  0.05960  0.49120  0.67620  1.0000 0.1205542107
H   H154      1.0  0.50880  0.32380  0.22700  1.0000 0.1205542107
H   H155      1.0  0.05960  0.67620  0.77300  1.0000 0.1205542107
H   H156      1.0  0.77300  0.05960  0.67620  1.0000 0.1205542107
H   H157      1.0  0.05960  0.77300  0.49120  1.0000 0.1205542107
H   H158      1.0  0.49120  0.77300  0.67620  1.0000 0.1205542107
H   H159      1.0  0.67620  0.49120  0.77300  1.0000 0.1205542107
H   H160      1.0  0.67620  0.05960  0.49120  1.0000 0.1205542107
H   H161      1.0  0.77300  0.49120  0.05960  1.0000 0.1205542107
H   H162      1.0  0.49120  0.67620  0.05960  1.0000 0.1205542107
H   H163      1.0  0.32380  0.22700  0.50880  1.0000 0.1205542107
H   H164      1.0  0.22700  0.32380  0.94040  1.0000 0.1205542107
H   H165      1.0  0.50880  0.22700  0.94040  1.0000 0.1205542107
H   H166      1.0  0.32380  0.94040  0.22700  1.0000 0.1205542107
H   H167      1.0  0.32380  0.50880  0.94040  1.0000 0.1205542107
H   H168      1.0  0.94040  0.22700  0.32380  1.0000 0.1205542107
H   H169      1.0  0.29560  0.39200  0.92040  1.0000 0.1205542107
H   H170      1.0  0.60800  0.07960  0.70440  1.0000 0.1205542107
H   H171      1.0  0.39200  0.29560  0.39200  1.0000 0.1205542107
H   H172      1.0  0.07960  0.60800  0.60800  1.0000 0.1205542107
H   H173      1.0  0.60800  0.60800  0.70440  1.0000 0.1205542107
H   H174      1.0  0.39200  0.92040  0.39200  1.0000 0.1205542107
H   H175      1.0  0.07960  0.70440  0.60800  1.0000 0.1205542107
H   H176      1.0  0.60800  0.07960  0.60800  1.0000 0.1205542107
H   H177      1.0  0.92040  0.39200  0.29560  1.0000 0.1205542107
H   H178      1.0  0.60800  0.70440  0.60800  1.0000 0.1205542107
H   H179      1.0  0.92040  0.29560  0.39200  1.0000 0.1205542107
H   H180      1.0  0.39200  0.92040  0.29560  1.0000 0.1205542107
H   H181      1.0  0.92040  0.39200  0.39200  1.0000 0.1205542107
H   H182      1.0  0.39200  0.39200  0.29560  1.0000 0.1205542107
H   H183      1.0  0.29560  0.39200  0.39200  1.0000 0.1205542107
H   H184      1.0  0.29560  0.92040  0.39200  1.0000 0.1205542107
H   H185      1.0  0.39200  0.39200  0.92040  1.0000 0.1205542107
H   H186      1.0  0.39200  0.29560  0.92040  1.0000 0.1205542107
H   H187      1.0  0.70440  0.60800  0.60800  1.0000 0.1205542107
H   H188      1.0  0.60800  0.70440  0.07960  1.0000 0.1205542107
H   H189      1.0  0.60800  0.60800  0.07960  1.0000 0.1205542107
H   H190      1.0  0.70440  0.07960  0.60800  1.0000 0.1205542107
H   H191      1.0  0.70440  0.60800  0.07960  1.0000 0.1205542107
H   H192      1.0  0.07960  0.60800  0.70440  1.0000 0.1205542107
C   C1        1.0  0.19130  0.07210  0.98890  1.0000 0.5838779575
C   C2        1.0  0.25230  0.01110  0.80870  1.0000 0.5838779575
C   C3        1.0  0.07210  0.19130  0.74770  1.0000 0.5838779575
C   C4        1.0  0.01110  0.25230  0.92790  1.0000 0.5838779575
C   C5        1.0  0.92790  0.25230  0.80870  1.0000 0.5838779575
C   C6        1.0  0.74770  0.98890  0.07210  1.0000 0.5838779575
C   C7        1.0  0.01110  0.80870  0.25230  1.0000 0.5838779575
C   C8        1.0  0.92790  0.01110  0.25230  1.0000 0.5838779575
C   C9        1.0  0.98890  0.74770  0.19130  1.0000 0.5838779575
C   C10       1.0  0.25230  0.80870  0.92790  1.0000 0.5838779575
C   C11       1.0  0.98890  0.19130  0.07210  1.0000 0.5838779575
C   C12       1.0  0.07210  0.98890  0.19130  1.0000 0.5838779575
C   C13       1.0  0.98890  0.07210  0.74770  1.0000 0.5838779575
C   C14       1.0  0.74770  0.07210  0.19130  1.0000 0.5838779575
C   C15       1.0  0.19130  0.74770  0.07210  1.0000 0.5838779575
C   C16       1.0  0.19130  0.98890  0.74770  1.0000 0.5838779575
C   C17       1.0  0.07210  0.74770  0.98890  1.0000 0.5838779575
C   C18       1.0  0.74770  0.19130  0.98890  1.0000 0.5838779575
C   C19       1.0  0.80870  0.92790  0.25230  1.0000 0.5838779575
C   C20       1.0  0.92790  0.80870  0.01110  1.0000 0.5838779575
C   C21       1.0  0.25230  0.92790  0.01110  1.0000 0.5838779575
C   C22       1.0  0.80870  0.01110  0.92790  1.0000 0.5838779575
C   C23       1.0  0.80870  0.25230  0.01110  1.0000 0.5838779575
C   C24       1.0  0.01110  0.92790  0.80870  1.0000 0.5838779575
C   C25       1.0  0.80870  0.92790  0.01110  1.0000 0.5838779575
C   C26       1.0  0.74770  0.98890  0.19130  1.0000 0.5838779575
C   C27       1.0  0.92790  0.80870  0.25230  1.0000 0.5838779575
C   C28       1.0  0.98890  0.74770  0.07210  1.0000 0.5838779575
C   C29       1.0  0.07210  0.74770  0.19130  1.0000 0.5838779575
C   C30       1.0  0.25230  0.01110  0.92790  1.0000 0.5838779575
C   C31       1.0  0.98890  0.19130  0.74770  1.0000 0.5838779575
C   C32       1.0  0.07210  0.98890  0.74770  1.0000 0.5838779575
C   C33       1.0  0.01110  0.25230  0.80870  1.0000 0.5838779575
C   C34       1.0  0.74770  0.19130  0.07210  1.0000 0.5838779575
C   C35       1.0  0.01110  0.80870  0.92790  1.0000 0.5838779575
C   C36       1.0  0.92790  0.01110  0.80870  1.0000 0.5838779575
C   C37       1.0  0.01110  0.92790  0.25230  1.0000 0.5838779575
C   C38       1.0  0.25230  0.92790  0.80870  1.0000 0.5838779575
C   C39       1.0  0.80870  0.25230  0.92790  1.0000 0.5838779575
C   C40       1.0  0.80870  0.01110  0.25230  1.0000 0.5838779575
C   C41       1.0  0.92790  0.25230  0.01110  1.0000 0.5838779575
C   C42       1.0  0.25230  0.80870  0.01110  1.0000 0.5838779575
C   C43       1.0  0.19130  0.07210  0.74770  1.0000 0.5838779575
C   C44       1.0  0.07210  0.19130  0.98890  1.0000 0.5838779575
C   C45       1.0  0.74770  0.07210  0.98890  1.0000 0.5838779575
C   C46       1.0  0.19130  0.98890  0.07210  1.0000 0.5838779575
C   C47       1.0  0.19130  0.74770  0.98890  1.0000 0.5838779575
C   C48       1.0  0.98890  0.07210  0.19130  1.0000 0.5838779575
C   C49       1.0  0.13320  0.13320  0.98740  1.0000 -0.0869864128
C   C50       1.0  0.25380  0.01260  0.86680  1.0000 -0.0869864128
C   C51       1.0  0.13320  0.13320  0.74620  1.0000 -0.0869864128
C   C52       1.0  0.01260  0.25380  0.86680  1.0000 -0.0869864128
C   C53       1.0  0.86680  0.25380  0.86680  1.0000 -0.0869864128
C   C54       1.0  0.74620  0.98740  0.13320  1.0000 -0.0869864128
C   C55       1.0  0.01260  0.86680  0.25380  1.0000 -0.0869864128
C   C56       1.0  0.86680  0.01260  0.25380  1.0000 -0.0869864128
C   C57       1.0  0.98740  0.74620  0.13320  1.0000 -0.0869864128
C   C58       1.0  0.25380  0.86680  0.86680  1.0000 -0.0869864128
C   C59       1.0  0.98740  0.13320  0.13320  1.0000 -0.0869864128
C   C60       1.0  0.13320  0.98740  0.13320  1.0000 -0.0869864128
C   C61       1.0  0.98740  0.13320  0.74620  1.0000 -0.0869864128
C   C62       1.0  0.74620  0.13320  0.13320  1.0000 -0.0869864128
C   C63       1.0  0.13320  0.74620  0.13320  1.0000 -0.0869864128
C   C64       1.0  0.13320  0.98740  0.74620  1.0000 -0.0869864128
C   C65       1.0  0.13320  0.74620  0.98740  1.0000 -0.0869864128
C   C66       1.0  0.74620  0.13320  0.98740  1.0000 -0.0869864128
C   C67       1.0  0.86680  0.86680  0.25380  1.0000 -0.0869864128
C   C68       1.0  0.86680  0.86680  0.01260  1.0000 -0.0869864128
C   C69       1.0  0.25380  0.86680  0.01260  1.0000 -0.0869864128
C   C70       1.0  0.86680  0.01260  0.86680  1.0000 -0.0869864128
C   C71       1.0  0.86680  0.25380  0.01260  1.0000 -0.0869864128
C   C72       1.0  0.01260  0.86680  0.86680  1.0000 -0.0869864128
C   C73       1.0  0.17183  0.11437  0.98475  1.0000 -0.0294597414
C   C74       1.0  0.27095  0.01525  0.82817  1.0000 -0.0294597414
C   C75       1.0  0.11437  0.17183  0.72905  1.0000 -0.0294597414
C   C76       1.0  0.01525  0.27095  0.88563  1.0000 -0.0294597414
C   C77       1.0  0.88563  0.27095  0.82817  1.0000 -0.0294597414
C   C78       1.0  0.72905  0.98475  0.11437  1.0000 -0.0294597414
C   C79       1.0  0.01525  0.82817  0.27095  1.0000 -0.0294597414
C   C80       1.0  0.88563  0.01525  0.27095  1.0000 -0.0294597414
C   C81       1.0  0.98475  0.72905  0.17183  1.0000 -0.0294597414
C   C82       1.0  0.27095  0.82817  0.88563  1.0000 -0.0294597414
C   C83       1.0  0.98475  0.17183  0.11437  1.0000 -0.0294597414
C   C84       1.0  0.11437  0.98475  0.17183  1.0000 -0.0294597414
C   C85       1.0  0.98475  0.11437  0.72905  1.0000 -0.0294597414
C   C86       1.0  0.72905  0.11437  0.17183  1.0000 -0.0294597414
C   C87       1.0  0.17183  0.72905  0.11437  1.0000 -0.0294597414
C   C88       1.0  0.17183  0.98475  0.72905  1.0000 -0.0294597414
C   C89       1.0  0.11437  0.72905  0.98475  1.0000 -0.0294597414
C   C90       1.0  0.72905  0.17183  0.98475  1.0000 -0.0294597414
C   C91       1.0  0.82817  0.88563  0.27095  1.0000 -0.0294597414
C   C92       1.0  0.88563  0.82817  0.01525  1.0000 -0.0294597414
C   C93       1.0  0.27095  0.88563  0.01525  1.0000 -0.0294597414
C   C94       1.0  0.82817  0.01525  0.88563  1.0000 -0.0294597414
C   C95       1.0  0.82817  0.27095  0.01525  1.0000 -0.0294597414
C   C96       1.0  0.01525  0.88563  0.82817  1.0000 -0.0294597414
C   C97       1.0  0.82817  0.88563  0.01525  1.0000 -0.0294597414
C   C98       1.0  0.72905  0.98475  0.17183  1.0000 -0.0294597414
C   C99       1.0  0.88563  0.82817  0.27095  1.0000 -0.0294597414
C   C100      1.0  0.98475  0.72905  0.11437  1.0000 -0.0294597414
C   C101      1.0  0.11437  0.72905  0.17183  1.0000 -0.0294597414
C   C102      1.0  0.27095  0.01525  0.88563  1.0000 -0.0294597414
C   C103      1.0  0.98475  0.17183  0.72905  1.0000 -0.0294597414
C   C104      1.0  0.11437  0.98475  0.72905  1.0000 -0.0294597414
C   C105      1.0  0.01525  0.27095  0.82817  1.0000 -0.0294597414
C   C106      1.0  0.72905  0.17183  0.11437  1.0000 -0.0294597414
C   C107      1.0  0.01525  0.82817  0.88563  1.0000 -0.0294597414
C   C108      1.0  0.88563  0.01525  0.82817  1.0000 -0.0294597414
C   C109      1.0  0.01525  0.88563  0.27095  1.0000 -0.0294597414
C   C110      1.0  0.27095  0.88563  0.82817  1.0000 -0.0294597414
C   C111      1.0  0.82817  0.27095  0.88563  1.0000 -0.0294597414
C   C112      1.0  0.82817  0.01525  0.27095  1.0000 -0.0294597414
C   C113      1.0  0.88563  0.27095  0.01525  1.0000 -0.0294597414
C   C114      1.0  0.27095  0.82817  0.01525  1.0000 -0.0294597414
C   C115      1.0  0.17183  0.11437  0.72905  1.0000 -0.0294597414
C   C116      1.0  0.11437  0.17183  0.98475  1.0000 -0.0294597414
C   C117      1.0  0.72905  0.11437  0.98475  1.0000 -0.0294597414
C   C118      1.0  0.17183  0.98475  0.11437  1.0000 -0.0294597414
C   C119      1.0  0.17183  0.72905  0.98475  1.0000 -0.0294597414
C   C120      1.0  0.98475  0.11437  0.17183  1.0000 -0.0294597414
C   C121      1.0  0.19317  0.13563  0.97795  1.0000 -0.1285583091
C   C122      1.0  0.30675  0.02205  0.80683  1.0000 -0.1285583091
C   C123      1.0  0.13563  0.19317  0.69325  1.0000 -0.1285583091
C   C124      1.0  0.02205  0.30675  0.86437  1.0000 -0.1285583091
C   C125      1.0  0.86437  0.30675  0.80683  1.0000 -0.1201735684
C   C126      1.0  0.69325  0.97795  0.13563  1.0000 -0.1285583091
C   C127      1.0  0.02205  0.80683  0.30675  1.0000 -0.1285583091
C   C128      1.0  0.86437  0.02205  0.30675  1.0000 -0.1285583091
C   C129      1.0  0.97795  0.69325  0.19317  1.0000 -0.1285583091
C   C130      1.0  0.30675  0.80683  0.86437  1.0000 -0.1285583091
C   C131      1.0  0.97795  0.19317  0.13563  1.0000 -0.1285583091
C   C132      1.0  0.13563  0.97795  0.19317  1.0000 -0.1285583091
C   C133      1.0  0.97795  0.13563  0.69325  1.0000 -0.1285583091
C   C134      1.0  0.69325  0.13563  0.19317  1.0000 -0.1285583091
C   C135      1.0  0.19317  0.69325  0.13563  1.0000 -0.1285583091
C   C136      1.0  0.19317  0.97795  0.69325  1.0000 -0.1285583091
C   C137      1.0  0.13563  0.69325  0.97795  1.0000 -0.1285583091
C   C138      1.0  0.69325  0.19317  0.97795  1.0000 -0.1285583091
C   C139      1.0  0.80683  0.86437  0.30675  1.0000 -0.1285583091
C   C140      1.0  0.86437  0.80683  0.02205  1.0000 -0.1285583091
C   C141      1.0  0.30675  0.86437  0.02205  1.0000 -0.1285583091
C   C142      1.0  0.80683  0.02205  0.86437  1.0000 -0.1285583091
C   C143      1.0  0.80683  0.30675  0.02205  1.0000 -0.1285583091
C   C144      1.0  0.02205  0.86437  0.80683  1.0000 -0.1285583091
C   C145      1.0  0.80683  0.86437  0.02205  1.0000 -0.1285583091
C   C146      1.0  0.69325  0.97795  0.19317  1.0000 -0.1285583091
C   C147      1.0  0.86437  0.80683  0.30675  1.0000 -0.1285583091
C   C148      1.0  0.97795  0.69325  0.13563  1.0000 -0.1285583091
C   C149      1.0  0.13563  0.69325  0.19317  1.0000 -0.1285583091
C   C150      1.0  0.30675  0.02205  0.86437  1.0000 -0.1285583091
C   C151      1.0  0.97795  0.19317  0.69325  1.0000 -0.1285583091
C   C152      1.0  0.13563  0.97795  0.69325  1.0000 -0.1285583091
C   C153      1.0  0.02205  0.30675  0.80683  1.0000 -0.1285583091
C   C154      1.0  0.69325  0.19317  0.13563  1.0000 -0.1285583091
C   C155      1.0  0.02205  0.80683  0.86437  1.0000 -0.1285583091
C   C156      1.0  0.86437  0.02205  0.80683  1.0000 -0.1285583091
C   C157      1.0  0.02205  0.86437  0.30675  1.0000 -0.1285583091
C   C158      1.0  0.30675  0.86437  0.80683  1.0000 -0.1285583091
C   C159      1.0  0.80683  0.30675  0.86437  1.0000 -0.1285583091
C   C160      1.0  0.80683  0.02205  0.30675  1.0000 -0.1285583091
C   C161      1.0  0.86437  0.30675  0.02205  1.0000 -0.1285583091
C   C162      1.0  0.30675  0.80683  0.02205  1.0000 -0.1285583091
C   C163      1.0  0.19317  0.13563  0.69325  1.0000 -0.1285583091
C   C164      1.0  0.13563  0.19317  0.97795  1.0000 -0.1285583091
C   C165      1.0  0.69325  0.13563  0.97795  1.0000 -0.1285583091
C   C166      1.0  0.19317  0.97795  0.13563  1.0000 -0.1285583091
C   C167      1.0  0.19317  0.69325  0.97795  1.0000 -0.1285583091
C   C168      1.0  0.97795  0.13563  0.19317  1.0000 -0.1285583091
C   C169      1.0  0.17510  0.17510  0.97402  1.0000 0.11125468
C   C170      1.0  0.32422  0.02598  0.82490  1.0000 0.11125468
C   C171      1.0  0.17510  0.17510  0.67578  1.0000 0.11125468
C   C172      1.0  0.02598  0.32422  0.82490  1.0000 0.11125468
C   C173      1.0  0.82490  0.32422  0.82490  1.0000 0.11125468
C   C174      1.0  0.67578  0.97402  0.17510  1.0000 0.11125468
C   C175      1.0  0.02598  0.82490  0.32422  1.0000 0.11125468
C   C176      1.0  0.82490  0.02598  0.32422  1.0000 0.11125468
C   C177      1.0  0.97402  0.67578  0.17510  1.0000 0.11125468
C   C178      1.0  0.32422  0.82490  0.82490  1.0000 0.11125468
C   C179      1.0  0.97402  0.17510  0.17510  1.0000 0.11125468
C   C180      1.0  0.17510  0.97402  0.17510  1.0000 0.11125468
C   C181      1.0  0.97402  0.17510  0.67578  1.0000 0.11125468
C   C182      1.0  0.67578  0.17510  0.17510  1.0000 0.11125468
C   C183      1.0  0.17510  0.67578  0.17510  1.0000 0.11125468
C   C184      1.0  0.17510  0.97402  0.67578  1.0000 0.11125468
C   C185      1.0  0.17510  0.67578  0.97402  1.0000 0.11125468
C   C186      1.0  0.67578  0.17510  0.97402  1.0000 0.11125468
C   C187      1.0  0.82490  0.82490  0.32422  1.0000 0.11125468
C   C188      1.0  0.82490  0.82490  0.02598  1.0000 0.11125468
C   C189      1.0  0.32422  0.82490  0.02598  1.0000 0.11125468
C   C190      1.0  0.82490  0.02598  0.82490  1.0000 0.11125468
C   C191      1.0  0.82490  0.32422  0.02598  1.0000 0.11125468
C   C192      1.0  0.02598  0.82490  0.82490  1.0000 0.11125468
C   C193      1.0  0.19690  0.19690  0.96710  1.0000 -0.079214935
C   C194      1.0  0.36090  0.03290  0.80310  1.0000 -0.079214935
C   C195      1.0  0.19690  0.19690  0.63910  1.0000 -0.079214935
C   C196      1.0  0.03290  0.36090  0.80310  1.0000 -0.079214935
C   C197      1.0  0.80310  0.36090  0.80310  1.0000 -0.079214935
C   C198      1.0  0.63910  0.96710  0.19690  1.0000 -0.079214935
C   C199      1.0  0.03290  0.80310  0.36090  1.0000 -0.079214935
C   C200      1.0  0.80310  0.03290  0.36090  1.0000 -0.079214935
C   C201      1.0  0.96710  0.63910  0.19690  1.0000 -0.079214935
C   C202      1.0  0.36090  0.80310  0.80310  1.0000 -0.079214935
C   C203      1.0  0.96710  0.19690  0.19690  1.0000 -0.079214935
C   C204      1.0  0.19690  0.96710  0.19690  1.0000 -0.079214935
C   C205      1.0  0.96710  0.19690  0.63910  1.0000 -0.079214935
C   C206      1.0  0.63910  0.19690  0.19690  1.0000 -0.079214935
C   C207      1.0  0.19690  0.63910  0.19690  1.0000 -0.079214935
C   C208      1.0  0.19690  0.96710  0.63910  1.0000 -0.079214935
C   C209      1.0  0.19690  0.63910  0.96710  1.0000 -0.079214935
C   C210      1.0  0.63910  0.19690  0.96710  1.0000 -0.079214935
C   C211      1.0  0.80310  0.80310  0.36090  1.0000 -0.079214935
C   C212      1.0  0.80310  0.80310  0.03290  1.0000 -0.079214935
C   C213      1.0  0.36090  0.80310  0.03290  1.0000 -0.079214935
C   C214      1.0  0.80310  0.03290  0.80310  1.0000 -0.079214935
C   C215      1.0  0.80310  0.36090  0.03290  1.0000 -0.079214935
C   C216      1.0  0.03290  0.80310  0.80310  1.0000 -0.079214935
C   C217      1.0  0.21490  0.21490  0.95930  1.0000 -0.100500306
C   C218      1.0  0.38910  0.04070  0.78510  1.0000 -0.100500306
C   C219      1.0  0.21490  0.21490  0.61090  1.0000 -0.100500306
C   C220      1.0  0.04070  0.38910  0.78510  1.0000 -0.100500306
C   C221      1.0  0.78510  0.38910  0.78510  1.0000 -0.100500306
C   C222      1.0  0.61090  0.95930  0.21490  1.0000 -0.100500306
C   C223      1.0  0.04070  0.78510  0.38910  1.0000 -0.100500306
C   C224      1.0  0.78510  0.04070  0.38910  1.0000 -0.100500306
C   C225      1.0  0.95930  0.61090  0.21490  1.0000 -0.100500306
C   C226      1.0  0.38910  0.78510  0.78510  1.0000 -0.100500306
C   C227      1.0  0.95930  0.21490  0.21490  1.0000 -0.100500306
C   C228      1.0  0.21490  0.95930  0.21490  1.0000 -0.100500306
C   C229      1.0  0.95930  0.21490  0.61090  1.0000 -0.100500306
C   C230      1.0  0.61090  0.21490  0.21490  1.0000 -0.100500306
C   C231      1.0  0.21490  0.61090  0.21490  1.0000 -0.100500306
C   C232      1.0  0.21490  0.95930  0.61090  1.0000 -0.100500306
C   C233      1.0  0.21490  0.61090  0.95930  1.0000 -0.100500306
C   C234      1.0  0.61090  0.21490  0.95930  1.0000 -0.100500306
C   C235      1.0  0.78510  0.78510  0.38910  1.0000 -0.100500306
C   C236      1.0  0.78510  0.78510  0.04070  1.0000 -0.100500306
C   C237      1.0  0.38910  0.78510  0.04070  1.0000 -0.100500306
C   C238      1.0  0.78510  0.04070  0.78510  1.0000 -0.100500306
C   C239      1.0  0.78510  0.38910  0.04070  1.0000 -0.100500306
C   C240      1.0  0.04070  0.78510  0.78510  1.0000 -0.100500306
C   C241      1.0  0.23650  0.23650  0.95250  1.0000 0.11125468
C   C242      1.0  0.42550  0.04750  0.76350  1.0000 0.11125468
C   C243      1.0  0.23650  0.23650  0.57450  1.0000 0.11125468
C   C244      1.0  0.04750  0.42550  0.76350  1.0000 0.11125468
C   C245      1.0  0.76350  0.42550  0.76350  1.0000 0.11125468
C   C246      1.0  0.57450  0.95250  0.23650  1.0000 0.11125468
C   C247      1.0  0.04750  0.76350  0.42550  1.0000 0.11125468
C   C248      1.0  0.76350  0.04750  0.42550  1.0000 0.11125468
C   C249      1.0  0.95250  0.57450  0.23650  1.0000 0.11125468
C   C250      1.0  0.42550  0.76350  0.76350  1.0000 0.11125468
C   C251      1.0  0.95250  0.23650  0.23650  1.0000 0.11125468
C   C252      1.0  0.23650  0.95250  0.23650  1.0000 0.11125468
C   C253      1.0  0.95250  0.23650  0.57450  1.0000 0.11125468
C   C254      1.0  0.57450  0.23650  0.23650  1.0000 0.11125468
C   C255      1.0  0.23650  0.57450  0.23650  1.0000 0.11125468
C   C256      1.0  0.23650  0.95250  0.57450  1.0000 0.1205542107
C   C257      1.0  0.23650  0.57450  0.95250  1.0000 0.11125468
C   C258      1.0  0.57450  0.23650  0.95250  1.0000 0.11125468
C   C259      1.0  0.76350  0.76350  0.42550  1.0000 0.11125468
C   C260      1.0  0.76350  0.76350  0.04750  1.0000 0.11125468
C   C261      1.0  0.42550  0.76350  0.04750  1.0000 0.11125468
C   C262      1.0  0.76350  0.04750  0.76350  1.0000 0.11125468
C   C263      1.0  0.76350  0.42550  0.04750  1.0000 0.11125468
C   C264      1.0  0.04750  0.76350  0.76350  1.0000 0.11125468
C   C265      1.0  0.27580  0.21840  0.94920  1.0000 -0.1285583091
C   C266      1.0  0.44340  0.05080  0.72420  1.0000 -0.1285583091
C   C267      1.0  0.21840  0.27580  0.55660  1.0000 -0.1358336793
C   C268      1.0  0.05080  0.44340  0.78160  1.0000 -0.1285583091
C   C269      1.0  0.78160  0.44340  0.72420  1.0000 -0.1358336793
C   C270      1.0  0.55660  0.94920  0.21840  1.0000 -0.1285583091
C   C271      1.0  0.05080  0.72420  0.44340  1.0000 -0.1358336793
C   C272      1.0  0.78160  0.05080  0.44340  1.0000 -0.1358336793
C   C273      1.0  0.94920  0.55660  0.27580  1.0000 -0.1285583091
C   C274      1.0  0.44340  0.72420  0.78160  1.0000 -0.1285583091
C   C275      1.0  0.94920  0.27580  0.21840  1.0000 -0.1285583091
C   C276      1.0  0.21840  0.94920  0.27580  1.0000 -0.1285583091
C   C277      1.0  0.94920  0.21840  0.55660  1.0000 -0.1285583091
C   C278      1.0  0.55660  0.21840  0.27580  1.0000 -0.1285583091
C   C279      1.0  0.27580  0.55660  0.21840  1.0000 -0.1358336793
C   C280      1.0  0.27580  0.94920  0.55660  1.0000 -0.1358336793
C   C281      1.0  0.21840  0.55660  0.94920  1.0000 -0.1285583091
C   C282      1.0  0.55660  0.27580  0.94920  1.0000 -0.1285583091
C   C283      1.0  0.72420  0.78160  0.44340  1.0000 -0.1358336793
C   C284      1.0  0.78160  0.72420  0.05080  1.0000 -0.1285583091
C   C285      1.0  0.44340  0.78160  0.05080  1.0000 -0.1285583091
C   C286      1.0  0.72420  0.05080  0.78160  1.0000 -0.1285583091
C   C287      1.0  0.72420  0.44340  0.05080  1.0000 -0.1285583091
C   C288      1.0  0.05080  0.78160  0.72420  1.0000 -0.1285583091
C   C289      1.0  0.72420  0.78160  0.05080  1.0000 -0.1285583091
C   C290      1.0  0.55660  0.94920  0.27580  1.0000 -0.1285583091
C   C291      1.0  0.78160  0.72420  0.44340  1.0000 -0.1358336793
C   C292      1.0  0.94920  0.55660  0.21840  1.0000 -0.1285583091
C   C293      1.0  0.21840  0.55660  0.27580  1.0000 -0.1358336793
C   C294      1.0  0.44340  0.05080  0.78160  1.0000 -0.1285583091
C   C295      1.0  0.94920  0.27580  0.55660  1.0000 -0.1285583091
C   C296      1.0  0.21840  0.94920  0.55660  1.0000 -0.1358336793
C   C297      1.0  0.05080  0.44340  0.72420  1.0000 -0.1358336793
C   C298      1.0  0.55660  0.27580  0.21840  1.0000 -0.1285583091
C   C299      1.0  0.05080  0.72420  0.78160  1.0000 -0.1285583091
C   C300      1.0  0.78160  0.05080  0.72420  1.0000 -0.1285583091
C   C301      1.0  0.05080  0.78160  0.44340  1.0000 -0.1358336793
C   C302      1.0  0.44340  0.78160  0.72420  1.0000 -0.1358336793
C   C303      1.0  0.72420  0.44340  0.78160  1.0000 -0.1285583091
C   C304      1.0  0.72420  0.05080  0.44340  1.0000 -0.1358336793
C   C305      1.0  0.78160  0.44340  0.05080  1.0000 -0.1285583091
C   C306      1.0  0.44340  0.72420  0.05080  1.0000 -0.1285583091
C   C307      1.0  0.27580  0.21840  0.55660  1.0000 -0.1358336793
C   C308      1.0  0.21840  0.27580  0.94920  1.0000 -0.1285583091
C   C309      1.0  0.55660  0.21840  0.94920  1.0000 -0.1285583091
C   C310      1.0  0.27580  0.94920  0.21840  1.0000 -0.1285583091
C   C311      1.0  0.27580  0.55660  0.94920  1.0000 -0.1285583091
C   C312      1.0  0.94920  0.21840  0.27580  1.0000 -0.1358336793
C   C313      1.0  0.29690  0.23950  0.94270  1.0000 -0.1201735684
C   C314      1.0  0.47910  0.05730  0.70310  1.0000 -0.1201735684
C   C315      1.0  0.23950  0.29690  0.52090  1.0000 -0.1201735684
C   C316      1.0  0.05730  0.47910  0.76050  1.0000 -0.1201735684
C   C317      1.0  0.76050  0.47910  0.70310  1.0000 -0.1201735684
C   C318      1.0  0.52090  0.94270  0.23950  1.0000 -0.1201735684
C   C319      1.0  0.05730  0.70310  0.47910  1.0000 -0.1201735684
C   C320      1.0  0.76050  0.05730  0.47910  1.0000 -0.1201735684
C   C321      1.0  0.94270  0.52090  0.29690  1.0000 -0.1201735684
C   C322      1.0  0.47910  0.70310  0.76050  1.0000 -0.1201735684
C   C323      1.0  0.94270  0.29690  0.23950  1.0000 -0.1201735684
C   C324      1.0  0.23950  0.94270  0.29690  1.0000 -0.1285583091
C   C325      1.0  0.94270  0.23950  0.52090  1.0000 -0.1201735684
C   C326      1.0  0.52090  0.23950  0.29690  1.0000 -0.1201735684
C   C327      1.0  0.29690  0.52090  0.23950  1.0000 -0.1201735684
C   C328      1.0  0.29690  0.94270  0.52090  1.0000 -0.1201735684
C   C329      1.0  0.23950  0.52090  0.94270  1.0000 -0.1201735684
C   C330      1.0  0.52090  0.29690  0.94270  1.0000 -0.1285583091
C   C331      1.0  0.70310  0.76050  0.47910  1.0000 -0.1201735684
C   C332      1.0  0.76050  0.70310  0.05730  1.0000 -0.1285583091
C   C333      1.0  0.47910  0.76050  0.05730  1.0000 -0.1285583091
C   C334      1.0  0.70310  0.05730  0.76050  1.0000 -0.1201735684
C   C335      1.0  0.70310  0.47910  0.05730  1.0000 -0.1285583091
C   C336      1.0  0.05730  0.76050  0.70310  1.0000 -0.1285583091
C   C337      1.0  0.70310  0.76050  0.05730  1.0000 -0.1285583091
C   C338      1.0  0.52090  0.94270  0.29690  1.0000 -0.1285583091
C   C339      1.0  0.76050  0.70310  0.47910  1.0000 -0.1201735684
C   C340      1.0  0.94270  0.52090  0.23950  1.0000 -0.1201735684
C   C341      1.0  0.23950  0.52090  0.29690  1.0000 -0.1201735684
C   C342      1.0  0.47910  0.05730  0.76050  1.0000 -0.1201735684
C   C343      1.0  0.94270  0.29690  0.52090  1.0000 -0.1201735684
C   C344      1.0  0.23950  0.94270  0.52090  1.0000 -0.1201735684
C   C345      1.0  0.05730  0.47910  0.70310  1.0000 -0.1201735684
C   C346      1.0  0.52090  0.29690  0.23950  1.0000 -0.1201735684
C   C347      1.0  0.05730  0.70310  0.76050  1.0000 -0.1201735684
C   C348      1.0  0.76050  0.05730  0.70310  1.0000 -0.1201735684
C   C349      1.0  0.05730  0.76050  0.47910  1.0000 -0.1201735684
C   C350      1.0  0.47910  0.76050  0.70310  1.0000 -0.1201735684
C   C351      1.0  0.70310  0.47910  0.76050  1.0000 -0.1201735684
C   C352      1.0  0.70310  0.05730  0.47910  1.0000 -0.1201735684
C   C353      1.0  0.76050  0.47910  0.05730  1.0000 -0.1285583091
C   C354      1.0  0.47910  0.70310  0.05730  1.0000 -0.1285583091
C   C355      1.0  0.29690  0.23950  0.52090  1.0000 -0.1201735684
C   C356      1.0  0.23950  0.29690  0.94270  1.0000 -0.1201735684
C   C357      1.0  0.52090  0.23950  0.94270  1.0000 -0.1201735684
C   C358      1.0  0.29690  0.94270  0.23950  1.0000 -0.1201735684
C   C359      1.0  0.29690  0.52090  0.94270  1.0000 -0.1201735684
C   C360      1.0  0.94270  0.23950  0.29690  1.0000 -0.1201735684
C   C361      1.0  0.27890  0.27890  0.93930  1.0000 0.1205542107
C   C362      1.0  0.49710  0.06070  0.72110  1.0000 0.1205542107
C   C363      1.0  0.27890  0.27890  0.50290  1.0000 0.1205542107
C   C364      1.0  0.06070  0.49710  0.72110  1.0000 0.1205542107
C   C365      1.0  0.72110  0.49710  0.72110  1.0000 0.1205542107
C   C366      1.0  0.50290  0.93930  0.27890  1.0000 0.1205542107
C   C367      1.0  0.06070  0.72110  0.49710  1.0000 0.1205542107
C   C368      1.0  0.72110  0.06070  0.49710  1.0000 0.1205542107
C   C369      1.0  0.93930  0.50290  0.27890  1.0000 0.1205542107
C   C370      1.0  0.49710  0.72110  0.72110  1.0000 0.1205542107
C   C371      1.0  0.93930  0.27890  0.27890  1.0000 0.1205542107
C   C372      1.0  0.27890  0.93930  0.27890  1.0000 0.1205542107
C   C373      1.0  0.93930  0.27890  0.50290  1.0000 0.1205542107
C   C374      1.0  0.50290  0.27890  0.27890  1.0000 0.1205542107
C   C375      1.0  0.27890  0.50290  0.27890  1.0000 0.1205542107
C   C376      1.0  0.27890  0.93930  0.50290  1.0000 0.1205542107
C   C377      1.0  0.27890  0.50290  0.93930  1.0000 0.1205542107
C   C378      1.0  0.50290  0.27890  0.93930  1.0000 0.1205542107
C   C379      1.0  0.72110  0.72110  0.49710  1.0000 0.1205542107
C   C380      1.0  0.72110  0.72110  0.06070  1.0000 0.1205542107
C   C381      1.0  0.49710  0.72110  0.06070  1.0000 0.1205542107
C   C382      1.0  0.72110  0.06070  0.72110  1.0000 0.1205542107
C   C383      1.0  0.72110  0.49710  0.06070  1.0000 0.1205542107
C   C384      1.0  0.06070  0.72110  0.72110  1.0000 0.1205542107
C   C385      1.0  0.30070  0.30070  0.93250  1.0000 -0.1201735684
C   C386      1.0  0.53390  0.06750  0.69930  1.0000 -0.1201735684
C   C387      1.0  0.30070  0.30070  0.46610  1.0000 -0.1135250494
C   C388      1.0  0.06750  0.53390  0.69930  1.0000 -0.1201735684
C   C389      1.0  0.69930  0.53390  0.69930  1.0000 -0.1201735684
C   C390      1.0  0.46610  0.93250  0.30070  1.0000 -0.1201735684
C   C391      1.0  0.06750  0.69930  0.53390  1.0000 -0.1201735684
C   C392      1.0  0.69930  0.06750  0.53390  1.0000 -0.1201735684
C   C393      1.0  0.93250  0.46610  0.30070  1.0000 -0.1135250494
C   C394      1.0  0.53390  0.69930  0.69930  1.0000 -0.1201735684
C   C395      1.0  0.93250  0.30070  0.30070  1.0000 -0.1201735684
C   C396      1.0  0.30070  0.93250  0.30070  1.0000 -0.1201735684
C   C397      1.0  0.93250  0.30070  0.46610  1.0000 -0.1135250494
C   C398      1.0  0.46610  0.30070  0.30070  1.0000 -0.1201735684
C   C399      1.0  0.30070  0.46610  0.30070  1.0000 -0.1201735684
C   C400      1.0  0.30070  0.93250  0.46610  1.0000 -0.1201735684
C   C401      1.0  0.30070  0.46610  0.93250  1.0000 -0.1201735684
C   C402      1.0  0.46610  0.30070  0.93250  1.0000 -0.1201735684
C   C403      1.0  0.69930  0.69930  0.53390  1.0000 -0.1135250494
C   C404      1.0  0.69930  0.69930  0.06750  1.0000 -0.1201735684
C   C405      1.0  0.53390  0.69930  0.06750  1.0000 -0.1201735684
C   C406      1.0  0.69930  0.06750  0.69930  1.0000 -0.1201735684
C   C407      1.0  0.69930  0.53390  0.06750  1.0000 -0.1201735684
C   C408      1.0  0.06750  0.69930  0.69930  1.0000 -0.1201735684
C   C409      1.0  0.31880  0.31880  0.92680  1.0000 -0.079214935
C   C410      1.0  0.56440  0.07320  0.68120  1.0000 -0.079214935
C   C411      1.0  0.31880  0.31880  0.43560  1.0000 -0.079214935
C   C412      1.0  0.07320  0.56440  0.68120  1.0000 -0.079214935
C   C413      1.0  0.68120  0.56440  0.68120  1.0000 -0.079214935
C   C414      1.0  0.43560  0.92680  0.31880  1.0000 -0.079214935
C   C415      1.0  0.07320  0.68120  0.56440  1.0000 -0.079214935
C   C416      1.0  0.68120  0.07320  0.56440  1.0000 -0.079214935
C   C417      1.0  0.92680  0.43560  0.31880  1.0000 -0.079214935
C   C418      1.0  0.56440  0.68120  0.68120  1.0000 -0.079214935
C   C419      1.0  0.92680  0.31880  0.31880  1.0000 -0.079214935
C   C420      1.0  0.31880  0.92680  0.31880  1.0000 -0.079214935
C   C421      1.0  0.92680  0.31880  0.43560  1.0000 -0.079214935
C   C422      1.0  0.43560  0.31880  0.31880  1.0000 -0.079214935
C   C423      1.0  0.31880  0.43560  0.31880  1.0000 -0.079214935
C   C424      1.0  0.31880  0.92680  0.43560  1.0000 -0.079214935
C   C425      1.0  0.31880  0.43560  0.92680  1.0000 -0.079214935
C   C426      1.0  0.43560  0.31880  0.92680  1.0000 -0.079214935
C   C427      1.0  0.68120  0.68120  0.56440  1.0000 -0.079214935
C   C428      1.0  0.68120  0.68120  0.07320  1.0000 -0.079214935
C   C429      1.0  0.56440  0.68120  0.07320  1.0000 -0.079214935
C   C430      1.0  0.68120  0.07320  0.68120  1.0000 -0.079214935
C   C431      1.0  0.68120  0.56440  0.07320  1.0000 -0.079214935
C   C432      1.0  0.07320  0.68120  0.68120  1.0000 -0.079214935
C   C433      1.0  0.32010  0.37770  0.92450  1.0000 -0.1779692033
C   C434      1.0  0.62230  0.07550  0.67990  1.0000 -0.1779692033
C   C435      1.0  0.37770  0.32010  0.37770  1.0000 -0.1779692033
C   C436      1.0  0.07550  0.62230  0.62230  1.0000 -0.1779692033
C   C437      1.0  0.62230  0.62230  0.67990  1.0000 -0.1779692033
C   C438      1.0  0.37770  0.92450  0.37770  1.0000 -0.1779692033
C   C439      1.0  0.07550  0.67990  0.62230  1.0000 -0.1779692033
C   C440      1.0  0.62230  0.07550  0.62230  1.0000 -0.1779692033
C   C441      1.0  0.92450  0.37770  0.32010  1.0000 -0.1779692033
C   C442      1.0  0.62230  0.67990  0.62230  1.0000 -0.1779692033
C   C443      1.0  0.92450  0.32010  0.37770  1.0000 -0.1779692033
C   C444      1.0  0.37770  0.92450  0.32010  1.0000 -0.1779692033
C   C445      1.0  0.92450  0.37770  0.37770  1.0000 -0.1779692033
C   C446      1.0  0.37770  0.37770  0.32010  1.0000 -0.1779692033
C   C447      1.0  0.32010  0.37770  0.37770  1.0000 -0.1779692033
C   C448      1.0  0.32010  0.92450  0.37770  1.0000 -0.1779692033
C   C449      1.0  0.37770  0.37770  0.92450  1.0000 -0.1779692033
C   C450      1.0  0.37770  0.32010  0.92450  1.0000 -0.1779692033
C   C451      1.0  0.67990  0.62230  0.62230  1.0000 -0.1779692033
C   C452      1.0  0.62230  0.67990  0.07550  1.0000 -0.1779692033
C   C453      1.0  0.62230  0.62230  0.07550  1.0000 -0.1779692033
C   C454      1.0  0.67990  0.07550  0.62230  1.0000 -0.1779692033
C   C455      1.0  0.67990  0.62230  0.07550  1.0000 -0.1779692033
C   C456      1.0  0.07550  0.62230  0.67990  1.0000 -0.1779692033
C   C457      1.0  0.33830  0.33830  0.92750  1.0000 0.1324512907
C   C458      1.0  0.60410  0.07250  0.66170  1.0000 0.1324512907
C   C459      1.0  0.33830  0.33830  0.39590  1.0000 0.1324512907
C   C460      1.0  0.07250  0.60410  0.66170  1.0000 0.1324512907
C   C461      1.0  0.66170  0.60410  0.66170  1.0000 0.1324512907
C   C462      1.0  0.39590  0.92750  0.33830  1.0000 0.1324512907
C   C463      1.0  0.07250  0.66170  0.60410  1.0000 0.1324512907
C   C464      1.0  0.66170  0.07250  0.60410  1.0000 0.1324512907
C   C465      1.0  0.92750  0.39590  0.33830  1.0000 0.1324512907
C   C466      1.0  0.60410  0.66170  0.66170  1.0000 0.1324512907
C   C467      1.0  0.92750  0.33830  0.33830  1.0000 0.1324512907
C   C468      1.0  0.33830  0.92750  0.33830  1.0000 0.1324512907
C   C469      1.0  0.92750  0.33830  0.39590  1.0000 0.1324512907
C   C470      1.0  0.39590  0.33830  0.33830  1.0000 0.1324512907
C   C471      1.0  0.33830  0.39590  0.33830  1.0000 0.1324512907
C   C472      1.0  0.33830  0.92750  0.39590  1.0000 0.1324512907
C   C473      1.0  0.33830  0.39590  0.92750  1.0000 0.1324512907
C   C474      1.0  0.39590  0.33830  0.92750  1.0000 0.1324512907
C   C475      1.0  0.66170  0.66170  0.60410  1.0000 0.1324512907
C   C476      1.0  0.66170  0.66170  0.07250  1.0000 0.1324512907
C   C477      1.0  0.60410  0.66170  0.07250  1.0000 0.1324512907
C   C478      1.0  0.66170  0.07250  0.66170  1.0000 0.1324512907
C   C479      1.0  0.66170  0.60410  0.07250  1.0000 0.1324512907
C   C480      1.0  0.07250  0.66170  0.66170  1.0000 0.1324512907
O   O1        1.0  0.17247  0.05533  0.99107  1.0000 -0.5059576809
O   O2        1.0  0.21887  0.00893  0.82753  1.0000 -0.5059576809
O   O3        1.0  0.05533  0.17247  0.78113  1.0000 -0.5059576809
O   O4        1.0  0.00893  0.21887  0.94467  1.0000 -0.5059576809
O   O5        1.0  0.94467  0.21887  0.82753  1.0000 -0.5059576809
O   O6        1.0  0.78113  0.99107  0.05533  1.0000 -0.5042299268
O   O7        1.0  0.00893  0.82753  0.21887  1.0000 -0.5059576809
O   O8        1.0  0.94467  0.00893  0.21887  1.0000 -0.5059576809
O   O9        1.0  0.99107  0.78113  0.17247  1.0000 -0.5042299268
O   O10       1.0  0.21887  0.82753  0.94467  1.0000 -0.5042299268
O   O11       1.0  0.99107  0.17247  0.05533  1.0000 -0.5059576809
O   O12       1.0  0.05533  0.99107  0.17247  1.0000 -0.5059576809
O   O13       1.0  0.99107  0.05533  0.78113  1.0000 -0.5059576809
O   O14       1.0  0.78113  0.05533  0.17247  1.0000 -0.5059576809
O   O15       1.0  0.17247  0.78113  0.05533  1.0000 -0.5059576809
O   O16       1.0  0.17247  0.99107  0.78113  1.0000 -0.5042299268
O   O17       1.0  0.05533  0.78113  0.99107  1.0000 -0.5059576809
O   O18       1.0  0.78113  0.17247  0.99107  1.0000 -0.5059576809
O   O19       1.0  0.82753  0.94467  0.21887  1.0000 -0.5059576809
O   O20       1.0  0.94467  0.82753  0.00893  1.0000 -0.5059576809
O   O21       1.0  0.21887  0.94467  0.00893  1.0000 -0.5042299268
O   O22       1.0  0.82753  0.00893  0.94467  1.0000 -0.5042299268
O   O23       1.0  0.82753  0.21887  0.00893  1.0000 -0.5042299268
O   O24       1.0  0.00893  0.94467  0.82753  1.0000 -0.5059576809
O   O25       1.0  0.82753  0.94467  0.00893  1.0000 -0.5042299268
O   O26       1.0  0.78113  0.99107  0.17247  1.0000 -0.5059576809
O   O27       1.0  0.94467  0.82753  0.21887  1.0000 -0.5059576809
O   O28       1.0  0.99107  0.78113  0.05533  1.0000 -0.5059576809
O   O29       1.0  0.05533  0.78113  0.17247  1.0000 -0.5042299268
O   O30       1.0  0.21887  0.00893  0.94467  1.0000 -0.5042299268
O   O31       1.0  0.99107  0.17247  0.78113  1.0000 -0.5059576809
O   O32       1.0  0.05533  0.99107  0.78113  1.0000 -0.5059576809
O   O33       1.0  0.00893  0.21887  0.82753  1.0000 -0.5059576809
O   O34       1.0  0.78113  0.17247  0.05533  1.0000 -0.5059576809
O   O35       1.0  0.00893  0.82753  0.94467  1.0000 -0.5042299268
O   O36       1.0  0.94467  0.00893  0.82753  1.0000 -0.5059576809
O   O37       1.0  0.00893  0.94467  0.21887  1.0000 -0.5059576809
O   O38       1.0  0.21887  0.94467  0.82753  1.0000 -0.5059576809
O   O39       1.0  0.82753  0.21887  0.94467  1.0000 -0.5042299268
O   O40       1.0  0.82753  0.00893  0.21887  1.0000 -0.5059576809
O   O41       1.0  0.94467  0.21887  0.00893  1.0000 -0.5042299268
O   O42       1.0  0.21887  0.82753  0.00893  1.0000 -0.5059576809
O   O43       1.0  0.17247  0.05533  0.78113  1.0000 -0.5059576809
O   O44       1.0  0.05533  0.17247  0.99107  1.0000 -0.5059576809
O   O45       1.0  0.78113  0.05533  0.99107  1.0000 -0.5059576809
O   O46       1.0  0.17247  0.99107  0.05533  1.0000 -0.5042299268
O   O47       1.0  0.17247  0.78113  0.99107  1.0000 -0.5059576809
O   O48       1.0  0.99107  0.05533  0.17247  1.0000 -0.5059576809
O   O49       1.0  0.22600  0.05580  0.99000  1.0000 -0.5236852985
O   O50       1.0  0.27180  0.01000  0.77400  1.0000 -0.5236852985
O   O51       1.0  0.05580  0.22600  0.72820  1.0000 -0.5236852985
O   O52       1.0  0.01000  0.27180  0.94420  1.0000 -0.525348879
O   O53       1.0  0.94420  0.27180  0.77400  1.0000 -0.5236852985
O   O54       1.0  0.72820  0.99000  0.05580  1.0000 -0.525348879
O   O55       1.0  0.01000  0.77400  0.27180  1.0000 -0.525348879
O   O56       1.0  0.94420  0.01000  0.27180  1.0000 -0.5236852985
O   O57       1.0  0.99000  0.72820  0.22600  1.0000 -0.5236852985
O   O58       1.0  0.27180  0.77400  0.94420  1.0000 -0.5236852985
O   O59       1.0  0.99000  0.22600  0.05580  1.0000 -0.5236852985
O   O60       1.0  0.05580  0.99000  0.22600  1.0000 -0.525348879
O   O61       1.0  0.99000  0.05580  0.72820  1.0000 -0.5236852985
O   O62       1.0  0.72820  0.05580  0.22600  1.0000 -0.525348879
O   O63       1.0  0.22600  0.72820  0.05580  1.0000 -0.5236852985
O   O64       1.0  0.22600  0.99000  0.72820  1.0000 -0.525348879
O   O65       1.0  0.05580  0.72820  0.99000  1.0000 -0.525348879
O   O66       1.0  0.72820  0.22600  0.99000  1.0000 -0.5236852985
O   O67       1.0  0.77400  0.94420  0.27180  1.0000 -0.525348879
O   O68       1.0  0.94420  0.77400  0.01000  1.0000 -0.5236852985
O   O69       1.0  0.27180  0.94420  0.01000  1.0000 -0.5236852985
O   O70       1.0  0.77400  0.01000  0.94420  1.0000 -0.5236852985
O   O71       1.0  0.77400  0.27180  0.01000  1.0000 -0.5236852985
O   O72       1.0  0.01000  0.94420  0.77400  1.0000 -0.5236852985
O   O73       1.0  0.77400  0.94420  0.01000  1.0000 -0.5236852985
O   O74       1.0  0.72820  0.99000  0.22600  1.0000 -0.525348879
O   O75       1.0  0.94420  0.77400  0.27180  1.0000 -0.525348879
O   O76       1.0  0.99000  0.72820  0.05580  1.0000 -0.5236852985
O   O77       1.0  0.05580  0.72820  0.22600  1.0000 -0.5236852985
O   O78       1.0  0.27180  0.01000  0.94420  1.0000 -0.5236852985
O   O79       1.0  0.99000  0.22600  0.72820  1.0000 -0.525348879
O   O80       1.0  0.05580  0.99000  0.72820  1.0000 -0.525348879
O   O81       1.0  0.01000  0.27180  0.77400  1.0000 -0.5236852985
O   O82       1.0  0.72820  0.22600  0.05580  1.0000 -0.5236852985
O   O83       1.0  0.01000  0.77400  0.94420  1.0000 -0.5236852985
O   O84       1.0  0.94420  0.01000  0.77400  1.0000 -0.5236852985
O   O85       1.0  0.01000  0.94420  0.27180  1.0000 -0.525348879
O   O86       1.0  0.27180  0.94420  0.77400  1.0000 -0.5236852985
O   O87       1.0  0.77400  0.27180  0.94420  1.0000 -0.5236852985
O   O88       1.0  0.77400  0.01000  0.27180  1.0000 -0.5236852985
O   O89       1.0  0.94420  0.27180  0.01000  1.0000 -0.5236852985
O   O90       1.0  0.27180  0.77400  0.01000  1.0000 -0.5236852985
O   O91       1.0  0.22600  0.05580  0.72820  1.0000 -0.5236852985
O   O92       1.0  0.05580  0.22600  0.99000  1.0000 -0.525348879
O   O93       1.0  0.72820  0.05580  0.99000  1.0000 -0.5236852985
O   O94       1.0  0.22600  0.99000  0.05580  1.0000 -0.5236852985
O   O95       1.0  0.22600  0.72820  0.99000  1.0000 -0.525348879
O   O96       1.0  0.99000  0.05580  0.22600  1.0000 -0.525348879
