# DDEC6 charges by PACMAN v1.1 (https://github.com/mtap-research/PACMAN-charge/)
data_2010[Cu][nan]3[ASR]37
_chemical_formula_sum              "Cu96 H1152 C1968 O384"
_cell_length_a       58.2688
_cell_length_b       58.2688
_cell_length_c       58.2688
_cell_angle_alpha    109.471
_cell_angle_beta     109.471
_cell_angle_gamma    109.471

_symmetry_space_group_name_H-M    "P 1"
_symmetry_Int_Tables_number       1

loop_
  _symmetry_equiv_pos_as_xyz
  'x, y, z'

loop_
  _atom_site_type_symbol
  _atom_site_label
  _atom_site_symmetry_multiplicity
  _atom_site_fract_x
  _atom_site_fract_y
  _atom_site_fract_z
  _atom_site_occupancy
  _atom_site_charge
Cu  Cu1       1.0  0.62288  0.43772  0.81484  1.0000 0.8126007706
Cu  Cu2       1.0  0.59525  0.43768  0.84243  1.0000 0.8504392992
Cu  Cu3       1.0  0.62288  0.80804  0.18516  1.0000 0.8126007706
Cu  Cu4       1.0  0.59525  0.75282  0.15757  1.0000 0.8504392992
Cu  Cu5       1.0  0.37712  0.56228  0.18516  1.0000 0.8126007706
Cu  Cu6       1.0  0.40475  0.56232  0.15757  1.0000 0.8504392992
Cu  Cu7       1.0  0.37712  0.19196  0.81484  1.0000 0.8126007706
Cu  Cu8       1.0  0.40475  0.24718  0.84243  1.0000 0.8504392992
Cu  Cu9       1.0  0.81484  0.62288  0.43772  1.0000 0.8126007706
Cu  Cu10      1.0  0.84243  0.59525  0.43768  1.0000 0.8504392992
Cu  Cu11      1.0  0.18516  0.62288  0.80804  1.0000 0.8126007706
Cu  Cu12      1.0  0.15757  0.59525  0.75282  1.0000 0.8504392992
Cu  Cu13      1.0  0.18516  0.37712  0.56228  1.0000 0.8126007706
Cu  Cu14      1.0  0.15757  0.40475  0.56232  1.0000 0.8504392992
Cu  Cu15      1.0  0.81484  0.37712  0.19196  1.0000 0.8126007706
Cu  Cu16      1.0  0.84243  0.40475  0.24718  1.0000 0.8504392992
Cu  Cu17      1.0  0.43772  0.81484  0.62288  1.0000 0.8126007706
Cu  Cu18      1.0  0.43768  0.84243  0.59525  1.0000 0.8504392992
Cu  Cu19      1.0  0.80804  0.18516  0.62288  1.0000 0.8126007706
Cu  Cu20      1.0  0.75282  0.15757  0.59525  1.0000 0.8504392992
Cu  Cu21      1.0  0.56228  0.18516  0.37712  1.0000 0.8126007706
Cu  Cu22      1.0  0.56232  0.15757  0.40475  1.0000 0.8504392992
Cu  Cu23      1.0  0.19196  0.81484  0.37712  1.0000 0.8126007706
Cu  Cu24      1.0  0.24718  0.84243  0.40475  1.0000 0.8504392992
Cu  Cu25      1.0  0.19196  0.37712  0.81484  1.0000 0.8126007706
Cu  Cu26      1.0  0.24718  0.40475  0.84243  1.0000 0.8504392992
Cu  Cu27      1.0  0.56228  0.37712  0.18516  1.0000 0.8126007706
Cu  Cu28      1.0  0.56232  0.40475  0.15757  1.0000 0.8504392992
Cu  Cu29      1.0  0.80804  0.62288  0.18516  1.0000 0.8126007706
Cu  Cu30      1.0  0.75282  0.59525  0.15757  1.0000 0.8504392992
Cu  Cu31      1.0  0.43772  0.62288  0.81484  1.0000 0.8126007706
Cu  Cu32      1.0  0.43768  0.59525  0.84243  1.0000 0.8504392992
Cu  Cu33      1.0  0.62288  0.81484  0.43772  1.0000 0.8126007706
Cu  Cu34      1.0  0.59525  0.84243  0.43768  1.0000 0.8504392992
Cu  Cu35      1.0  0.62288  0.18516  0.80804  1.0000 0.8126007706
Cu  Cu36      1.0  0.59525  0.15757  0.75282  1.0000 0.8504392992
Cu  Cu37      1.0  0.37712  0.18516  0.56228  1.0000 0.8126007706
Cu  Cu38      1.0  0.40475  0.15757  0.56232  1.0000 0.8504392992
Cu  Cu39      1.0  0.37712  0.81484  0.19196  1.0000 0.8126007706
Cu  Cu40      1.0  0.40475  0.84243  0.24718  1.0000 0.8504392992
Cu  Cu41      1.0  0.18516  0.80804  0.62288  1.0000 0.8126007706
Cu  Cu42      1.0  0.15757  0.75282  0.59525  1.0000 0.8504392992
Cu  Cu43      1.0  0.81484  0.43772  0.62288  1.0000 0.8126007706
Cu  Cu44      1.0  0.84243  0.43768  0.59525  1.0000 0.8504392992
Cu  Cu45      1.0  0.81484  0.19196  0.37712  1.0000 0.8126007706
Cu  Cu46      1.0  0.84243  0.24718  0.40475  1.0000 0.8504392992
Cu  Cu47      1.0  0.18516  0.56228  0.37712  1.0000 0.8126007706
Cu  Cu48      1.0  0.15757  0.56232  0.40475  1.0000 0.8504392992
Cu  Cu49      1.0  0.83294  0.36535  0.00000  1.0000 0.8598231577
Cu  Cu50      1.0  0.80883  0.31824  0.00000  1.0000 0.8598231577
Cu  Cu51      1.0  0.36535  0.83294  0.00000  1.0000 0.8598231577
Cu  Cu52      1.0  0.31824  0.80883  0.00000  1.0000 0.8598231577
Cu  Cu53      1.0  0.63465  0.63465  0.46759  1.0000 0.8598231577
Cu  Cu54      1.0  0.68176  0.68176  0.49059  1.0000 0.8598231577
Cu  Cu55      1.0  0.16706  0.16706  0.53241  1.0000 0.8598231577
Cu  Cu56      1.0  0.19117  0.19117  0.50941  1.0000 0.8598231577
Cu  Cu57      1.0  1.00000  0.83294  0.36535  1.0000 0.8598231577
Cu  Cu58      1.0  0.00000  0.80883  0.31824  1.0000 0.8598231577
Cu  Cu59      1.0  1.00000  0.36535  0.83294  1.0000 0.8598231577
Cu  Cu60      1.0  1.00000  0.31824  0.80883  1.0000 0.8598231577
Cu  Cu61      1.0  0.46759  0.63465  0.63465  1.0000 0.8598231577
Cu  Cu62      1.0  0.49059  0.68176  0.68176  1.0000 0.8598231577
Cu  Cu63      1.0  0.53241  0.16706  0.16706  1.0000 0.8598231577
Cu  Cu64      1.0  0.50941  0.19117  0.19117  1.0000 0.8598231577
Cu  Cu65      1.0  0.36535  0.00000  0.83294  1.0000 0.8598231577
Cu  Cu66      1.0  0.31824  0.00000  0.80883  1.0000 0.8598231577
Cu  Cu67      1.0  0.83294  0.00000  0.36535  1.0000 0.8598231577
Cu  Cu68      1.0  0.80883  0.00000  0.31824  1.0000 0.8598231577
Cu  Cu69      1.0  0.63465  0.46759  0.63465  1.0000 0.8598231577
Cu  Cu70      1.0  0.68176  0.49059  0.68176  1.0000 0.8598231577
Cu  Cu71      1.0  0.16706  0.53241  0.16706  1.0000 0.8598231577
Cu  Cu72      1.0  0.19117  0.50941  0.19117  1.0000 0.8598231577
Cu  Cu73      1.0  0.16706  0.63465  0.00000  1.0000 0.8598231577
Cu  Cu74      1.0  0.19117  0.68176  0.00000  1.0000 0.8598231577
Cu  Cu75      1.0  0.63465  0.16706  0.00000  1.0000 0.8598231577
Cu  Cu76      1.0  0.68176  0.19117  0.00000  1.0000 0.8598231577
Cu  Cu77      1.0  0.83294  0.83294  0.46759  1.0000 0.8598231577
Cu  Cu78      1.0  0.80883  0.80883  0.49059  1.0000 0.8598231577
Cu  Cu79      1.0  0.36535  0.36535  0.53241  1.0000 0.8598231577
Cu  Cu80      1.0  0.31824  0.31824  0.50941  1.0000 0.8598231577
Cu  Cu81      1.0  0.36535  0.53241  0.36535  1.0000 0.8598231577
Cu  Cu82      1.0  0.31824  0.50941  0.31824  1.0000 0.8598231577
Cu  Cu83      1.0  0.83294  0.46759  0.83294  1.0000 0.8598231577
Cu  Cu84      1.0  0.80883  0.49059  0.80883  1.0000 0.8598231577
Cu  Cu85      1.0  0.16706  0.00000  0.63465  1.0000 0.8598231577
Cu  Cu86      1.0  0.19117  0.00000  0.68176  1.0000 0.8598231577
Cu  Cu87      1.0  0.63465  0.00000  0.16706  1.0000 0.8598231577
Cu  Cu88      1.0  0.68176  1.00000  0.19117  1.0000 0.8598231577
Cu  Cu89      1.0  0.46759  0.83294  0.83294  1.0000 0.8598231577
Cu  Cu90      1.0  0.49059  0.80883  0.80883  1.0000 0.8598231577
Cu  Cu91      1.0  0.53241  0.36535  0.36535  1.0000 0.8598231577
Cu  Cu92      1.0  0.50941  0.31824  0.31824  1.0000 0.8598231577
Cu  Cu93      1.0  1.00000  0.16706  0.63465  1.0000 0.8598231577
Cu  Cu94      1.0  1.00000  0.19117  0.68176  1.0000 0.8598231577
Cu  Cu95      1.0  1.00000  0.63465  0.16706  1.0000 0.8598231577
Cu  Cu96      1.0  1.00000  0.68176  0.19117  1.0000 0.8598231577
H   H1        1.0  0.65670  0.38690  0.83900  1.0000 0.1193162209
H   H2        1.0  0.66380  0.35340  0.84740  1.0000 0.1123073472
H   H3        1.0  0.59580  0.33000  0.85600  1.0000 0.1193162209
H   H4        1.0  0.58970  0.36490  0.85040  1.0000 0.128291172
H   H5        1.0  0.67750  0.34030  0.88640  1.0000 0.1193162209
H   H6        1.0  0.64660  0.26130  0.86870  1.0000 0.128291172
H   H7        1.0  0.59410  0.28380  0.83210  1.0000 0.1193162209
H   H8        1.0  0.71730  0.34230  0.90040  1.0000 0.1193162209
H   H9        1.0  0.76050  0.35220  0.93230  1.0000 0.128291172
H   H10       1.0  0.72240  0.28780  0.94180  1.0000 0.128291172
H   H11       1.0  0.68020  0.27760  0.90940  1.0000 0.1193162209
H   H12       1.0  0.60030  0.51730  0.66460  1.0000 0.1193162209
H   H13       1.0  0.58890  0.54960  0.68670  1.0000 0.1123073472
H   H14       1.0  0.66470  0.58960  0.75650  1.0000 0.1123073472
H   H15       1.0  0.67560  0.55700  0.73340  1.0000 0.128291172
H   H16       1.0  0.64390  0.60200  0.77910  1.0000 0.1123073472
H   H17       1.0  0.63630  0.65310  0.82340  1.0000 0.128291172
H   H18       1.0  0.63100  0.58890  0.81690  1.0000 0.1193162209
H   H19       1.0  0.58240  0.54520  0.84480  1.0000 0.1193162209
H   H20       1.0  0.58340  0.50570  0.84410  1.0000 0.128291172
H   H21       1.0  0.62050  0.50420  0.79690  1.0000 0.128291172
H   H22       1.0  0.61760  0.54290  0.79730  1.0000 0.1193162209
H   H23       1.0  0.54790  0.81770  0.16100  1.0000 0.1193162209
H   H24       1.0  0.50600  0.81640  0.15260  1.0000 0.1123073472
H   H25       1.0  0.47400  0.73980  0.14400  1.0000 0.1193162209
H   H26       1.0  0.51450  0.73930  0.14960  1.0000 0.128291172
H   H27       1.0  0.45390  0.79110  0.11360  1.0000 0.1193162209
H   H28       1.0  0.39260  0.77790  0.13130  1.0000 0.128291172
H   H29       1.0  0.45170  0.76200  0.16790  1.0000 0.1193162209
H   H30       1.0  0.44190  0.81690  0.09960  1.0000 0.1193162209
H   H31       1.0  0.41990  0.82820  0.06770  1.0000 0.128291172
H   H32       1.0  0.34600  0.78060  0.05820  1.0000 0.128291172
H   H33       1.0  0.36820  0.77080  0.09060  1.0000 0.1193162209
H   H34       1.0  0.85270  0.93570  0.33540  1.0000 0.1193162209
H   H35       1.0  0.86290  0.90220  0.31330  1.0000 0.1123073472
H   H36       1.0  0.83310  0.90820  0.24350  1.0000 0.1123073472
H   H37       1.0  0.82360  0.94220  0.26660  1.0000 0.128291172
H   H38       1.0  0.82290  0.86480  0.22090  1.0000 0.1123073472
H   H39       1.0  0.82970  0.81290  0.17660  1.0000 0.128291172
H   H40       1.0  0.77200  0.81410  0.18310  1.0000 0.1193162209
H   H41       1.0  0.70040  0.73760  0.15520  1.0000 0.1193162209
H   H42       1.0  0.66160  0.73930  0.15590  1.0000 0.128291172
H   H43       1.0  0.70730  0.82360  0.20310  1.0000 0.128291172
H   H44       1.0  0.74560  0.82030  0.20270  1.0000 0.1193162209
H   H45       1.0  0.45210  0.61310  0.26980  1.0000 0.1193162209
H   H46       1.0  0.49400  0.64660  0.31040  1.0000 0.1123073472
H   H47       1.0  0.52600  0.67000  0.26580  1.0000 0.1193162209
H   H48       1.0  0.48550  0.63510  0.22480  1.0000 0.128291172
H   H49       1.0  0.54610  0.65970  0.33720  1.0000 0.1193162209
H   H50       1.0  0.60740  0.73870  0.38530  1.0000 0.128291172
H   H51       1.0  0.54830  0.71620  0.31030  1.0000 0.1193162209
H   H52       1.0  0.55810  0.65770  0.37500  1.0000 0.1193162209
H   H53       1.0  0.58010  0.64780  0.40830  1.0000 0.128291172
H   H54       1.0  0.65400  0.71220  0.43460  1.0000 0.128291172
H   H55       1.0  0.63180  0.72240  0.40260  1.0000 0.1193162209
H   H56       1.0  0.14730  0.48270  0.08300  1.0000 0.128291172
H   H57       1.0  0.13710  0.45040  0.03930  1.0000 0.1123073472
H   H58       1.0  0.16690  0.41040  0.07510  1.0000 0.1123073472
H   H59       1.0  0.17640  0.44300  0.11860  1.0000 0.128291172
H   H60       1.0  0.17710  0.39800  0.04190  1.0000 0.1123073472
H   H61       1.0  0.17030  0.34690  0.98320  1.0000 0.128291172
H   H62       1.0  0.22800  0.41110  0.04210  1.0000 0.1193162209
H   H63       1.0  0.29960  0.45480  0.03720  1.0000 0.1193162209
H   H64       1.0  0.33840  0.49430  0.07770  1.0000 0.128291172
H   H65       1.0  0.29270  0.49580  0.11630  1.0000 0.128291172
H   H66       1.0  0.25440  0.45710  0.07470  1.0000 0.1193162209
H   H67       1.0  0.34330  0.18230  0.73020  1.0000 0.1193162209
H   H68       1.0  0.33620  0.18360  0.68960  1.0000 0.1123073472
H   H69       1.0  0.40420  0.26020  0.73420  1.0000 0.1193162209
H   H70       1.0  0.41030  0.26070  0.77520  1.0000 0.128291172
H   H71       1.0  0.32250  0.20890  0.66280  1.0000 0.1193162209
H   H72       1.0  0.35340  0.22210  0.61470  1.0000 0.128291172
H   H73       1.0  0.40590  0.23800  0.68970  1.0000 0.1193162209
H   H74       1.0  0.28270  0.18310  0.62500  1.0000 0.1193162209
H   H75       1.0  0.23950  0.17180  0.59170  1.0000 0.128291172
H   H76       1.0  0.27760  0.21940  0.56540  1.0000 0.128291172
H   H77       1.0  0.31980  0.22920  0.59740  1.0000 0.1193162209
H   H78       1.0  0.39970  0.06430  0.91700  1.0000 0.1193162209
H   H79       1.0  0.41110  0.09780  0.96070  1.0000 0.1123073472
H   H80       1.0  0.33530  0.09180  0.92490  1.0000 0.1123073472
H   H81       1.0  0.32440  0.05780  0.88140  1.0000 0.128291172
H   H82       1.0  0.35610  0.13520  0.95810  1.0000 0.1123073472
H   H83       1.0  0.36370  0.18710  0.01680  1.0000 0.128291172
H   H84       1.0  0.36900  0.18590  0.95790  1.0000 0.1193162209
H   H85       1.0  0.41760  0.26240  0.96280  1.0000 0.1193162209
H   H86       1.0  0.41660  0.26070  0.92230  1.0000 0.128291172
H   H87       1.0  0.37950  0.17640  0.88370  1.0000 0.128291172
H   H88       1.0  0.38240  0.17970  0.92530  1.0000 0.1193162209
H   H89       1.0  0.83900  0.65670  0.38690  1.0000 0.1193162209
H   H90       1.0  0.84740  0.66380  0.35340  1.0000 0.1123073472
H   H91       1.0  0.85600  0.59580  0.33000  1.0000 0.1193162209
H   H92       1.0  0.85040  0.58970  0.36490  1.0000 0.128291172
H   H93       1.0  0.88640  0.67750  0.34030  1.0000 0.1193162209
H   H94       1.0  0.86870  0.64660  0.26130  1.0000 0.128291172
H   H95       1.0  0.83210  0.59410  0.28380  1.0000 0.1193162209
H   H96       1.0  0.90040  0.71730  0.34230  1.0000 0.1193162209
H   H97       1.0  0.93230  0.76050  0.35220  1.0000 0.128291172
H   H98       1.0  0.94180  0.72240  0.28780  1.0000 0.128291172
H   H99       1.0  0.90940  0.68020  0.27760  1.0000 0.1193162209
H   H100      1.0  0.66460  0.60030  0.51730  1.0000 0.1193162209
H   H101      1.0  0.68670  0.58890  0.54960  1.0000 0.1123073472
H   H102      1.0  0.75650  0.66470  0.58960  1.0000 0.1123073472
H   H103      1.0  0.73340  0.67560  0.55700  1.0000 0.128291172
H   H104      1.0  0.77910  0.64390  0.60200  1.0000 0.1123073472
H   H105      1.0  0.82340  0.63630  0.65310  1.0000 0.128291172
H   H106      1.0  0.81690  0.63100  0.58890  1.0000 0.1193162209
H   H107      1.0  0.84480  0.58240  0.54520  1.0000 0.1193162209
H   H108      1.0  0.84410  0.58340  0.50570  1.0000 0.128291172
H   H109      1.0  0.79690  0.62050  0.50420  1.0000 0.128291172
H   H110      1.0  0.79730  0.61760  0.54290  1.0000 0.1193162209
H   H111      1.0  0.16100  0.54790  0.81770  1.0000 0.1193162209
H   H112      1.0  0.15260  0.50600  0.81640  1.0000 0.1123073472
H   H113      1.0  0.14400  0.47400  0.73980  1.0000 0.1193162209
H   H114      1.0  0.14960  0.51450  0.73930  1.0000 0.128291172
H   H115      1.0  0.11360  0.45390  0.79110  1.0000 0.1193162209
H   H116      1.0  0.13130  0.39260  0.77790  1.0000 0.128291172
H   H117      1.0  0.16790  0.45170  0.76200  1.0000 0.1193162209
H   H118      1.0  0.09960  0.44190  0.81690  1.0000 0.1193162209
H   H119      1.0  0.06770  0.41990  0.82820  1.0000 0.128291172
H   H120      1.0  0.05820  0.34600  0.78060  1.0000 0.128291172
H   H121      1.0  0.09060  0.36820  0.77080  1.0000 0.1193162209
H   H122      1.0  0.33540  0.85270  0.93570  1.0000 0.1193162209
H   H123      1.0  0.31330  0.86290  0.90220  1.0000 0.1123073472
H   H124      1.0  0.24350  0.83310  0.90820  1.0000 0.1123073472
H   H125      1.0  0.26660  0.82360  0.94220  1.0000 0.128291172
H   H126      1.0  0.22090  0.82290  0.86480  1.0000 0.1123073472
H   H127      1.0  0.17660  0.82970  0.81290  1.0000 0.128291172
H   H128      1.0  0.18310  0.77200  0.81410  1.0000 0.1193162209
H   H129      1.0  0.15520  0.70040  0.73760  1.0000 0.1193162209
H   H130      1.0  0.15590  0.66160  0.73930  1.0000 0.128291172
H   H131      1.0  0.20310  0.70730  0.82360  1.0000 0.128291172
H   H132      1.0  0.20270  0.74560  0.82030  1.0000 0.1193162209
H   H133      1.0  0.26980  0.45210  0.61310  1.0000 0.1193162209
H   H134      1.0  0.31040  0.49400  0.64660  1.0000 0.1123073472
H   H135      1.0  0.26580  0.52600  0.67000  1.0000 0.1193162209
H   H136      1.0  0.22480  0.48550  0.63510  1.0000 0.128291172
H   H137      1.0  0.33720  0.54610  0.65970  1.0000 0.1193162209
H   H138      1.0  0.38530  0.60740  0.73870  1.0000 0.128291172
H   H139      1.0  0.31030  0.54830  0.71620  1.0000 0.1193162209
H   H140      1.0  0.37500  0.55810  0.65770  1.0000 0.1193162209
H   H141      1.0  0.40830  0.58010  0.64780  1.0000 0.128291172
H   H142      1.0  0.43460  0.65400  0.71220  1.0000 0.128291172
H   H143      1.0  0.40260  0.63180  0.72240  1.0000 0.1193162209
H   H144      1.0  0.08300  0.14730  0.48270  1.0000 0.1193162209
H   H145      1.0  0.03930  0.13710  0.45040  1.0000 0.1123073472
H   H146      1.0  0.07510  0.16690  0.41040  1.0000 0.1123073472
H   H147      1.0  0.11860  0.17640  0.44300  1.0000 0.128291172
H   H148      1.0  0.04190  0.17710  0.39800  1.0000 0.1123073472
H   H149      1.0  0.98320  0.17030  0.34690  1.0000 0.128291172
H   H150      1.0  0.04210  0.22800  0.41110  1.0000 0.1193162209
H   H151      1.0  0.03720  0.29960  0.45480  1.0000 0.1193162209
H   H152      1.0  0.07770  0.33840  0.49430  1.0000 0.128291172
H   H153      1.0  0.11630  0.29270  0.49580  1.0000 0.128291172
H   H154      1.0  0.07470  0.25440  0.45710  1.0000 0.1193162209
H   H155      1.0  0.73020  0.34330  0.18230  1.0000 0.1193162209
H   H156      1.0  0.68960  0.33620  0.18360  1.0000 0.1123073472
H   H157      1.0  0.73420  0.40420  0.26020  1.0000 0.1193162209
H   H158      1.0  0.77520  0.41030  0.26070  1.0000 0.128291172
H   H159      1.0  0.66280  0.32250  0.20890  1.0000 0.1193162209
H   H160      1.0  0.61470  0.35340  0.22210  1.0000 0.128291172
H   H161      1.0  0.68970  0.40590  0.23800  1.0000 0.1193162209
H   H162      1.0  0.62500  0.28270  0.18310  1.0000 0.1193162209
H   H163      1.0  0.59170  0.23950  0.17180  1.0000 0.128291172
H   H164      1.0  0.56540  0.27760  0.21940  1.0000 0.128291172
H   H165      1.0  0.59740  0.31980  0.22920  1.0000 0.1193162209
H   H166      1.0  0.91700  0.39970  0.06430  1.0000 0.1193162209
H   H167      1.0  0.96070  0.41110  0.09780  1.0000 0.1123073472
H   H168      1.0  0.92490  0.33530  0.09180  1.0000 0.1123073472
H   H169      1.0  0.88140  0.32440  0.05780  1.0000 0.128291172
H   H170      1.0  0.95810  0.35610  0.13520  1.0000 0.1123073472
H   H171      1.0  0.01680  0.36370  0.18710  1.0000 0.128291172
H   H172      1.0  0.95790  0.36900  0.18590  1.0000 0.1193162209
H   H173      1.0  0.96280  0.41760  0.26240  1.0000 0.1193162209
H   H174      1.0  0.92230  0.41660  0.26070  1.0000 0.128291172
H   H175      1.0  0.88370  0.37950  0.17640  1.0000 0.128291172
H   H176      1.0  0.92530  0.38240  0.17970  1.0000 0.1193162209
H   H177      1.0  0.38690  0.83900  0.65670  1.0000 0.1193162209
H   H178      1.0  0.35340  0.84740  0.66380  1.0000 0.1123073472
H   H179      1.0  0.33000  0.85600  0.59580  1.0000 0.1193162209
H   H180      1.0  0.36490  0.85040  0.58970  1.0000 0.128291172
H   H181      1.0  0.34030  0.88640  0.67750  1.0000 0.1193162209
H   H182      1.0  0.26130  0.86870  0.64660  1.0000 0.128291172
H   H183      1.0  0.28380  0.83210  0.59410  1.0000 0.1193162209
H   H184      1.0  0.34230  0.90040  0.71730  1.0000 0.1193162209
H   H185      1.0  0.35220  0.93230  0.76050  1.0000 0.128291172
H   H186      1.0  0.28780  0.94180  0.72240  1.0000 0.128291172
H   H187      1.0  0.27760  0.90940  0.68020  1.0000 0.1193162209
H   H188      1.0  0.51730  0.66460  0.60030  1.0000 0.1193162209
H   H189      1.0  0.54960  0.68670  0.58890  1.0000 0.1123073472
H   H190      1.0  0.58960  0.75650  0.66470  1.0000 0.1123073472
H   H191      1.0  0.55700  0.73340  0.67560  1.0000 0.128291172
H   H192      1.0  0.60200  0.77910  0.64390  1.0000 0.1123073472
H   H193      1.0  0.65310  0.82340  0.63630  1.0000 0.128291172
H   H194      1.0  0.58890  0.81690  0.63100  1.0000 0.1193162209
H   H195      1.0  0.54520  0.84480  0.58240  1.0000 0.1193162209
H   H196      1.0  0.50570  0.84410  0.58340  1.0000 0.128291172
H   H197      1.0  0.50420  0.79690  0.62050  1.0000 0.128291172
H   H198      1.0  0.54290  0.79730  0.61760  1.0000 0.1193162209
H   H199      1.0  0.81770  0.16100  0.54790  1.0000 0.1193162209
H   H200      1.0  0.81640  0.15260  0.50600  1.0000 0.1123073472
H   H201      1.0  0.73980  0.14400  0.47400  1.0000 0.1193162209
H   H202      1.0  0.73930  0.14960  0.51450  1.0000 0.128291172
H   H203      1.0  0.79110  0.11360  0.45390  1.0000 0.1193162209
H   H204      1.0  0.77790  0.13130  0.39260  1.0000 0.128291172
H   H205      1.0  0.76200  0.16790  0.45170  1.0000 0.1193162209
H   H206      1.0  0.81690  0.09960  0.44190  1.0000 0.1193162209
H   H207      1.0  0.82820  0.06770  0.41990  1.0000 0.128291172
H   H208      1.0  0.78060  0.05820  0.34600  1.0000 0.128291172
H   H209      1.0  0.77080  0.09060  0.36820  1.0000 0.1193162209
H   H210      1.0  0.93570  0.33540  0.85270  1.0000 0.1193162209
H   H211      1.0  0.90220  0.31330  0.86290  1.0000 0.1123073472
H   H212      1.0  0.90820  0.24350  0.83310  1.0000 0.1123073472
H   H213      1.0  0.94220  0.26660  0.82360  1.0000 0.128291172
H   H214      1.0  0.86480  0.22090  0.82290  1.0000 0.1123073472
H   H215      1.0  0.81290  0.17660  0.82970  1.0000 0.128291172
H   H216      1.0  0.81410  0.18310  0.77200  1.0000 0.1193162209
H   H217      1.0  0.73760  0.15520  0.70040  1.0000 0.1193162209
H   H218      1.0  0.73930  0.15590  0.66160  1.0000 0.128291172
H   H219      1.0  0.82360  0.20310  0.70730  1.0000 0.128291172
H   H220      1.0  0.82030  0.20270  0.74560  1.0000 0.1193162209
H   H221      1.0  0.61310  0.26980  0.45210  1.0000 0.1193162209
H   H222      1.0  0.64660  0.31040  0.49400  1.0000 0.1123073472
H   H223      1.0  0.67000  0.26580  0.52600  1.0000 0.1193162209
H   H224      1.0  0.63510  0.22480  0.48550  1.0000 0.128291172
H   H225      1.0  0.65970  0.33720  0.54610  1.0000 0.1193162209
H   H226      1.0  0.73870  0.38530  0.60740  1.0000 0.128291172
H   H227      1.0  0.71620  0.31030  0.54830  1.0000 0.1193162209
H   H228      1.0  0.65770  0.37500  0.55810  1.0000 0.1193162209
H   H229      1.0  0.64780  0.40830  0.58010  1.0000 0.128291172
H   H230      1.0  0.71220  0.43460  0.65400  1.0000 0.128291172
H   H231      1.0  0.72240  0.40260  0.63180  1.0000 0.1193162209
H   H232      1.0  0.48270  0.08300  0.14730  1.0000 0.1193162209
H   H233      1.0  0.45040  0.03930  0.13710  1.0000 0.1123073472
H   H234      1.0  0.41040  0.07510  0.16690  1.0000 0.1123073472
H   H235      1.0  0.44300  0.11860  0.17640  1.0000 0.128291172
H   H236      1.0  0.39800  0.04190  0.17710  1.0000 0.1193162209
H   H237      1.0  0.34690  0.98320  0.17030  1.0000 0.128291172
H   H238      1.0  0.41110  0.04210  0.22800  1.0000 0.1193162209
H   H239      1.0  0.45480  0.03720  0.29960  1.0000 0.1193162209
H   H240      1.0  0.49430  0.07770  0.33840  1.0000 0.128291172
H   H241      1.0  0.49580  0.11630  0.29270  1.0000 0.128291172
H   H242      1.0  0.45710  0.07470  0.25440  1.0000 0.1193162209
H   H243      1.0  0.18230  0.73020  0.34330  1.0000 0.1193162209
H   H244      1.0  0.18360  0.68960  0.33620  1.0000 0.1123073472
H   H245      1.0  0.26020  0.73420  0.40420  1.0000 0.1193162209
H   H246      1.0  0.26070  0.77520  0.41030  1.0000 0.128291172
H   H247      1.0  0.20890  0.66280  0.32250  1.0000 0.1193162209
H   H248      1.0  0.22210  0.61470  0.35340  1.0000 0.128291172
H   H249      1.0  0.23800  0.68970  0.40590  1.0000 0.1193162209
H   H250      1.0  0.18310  0.62500  0.28270  1.0000 0.1193162209
H   H251      1.0  0.17180  0.59170  0.23950  1.0000 0.128291172
H   H252      1.0  0.21940  0.56540  0.27760  1.0000 0.128291172
H   H253      1.0  0.22920  0.59740  0.31980  1.0000 0.1193162209
H   H254      1.0  0.06430  0.91700  0.39970  1.0000 0.1193162209
H   H255      1.0  0.09780  0.96070  0.41110  1.0000 0.1123073472
H   H256      1.0  0.09180  0.92490  0.33530  1.0000 0.1123073472
H   H257      1.0  0.05780  0.88140  0.32440  1.0000 0.128291172
H   H258      1.0  0.13520  0.95810  0.35610  1.0000 0.1123073472
H   H259      1.0  0.18710  0.01680  0.36370  1.0000 0.128291172
H   H260      1.0  0.18590  0.95790  0.36900  1.0000 0.1193162209
H   H261      1.0  0.26240  0.96280  0.41760  1.0000 0.1193162209
H   H262      1.0  0.26070  0.92230  0.41660  1.0000 0.128291172
H   H263      1.0  0.17640  0.88370  0.37950  1.0000 0.128291172
H   H264      1.0  0.17970  0.92530  0.38240  1.0000 0.1193162209
H   H265      1.0  0.18230  0.45210  0.83900  1.0000 0.1193162209
H   H266      1.0  0.18360  0.49400  0.84740  1.0000 0.1123073472
H   H267      1.0  0.26020  0.52600  0.85600  1.0000 0.1193162209
H   H268      1.0  0.26070  0.48550  0.85040  1.0000 0.128291172
H   H269      1.0  0.20890  0.54610  0.88640  1.0000 0.1193162209
H   H270      1.0  0.22210  0.60740  0.86870  1.0000 0.128291172
H   H271      1.0  0.23800  0.54830  0.83210  1.0000 0.1193162209
H   H272      1.0  0.18310  0.55810  0.90040  1.0000 0.1193162209
H   H273      1.0  0.17180  0.58010  0.93230  1.0000 0.128291172
H   H274      1.0  0.21940  0.65400  0.94180  1.0000 0.128291172
H   H275      1.0  0.22920  0.63180  0.90940  1.0000 0.1193162209
H   H276      1.0  0.06430  0.14730  0.66460  1.0000 0.1193162209
H   H277      1.0  0.09780  0.13710  0.68670  1.0000 0.1123073472
H   H278      1.0  0.09180  0.16690  0.75650  1.0000 0.1123073472
H   H279      1.0  0.05780  0.17640  0.73340  1.0000 0.128291172
H   H280      1.0  0.13520  0.17710  0.77910  1.0000 0.1123073472
H   H281      1.0  0.18710  0.17030  0.82340  1.0000 0.128291172
H   H282      1.0  0.18590  0.22800  0.81690  1.0000 0.1193162209
H   H283      1.0  0.26240  0.29960  0.84480  1.0000 0.1193162209
H   H284      1.0  0.26070  0.33840  0.84410  1.0000 0.128291172
H   H285      1.0  0.17640  0.29270  0.79690  1.0000 0.128291172
H   H286      1.0  0.17970  0.25440  0.79730  1.0000 0.1193162209
H   H287      1.0  0.61310  0.34330  0.16100  1.0000 0.1193162209
H   H288      1.0  0.64660  0.33620  0.15260  1.0000 0.1123073472
H   H289      1.0  0.67000  0.40420  0.14400  1.0000 0.1193162209
H   H290      1.0  0.63510  0.41030  0.14960  1.0000 0.128291172
H   H291      1.0  0.65970  0.32250  0.11360  1.0000 0.1193162209
H   H292      1.0  0.73870  0.35340  0.13130  1.0000 0.128291172
H   H293      1.0  0.71620  0.40590  0.16790  1.0000 0.1193162209
H   H294      1.0  0.65770  0.28270  0.09960  1.0000 0.1193162209
H   H295      1.0  0.64780  0.23950  0.06770  1.0000 0.128291172
H   H296      1.0  0.71220  0.27760  0.05820  1.0000 0.128291172
H   H297      1.0  0.72240  0.31980  0.09060  1.0000 0.1123073472
H   H298      1.0  0.48270  0.39970  0.33540  1.0000 0.1193162209
H   H299      1.0  0.45040  0.41110  0.31330  1.0000 0.1123073472
H   H300      1.0  0.41040  0.33530  0.24350  1.0000 0.1123073472
H   H301      1.0  0.44300  0.32440  0.26660  1.0000 0.128291172
H   H302      1.0  0.39800  0.35610  0.22090  1.0000 0.1123073472
H   H303      1.0  0.34690  0.36370  0.17660  1.0000 0.128291172
H   H304      1.0  0.41110  0.36900  0.18310  1.0000 0.1193162209
H   H305      1.0  0.45480  0.41760  0.15520  1.0000 0.1193162209
H   H306      1.0  0.49430  0.41660  0.15590  1.0000 0.128291172
H   H307      1.0  0.49580  0.37950  0.20310  1.0000 0.128291172
H   H308      1.0  0.45710  0.38240  0.20270  1.0000 0.1193162209
H   H309      1.0  0.81770  0.65670  0.26980  1.0000 0.1193162209
H   H310      1.0  0.81640  0.66380  0.31040  1.0000 0.1123073472
H   H311      1.0  0.73980  0.59580  0.26580  1.0000 0.1193162209
H   H312      1.0  0.73930  0.58970  0.22480  1.0000 0.128291172
H   H313      1.0  0.79110  0.67750  0.33720  1.0000 0.1193162209
H   H314      1.0  0.77790  0.64660  0.38530  1.0000 0.128291172
H   H315      1.0  0.76200  0.59410  0.31030  1.0000 0.1193162209
H   H316      1.0  0.81690  0.71730  0.37500  1.0000 0.1193162209
H   H317      1.0  0.82820  0.76050  0.40830  1.0000 0.128291172
H   H318      1.0  0.78060  0.72240  0.43460  1.0000 0.128291172
H   H319      1.0  0.77080  0.68020  0.40260  1.0000 0.1193162209
H   H320      1.0  0.93570  0.60030  0.08300  1.0000 0.1193162209
H   H321      1.0  0.90220  0.58890  0.03930  1.0000 0.1123073472
H   H322      1.0  0.90820  0.66470  0.07510  1.0000 0.1123073472
H   H323      1.0  0.94220  0.67560  0.11860  1.0000 0.128291172
H   H324      1.0  0.86480  0.64390  0.04190  1.0000 0.1123073472
H   H325      1.0  0.81290  0.63630  0.98320  1.0000 0.128291172
H   H326      1.0  0.81410  0.63100  0.04210  1.0000 0.1193162209
H   H327      1.0  0.73760  0.58240  0.03720  1.0000 0.1193162209
H   H328      1.0  0.73930  0.58340  0.07770  1.0000 0.128291172
H   H329      1.0  0.82360  0.62050  0.11630  1.0000 0.128291172
H   H330      1.0  0.82030  0.61760  0.07470  1.0000 0.1193162209
H   H331      1.0  0.38690  0.54790  0.73020  1.0000 0.1193162209
H   H332      1.0  0.35340  0.50600  0.68960  1.0000 0.1123073472
H   H333      1.0  0.33000  0.47400  0.73420  1.0000 0.1193162209
H   H334      1.0  0.36490  0.51450  0.77520  1.0000 0.128291172
H   H335      1.0  0.34030  0.45390  0.66280  1.0000 0.1193162209
H   H336      1.0  0.26130  0.39260  0.61470  1.0000 0.128291172
H   H337      1.0  0.28380  0.45170  0.68970  1.0000 0.1193162209
H   H338      1.0  0.34230  0.44190  0.62500  1.0000 0.1193162209
H   H339      1.0  0.35220  0.41990  0.59170  1.0000 0.128291172
H   H340      1.0  0.28780  0.34600  0.56540  1.0000 0.128291172
H   H341      1.0  0.27760  0.36820  0.59740  1.0000 0.1193162209
H   H342      1.0  0.51730  0.85270  0.91700  1.0000 0.1193162209
H   H343      1.0  0.54960  0.86290  0.96070  1.0000 0.1123073472
H   H344      1.0  0.58960  0.83310  0.92490  1.0000 0.1123073472
H   H345      1.0  0.55700  0.82360  0.88140  1.0000 0.128291172
H   H346      1.0  0.60200  0.82290  0.95810  1.0000 0.1123073472
H   H347      1.0  0.65310  0.82970  0.01680  1.0000 0.128291172
H   H348      1.0  0.58890  0.77200  0.95790  1.0000 0.1193162209
H   H349      1.0  0.54520  0.70040  0.96280  1.0000 0.1193162209
H   H350      1.0  0.50570  0.66160  0.92230  1.0000 0.128291172
H   H351      1.0  0.50420  0.70730  0.88370  1.0000 0.128291172
H   H352      1.0  0.54290  0.74560  0.92530  1.0000 0.1193162209
H   H353      1.0  0.54790  0.73020  0.38690  1.0000 0.1193162209
H   H354      1.0  0.50600  0.68960  0.35340  1.0000 0.1123073472
H   H355      1.0  0.47400  0.73420  0.33000  1.0000 0.1193162209
H   H356      1.0  0.51450  0.77520  0.36490  1.0000 0.128291172
H   H357      1.0  0.45390  0.66280  0.34030  1.0000 0.1193162209
H   H358      1.0  0.39260  0.61470  0.26130  1.0000 0.128291172
H   H359      1.0  0.45170  0.68970  0.28380  1.0000 0.1193162209
H   H360      1.0  0.44190  0.62500  0.34230  1.0000 0.1193162209
H   H361      1.0  0.41990  0.59170  0.35220  1.0000 0.128291172
H   H362      1.0  0.34600  0.56540  0.28780  1.0000 0.128291172
H   H363      1.0  0.36820  0.59740  0.27760  1.0000 0.1193162209
H   H364      1.0  0.85270  0.91700  0.51730  1.0000 0.1193162209
H   H365      1.0  0.86290  0.96070  0.54960  1.0000 0.1123073472
H   H366      1.0  0.83310  0.92490  0.58960  1.0000 0.1123073472
H   H367      1.0  0.82360  0.88140  0.55700  1.0000 0.128291172
H   H368      1.0  0.82290  0.95810  0.60200  1.0000 0.1123073472
H   H369      1.0  0.82970  0.01680  0.65310  1.0000 0.128291172
H   H370      1.0  0.77200  0.95790  0.58890  1.0000 0.1193162209
H   H371      1.0  0.70040  0.96280  0.54520  1.0000 0.1193162209
H   H372      1.0  0.66160  0.92230  0.50570  1.0000 0.128291172
H   H373      1.0  0.70730  0.88370  0.50420  1.0000 0.128291172
H   H374      1.0  0.74560  0.92530  0.54290  1.0000 0.1193162209
H   H375      1.0  0.65670  0.26980  0.81770  1.0000 0.1193162209
H   H376      1.0  0.66380  0.31040  0.81640  1.0000 0.1123073472
H   H377      1.0  0.59580  0.26580  0.73980  1.0000 0.1193162209
H   H378      1.0  0.58970  0.22480  0.73930  1.0000 0.128291172
H   H379      1.0  0.67750  0.33720  0.79110  1.0000 0.1193162209
H   H380      1.0  0.64660  0.38530  0.77790  1.0000 0.128291172
H   H381      1.0  0.59410  0.31030  0.76200  1.0000 0.1193162209
H   H382      1.0  0.71730  0.37500  0.81690  1.0000 0.1193162209
H   H383      1.0  0.76050  0.40830  0.82820  1.0000 0.128291172
H   H384      1.0  0.72240  0.43460  0.78060  1.0000 0.128291172
H   H385      1.0  0.68020  0.40260  0.77080  1.0000 0.1193162209
H   H386      1.0  0.60030  0.08300  0.93570  1.0000 0.1193162209
H   H387      1.0  0.58890  0.03930  0.90220  1.0000 0.1123073472
H   H388      1.0  0.66470  0.07510  0.90820  1.0000 0.1123073472
H   H389      1.0  0.67560  0.11860  0.94220  1.0000 0.128291172
H   H390      1.0  0.64390  0.04190  0.86480  1.0000 0.1123073472
H   H391      1.0  0.63630  0.98320  0.81290  1.0000 0.128291172
H   H392      1.0  0.63100  0.04210  0.81410  1.0000 0.1193162209
H   H393      1.0  0.58240  0.03720  0.73760  1.0000 0.1193162209
H   H394      1.0  0.58340  0.07770  0.73930  1.0000 0.128291172
H   H395      1.0  0.62050  0.11630  0.82360  1.0000 0.128291172
H   H396      1.0  0.61760  0.07470  0.82030  1.0000 0.1193162209
H   H397      1.0  0.34330  0.16100  0.61310  1.0000 0.1193162209
H   H398      1.0  0.33620  0.15260  0.64660  1.0000 0.1123073472
H   H399      1.0  0.40420  0.14400  0.67000  1.0000 0.1193162209
H   H400      1.0  0.41030  0.14960  0.63510  1.0000 0.128291172
H   H401      1.0  0.32250  0.11360  0.65970  1.0000 0.1193162209
H   H402      1.0  0.35340  0.13130  0.73870  1.0000 0.128291172
H   H403      1.0  0.40590  0.16790  0.71620  1.0000 0.1193162209
H   H404      1.0  0.28270  0.09960  0.65770  1.0000 0.1193162209
H   H405      1.0  0.23950  0.06770  0.64780  1.0000 0.128291172
H   H406      1.0  0.27760  0.05820  0.71220  1.0000 0.128291172
H   H407      1.0  0.31980  0.09060  0.72240  1.0000 0.1193162209
H   H408      1.0  0.39970  0.33540  0.48270  1.0000 0.1193162209
H   H409      1.0  0.41110  0.31330  0.45040  1.0000 0.1123073472
H   H410      1.0  0.33530  0.24350  0.41040  1.0000 0.1123073472
H   H411      1.0  0.32440  0.26660  0.44300  1.0000 0.128291172
H   H412      1.0  0.35610  0.22090  0.39800  1.0000 0.1123073472
H   H413      1.0  0.36370  0.17660  0.34690  1.0000 0.128291172
H   H414      1.0  0.36900  0.18310  0.41110  1.0000 0.1193162209
H   H415      1.0  0.41760  0.15520  0.45480  1.0000 0.1193162209
H   H416      1.0  0.41660  0.15590  0.49430  1.0000 0.128291172
H   H417      1.0  0.37950  0.20310  0.49580  1.0000 0.128291172
H   H418      1.0  0.38240  0.20270  0.45710  1.0000 0.1193162209
H   H419      1.0  0.45210  0.83900  0.18230  1.0000 0.1193162209
H   H420      1.0  0.49400  0.84740  0.18360  1.0000 0.1123073472
H   H421      1.0  0.52600  0.85600  0.26020  1.0000 0.1193162209
H   H422      1.0  0.48550  0.85040  0.26070  1.0000 0.128291172
H   H423      1.0  0.54610  0.88640  0.20890  1.0000 0.1193162209
H   H424      1.0  0.60740  0.86870  0.22210  1.0000 0.128291172
H   H425      1.0  0.54830  0.83210  0.23800  1.0000 0.1193162209
H   H426      1.0  0.55810  0.90040  0.18310  1.0000 0.1193162209
H   H427      1.0  0.58010  0.93230  0.17180  1.0000 0.128291172
H   H428      1.0  0.65400  0.94180  0.21940  1.0000 0.128291172
H   H429      1.0  0.63180  0.90940  0.22920  1.0000 0.1193162209
H   H430      1.0  0.14730  0.66460  0.06430  1.0000 0.128291172
H   H431      1.0  0.13710  0.68670  0.09780  1.0000 0.1123073472
H   H432      1.0  0.16690  0.75650  0.09180  1.0000 0.1123073472
H   H433      1.0  0.17640  0.73340  0.05780  1.0000 0.128291172
H   H434      1.0  0.17710  0.77910  0.13520  1.0000 0.1123073472
H   H435      1.0  0.17030  0.82340  0.18710  1.0000 0.128291172
H   H436      1.0  0.22800  0.81690  0.18590  1.0000 0.1123073472
H   H437      1.0  0.29960  0.84480  0.26240  1.0000 0.1193162209
H   H438      1.0  0.33840  0.84410  0.26070  1.0000 0.128291172
H   H439      1.0  0.29270  0.79690  0.17640  1.0000 0.128291172
H   H440      1.0  0.25440  0.79730  0.17970  1.0000 0.1193162209
H   H441      1.0  0.26980  0.81770  0.65670  1.0000 0.1193162209
H   H442      1.0  0.31040  0.81640  0.66380  1.0000 0.1123073472
H   H443      1.0  0.26580  0.73980  0.59580  1.0000 0.1193162209
H   H444      1.0  0.22480  0.73930  0.58970  1.0000 0.128291172
H   H445      1.0  0.33720  0.79110  0.67750  1.0000 0.1193162209
H   H446      1.0  0.38530  0.77790  0.64660  1.0000 0.128291172
H   H447      1.0  0.31030  0.76200  0.59410  1.0000 0.1193162209
H   H448      1.0  0.37500  0.81690  0.71730  1.0000 0.1193162209
H   H449      1.0  0.40830  0.82820  0.76050  1.0000 0.128291172
H   H450      1.0  0.43460  0.78060  0.72240  1.0000 0.128291172
H   H451      1.0  0.40260  0.77080  0.68020  1.0000 0.1193162209
H   H452      1.0  0.08300  0.93570  0.60030  1.0000 0.1193162209
H   H453      1.0  0.03930  0.90220  0.58890  1.0000 0.1123073472
H   H454      1.0  0.07510  0.90820  0.66470  1.0000 0.1123073472
H   H455      1.0  0.11860  0.94220  0.67560  1.0000 0.128291172
H   H456      1.0  0.04190  0.86480  0.64390  1.0000 0.1123073472
H   H457      1.0  0.98320  0.81290  0.63630  1.0000 0.128291172
H   H458      1.0  0.04210  0.81410  0.63100  1.0000 0.1193162209
H   H459      1.0  0.03720  0.73760  0.58240  1.0000 0.1193162209
H   H460      1.0  0.07770  0.73930  0.58340  1.0000 0.128291172
H   H461      1.0  0.11630  0.82360  0.62050  1.0000 0.128291172
H   H462      1.0  0.07470  0.82030  0.61760  1.0000 0.1193162209
H   H463      1.0  0.73020  0.38690  0.54790  1.0000 0.1193162209
H   H464      1.0  0.68960  0.35340  0.50600  1.0000 0.1123073472
H   H465      1.0  0.73420  0.33000  0.47400  1.0000 0.1193162209
H   H466      1.0  0.77520  0.36490  0.51450  1.0000 0.128291172
H   H467      1.0  0.66280  0.34030  0.45390  1.0000 0.1193162209
H   H468      1.0  0.61470  0.26130  0.39260  1.0000 0.128291172
H   H469      1.0  0.68970  0.28380  0.45170  1.0000 0.1193162209
H   H470      1.0  0.62500  0.34230  0.44190  1.0000 0.1193162209
H   H471      1.0  0.59170  0.35220  0.41990  1.0000 0.128291172
H   H472      1.0  0.56540  0.28780  0.34600  1.0000 0.128291172
H   H473      1.0  0.59740  0.27760  0.36820  1.0000 0.1193162209
H   H474      1.0  0.91700  0.51730  0.85270  1.0000 0.1193162209
H   H475      1.0  0.96070  0.54960  0.86290  1.0000 0.1123073472
H   H476      1.0  0.92490  0.58960  0.83310  1.0000 0.1123073472
H   H477      1.0  0.88140  0.55700  0.82360  1.0000 0.128291172
H   H478      1.0  0.95810  0.60200  0.82290  1.0000 0.1123073472
H   H479      1.0  0.01680  0.65310  0.82970  1.0000 0.128291172
H   H480      1.0  0.95790  0.58890  0.77200  1.0000 0.1193162209
H   H481      1.0  0.96280  0.54520  0.70040  1.0000 0.1193162209
H   H482      1.0  0.92230  0.50570  0.66160  1.0000 0.128291172
H   H483      1.0  0.88370  0.50420  0.70730  1.0000 0.128291172
H   H484      1.0  0.92530  0.54290  0.74560  1.0000 0.1193162209
H   H485      1.0  0.83900  0.18230  0.45210  1.0000 0.1193162209
H   H486      1.0  0.84740  0.18360  0.49400  1.0000 0.1123073472
H   H487      1.0  0.85600  0.26020  0.52600  1.0000 0.1193162209
H   H488      1.0  0.85040  0.26070  0.48550  1.0000 0.128291172
H   H489      1.0  0.88640  0.20890  0.54610  1.0000 0.1193162209
H   H490      1.0  0.86870  0.22210  0.60740  1.0000 0.128291172
H   H491      1.0  0.83210  0.23800  0.54830  1.0000 0.1193162209
H   H492      1.0  0.90040  0.18310  0.55810  1.0000 0.1193162209
H   H493      1.0  0.93230  0.17180  0.58010  1.0000 0.128291172
H   H494      1.0  0.94180  0.21940  0.65400  1.0000 0.128291172
H   H495      1.0  0.90940  0.22920  0.63180  1.0000 0.1193162209
H   H496      1.0  0.66460  0.06430  0.14730  1.0000 0.1193162209
H   H497      1.0  0.68670  0.09780  0.13710  1.0000 0.1123073472
H   H498      1.0  0.75650  0.09180  0.16690  1.0000 0.1123073472
H   H499      1.0  0.73340  0.05780  0.17640  1.0000 0.128291172
H   H500      1.0  0.77910  0.13520  0.17710  1.0000 0.1123073472
H   H501      1.0  0.82340  0.18710  0.17030  1.0000 0.128291172
H   H502      1.0  0.81690  0.18590  0.22800  1.0000 0.1193162209
H   H503      1.0  0.84480  0.26240  0.29960  1.0000 0.1193162209
H   H504      1.0  0.84410  0.26070  0.33840  1.0000 0.128291172
H   H505      1.0  0.79690  0.17640  0.29270  1.0000 0.128291172
H   H506      1.0  0.79730  0.17970  0.25440  1.0000 0.1193162209
H   H507      1.0  0.16100  0.61310  0.34330  1.0000 0.1193162209
H   H508      1.0  0.15260  0.64660  0.33620  1.0000 0.1123073472
H   H509      1.0  0.14400  0.67000  0.40420  1.0000 0.1193162209
H   H510      1.0  0.14960  0.63510  0.41030  1.0000 0.128291172
H   H511      1.0  0.11360  0.65970  0.32250  1.0000 0.1193162209
H   H512      1.0  0.13130  0.73870  0.35340  1.0000 0.128291172
H   H513      1.0  0.16790  0.71620  0.40590  1.0000 0.1193162209
H   H514      1.0  0.09960  0.65770  0.28270  1.0000 0.1193162209
H   H515      1.0  0.06770  0.64780  0.23950  1.0000 0.128291172
H   H516      1.0  0.05820  0.71220  0.27760  1.0000 0.128291172
H   H517      1.0  0.09060  0.72240  0.31980  1.0000 0.1193162209
H   H518      1.0  0.33540  0.48270  0.39970  1.0000 0.1193162209
H   H519      1.0  0.31330  0.45040  0.41110  1.0000 0.1123073472
H   H520      1.0  0.24350  0.41040  0.33530  1.0000 0.1123073472
H   H521      1.0  0.26660  0.44300  0.32440  1.0000 0.128291172
H   H522      1.0  0.22090  0.39800  0.35610  1.0000 0.1123073472
H   H523      1.0  0.17660  0.34690  0.36370  1.0000 0.128291172
H   H524      1.0  0.18310  0.41110  0.36900  1.0000 0.1193162209
H   H525      1.0  0.15520  0.45480  0.41760  1.0000 0.1193162209
H   H526      1.0  0.15590  0.49430  0.41660  1.0000 0.128291172
H   H527      1.0  0.20310  0.49580  0.37950  1.0000 0.128291172
H   H528      1.0  0.20270  0.45710  0.38240  1.0000 0.1193162209
H   H529      1.0  0.34330  0.61310  0.16100  1.0000 0.1193162209
H   H530      1.0  0.33620  0.64660  0.15260  1.0000 0.1123073472
H   H531      1.0  0.40420  0.67000  0.14400  1.0000 0.1193162209
H   H532      1.0  0.41030  0.63510  0.14960  1.0000 0.128291172
H   H533      1.0  0.32250  0.65970  0.11360  1.0000 0.1193162209
H   H534      1.0  0.35340  0.73870  0.13130  1.0000 0.128291172
H   H535      1.0  0.40590  0.71620  0.16790  1.0000 0.1193162209
H   H536      1.0  0.28270  0.65770  0.09960  1.0000 0.1193162209
H   H537      1.0  0.23950  0.64780  0.06770  1.0000 0.128291172
H   H538      1.0  0.27760  0.71220  0.05820  1.0000 0.128291172
H   H539      1.0  0.31980  0.72240  0.09060  1.0000 0.1193162209
H   H540      1.0  0.39970  0.48270  0.33540  1.0000 0.1193162209
H   H541      1.0  0.41110  0.45040  0.31330  1.0000 0.1123073472
H   H542      1.0  0.33530  0.41040  0.24350  1.0000 0.1123073472
H   H543      1.0  0.32440  0.44300  0.26660  1.0000 0.128291172
H   H544      1.0  0.35610  0.39800  0.22090  1.0000 0.1123073472
H   H545      1.0  0.36370  0.34690  0.17660  1.0000 0.128291172
H   H546      1.0  0.36900  0.41110  0.18310  1.0000 0.1193162209
H   H547      1.0  0.41760  0.45480  0.15520  1.0000 0.1193162209
H   H548      1.0  0.41660  0.49430  0.15590  1.0000 0.128291172
H   H549      1.0  0.37950  0.49580  0.20310  1.0000 0.128291172
H   H550      1.0  0.38240  0.45710  0.20270  1.0000 0.1193162209
H   H551      1.0  0.45210  0.18230  0.83900  1.0000 0.1193162209
H   H552      1.0  0.49400  0.18360  0.84740  1.0000 0.1123073472
H   H553      1.0  0.52600  0.26020  0.85600  1.0000 0.1193162209
H   H554      1.0  0.48550  0.26070  0.85040  1.0000 0.128291172
H   H555      1.0  0.54610  0.20890  0.88640  1.0000 0.1193162209
H   H556      1.0  0.60740  0.22210  0.86870  1.0000 0.128291172
H   H557      1.0  0.54830  0.23800  0.83210  1.0000 0.1193162209
H   H558      1.0  0.55810  0.18310  0.90040  1.0000 0.1193162209
H   H559      1.0  0.58010  0.17180  0.93230  1.0000 0.128291172
H   H560      1.0  0.65400  0.21940  0.94180  1.0000 0.128291172
H   H561      1.0  0.63180  0.22920  0.90940  1.0000 0.1193162209
H   H562      1.0  0.14730  0.06430  0.66460  1.0000 0.1193162209
H   H563      1.0  0.13710  0.09780  0.68670  1.0000 0.1123073472
H   H564      1.0  0.16690  0.09180  0.75650  1.0000 0.1123073472
H   H565      1.0  0.17640  0.05780  0.73340  1.0000 0.128291172
H   H566      1.0  0.17710  0.13520  0.77910  1.0000 0.1123073472
H   H567      1.0  0.17030  0.18710  0.82340  1.0000 0.128291172
H   H568      1.0  0.22800  0.18590  0.81690  1.0000 0.1193162209
H   H569      1.0  0.29960  0.26240  0.84480  1.0000 0.1193162209
H   H570      1.0  0.33840  0.26070  0.84410  1.0000 0.128291172
H   H571      1.0  0.29270  0.17640  0.79690  1.0000 0.128291172
H   H572      1.0  0.25440  0.17970  0.79730  1.0000 0.1193162209
H   H573      1.0  0.54790  0.38690  0.73020  1.0000 0.1193162209
H   H574      1.0  0.50600  0.35340  0.68960  1.0000 0.1123073472
H   H575      1.0  0.47400  0.33000  0.73420  1.0000 0.1193162209
H   H576      1.0  0.51450  0.36490  0.77520  1.0000 0.128291172
H   H577      1.0  0.45390  0.34030  0.66280  1.0000 0.1193162209
H   H578      1.0  0.39260  0.26130  0.61470  1.0000 0.128291172
H   H579      1.0  0.45170  0.28380  0.68970  1.0000 0.1193162209
H   H580      1.0  0.44190  0.34230  0.62500  1.0000 0.1193162209
H   H581      1.0  0.41990  0.35220  0.59170  1.0000 0.128291172
H   H582      1.0  0.34600  0.28780  0.56540  1.0000 0.128291172
H   H583      1.0  0.36820  0.27760  0.59740  1.0000 0.1193162209
H   H584      1.0  0.85270  0.51730  0.91700  1.0000 0.1193162209
H   H585      1.0  0.86290  0.54960  0.96070  1.0000 0.1123073472
H   H586      1.0  0.83310  0.58960  0.92490  1.0000 0.1123073472
H   H587      1.0  0.82360  0.55700  0.88140  1.0000 0.128291172
H   H588      1.0  0.82290  0.60200  0.95810  1.0000 0.1123073472
H   H589      1.0  0.82970  0.65310  0.01680  1.0000 0.128291172
H   H590      1.0  0.77200  0.58890  0.95790  1.0000 0.1193162209
H   H591      1.0  0.70040  0.54520  0.96280  1.0000 0.1193162209
H   H592      1.0  0.66160  0.50570  0.92230  1.0000 0.128291172
H   H593      1.0  0.70730  0.50420  0.88370  1.0000 0.128291172
H   H594      1.0  0.74560  0.54290  0.92530  1.0000 0.1193162209
H   H595      1.0  0.65670  0.81770  0.26980  1.0000 0.1193162209
H   H596      1.0  0.66380  0.81640  0.31040  1.0000 0.1123073472
H   H597      1.0  0.59580  0.73980  0.26580  1.0000 0.1193162209
H   H598      1.0  0.58970  0.73930  0.22480  1.0000 0.128291172
H   H599      1.0  0.67750  0.79110  0.33720  1.0000 0.1193162209
H   H600      1.0  0.64660  0.77790  0.38530  1.0000 0.128291172
H   H601      1.0  0.59410  0.76200  0.31030  1.0000 0.1193162209
H   H602      1.0  0.71730  0.81690  0.37500  1.0000 0.1193162209
H   H603      1.0  0.76050  0.82820  0.40830  1.0000 0.128291172
H   H604      1.0  0.72240  0.78060  0.43460  1.0000 0.128291172
H   H605      1.0  0.68020  0.77080  0.40260  1.0000 0.1193162209
H   H606      1.0  0.60030  0.93570  0.08300  1.0000 0.1193162209
H   H607      1.0  0.58890  0.90220  0.03930  1.0000 0.1123073472
H   H608      1.0  0.66470  0.90820  0.07510  1.0000 0.1123073472
H   H609      1.0  0.67560  0.94220  0.11860  1.0000 0.128291172
H   H610      1.0  0.64390  0.86480  0.04190  1.0000 0.1123073472
H   H611      1.0  0.63630  0.81290  0.98320  1.0000 0.128291172
H   H612      1.0  0.63100  0.81410  0.04210  1.0000 0.1193162209
H   H613      1.0  0.58240  0.73760  0.03720  1.0000 0.1193162209
H   H614      1.0  0.58340  0.73930  0.07770  1.0000 0.128291172
H   H615      1.0  0.62050  0.82360  0.11630  1.0000 0.128291172
H   H616      1.0  0.61760  0.82030  0.07470  1.0000 0.1193162209
H   H617      1.0  0.16100  0.34330  0.61310  1.0000 0.1193162209
H   H618      1.0  0.15260  0.33620  0.64660  1.0000 0.1123073472
H   H619      1.0  0.14400  0.40420  0.67000  1.0000 0.1193162209
H   H620      1.0  0.14960  0.41030  0.63510  1.0000 0.128291172
H   H621      1.0  0.11360  0.32250  0.65970  1.0000 0.1193162209
H   H622      1.0  0.13130  0.35340  0.73870  1.0000 0.128291172
H   H623      1.0  0.16790  0.40590  0.71620  1.0000 0.1193162209
H   H624      1.0  0.09960  0.28270  0.65770  1.0000 0.1193162209
H   H625      1.0  0.06770  0.23950  0.64780  1.0000 0.128291172
H   H626      1.0  0.05820  0.27760  0.71220  1.0000 0.128291172
H   H627      1.0  0.09060  0.31980  0.72240  1.0000 0.1193162209
H   H628      1.0  0.33540  0.39970  0.48270  1.0000 0.1193162209
H   H629      1.0  0.31330  0.41110  0.45040  1.0000 0.1123073472
H   H630      1.0  0.24350  0.33530  0.41040  1.0000 0.1123073472
H   H631      1.0  0.26660  0.32440  0.44300  1.0000 0.128291172
H   H632      1.0  0.22090  0.35610  0.39800  1.0000 0.1123073472
H   H633      1.0  0.17660  0.36370  0.34690  1.0000 0.128291172
H   H634      1.0  0.18310  0.36900  0.41110  1.0000 0.1193162209
H   H635      1.0  0.15520  0.41760  0.45480  1.0000 0.1193162209
H   H636      1.0  0.15590  0.41660  0.49430  1.0000 0.128291172
H   H637      1.0  0.20310  0.37950  0.49580  1.0000 0.128291172
H   H638      1.0  0.20270  0.38240  0.45710  1.0000 0.1193162209
H   H639      1.0  0.83900  0.45210  0.18230  1.0000 0.1193162209
H   H640      1.0  0.84740  0.49400  0.18360  1.0000 0.1123073472
H   H641      1.0  0.85600  0.52600  0.26020  1.0000 0.1193162209
H   H642      1.0  0.85040  0.48550  0.26070  1.0000 0.128291172
H   H643      1.0  0.88640  0.54610  0.20890  1.0000 0.1193162209
H   H644      1.0  0.86870  0.60740  0.22210  1.0000 0.128291172
H   H645      1.0  0.83210  0.54830  0.23800  1.0000 0.1193162209
H   H646      1.0  0.90040  0.55810  0.18310  1.0000 0.1193162209
H   H647      1.0  0.93230  0.58010  0.17180  1.0000 0.128291172
H   H648      1.0  0.94180  0.65400  0.21940  1.0000 0.128291172
H   H649      1.0  0.90940  0.63180  0.22920  1.0000 0.1193162209
H   H650      1.0  0.66460  0.14730  0.06430  1.0000 0.128291172
H   H651      1.0  0.68670  0.13710  0.09780  1.0000 0.1123073472
H   H652      1.0  0.75650  0.16690  0.09180  1.0000 0.1123073472
H   H653      1.0  0.73340  0.17640  0.05780  1.0000 0.128291172
H   H654      1.0  0.77910  0.17710  0.13520  1.0000 0.1123073472
H   H655      1.0  0.82340  0.17030  0.18710  1.0000 0.128291172
H   H656      1.0  0.81690  0.22800  0.18590  1.0000 0.1193162209
H   H657      1.0  0.84480  0.29960  0.26240  1.0000 0.1193162209
H   H658      1.0  0.84410  0.33840  0.26070  1.0000 0.128291172
H   H659      1.0  0.79690  0.29270  0.17640  1.0000 0.128291172
H   H660      1.0  0.79730  0.25440  0.17970  1.0000 0.1193162209
H   H661      1.0  0.73020  0.54790  0.38690  1.0000 0.1193162209
H   H662      1.0  0.68960  0.50600  0.35340  1.0000 0.1123073472
H   H663      1.0  0.73420  0.47400  0.33000  1.0000 0.1193162209
H   H664      1.0  0.77520  0.51450  0.36490  1.0000 0.128291172
H   H665      1.0  0.66280  0.45390  0.34030  1.0000 0.1193162209
H   H666      1.0  0.61470  0.39260  0.26130  1.0000 0.128291172
H   H667      1.0  0.68970  0.45170  0.28380  1.0000 0.1193162209
H   H668      1.0  0.62500  0.44190  0.34230  1.0000 0.1193162209
H   H669      1.0  0.59170  0.41990  0.35220  1.0000 0.128291172
H   H670      1.0  0.56540  0.34600  0.28780  1.0000 0.128291172
H   H671      1.0  0.59740  0.36820  0.27760  1.0000 0.1193162209
H   H672      1.0  0.91700  0.85270  0.51730  1.0000 0.1193162209
H   H673      1.0  0.96070  0.86290  0.54960  1.0000 0.1193162209
H   H674      1.0  0.92490  0.83310  0.58960  1.0000 0.1123073472
H   H675      1.0  0.88140  0.82360  0.55700  1.0000 0.128291172
H   H676      1.0  0.95810  0.82290  0.60200  1.0000 0.1123073472
H   H677      1.0  0.01680  0.82970  0.65310  1.0000 0.128291172
H   H678      1.0  0.95790  0.77200  0.58890  1.0000 0.1193162209
H   H679      1.0  0.96280  0.70040  0.54520  1.0000 0.1193162209
H   H680      1.0  0.92230  0.66160  0.50570  1.0000 0.128291172
H   H681      1.0  0.88370  0.70730  0.50420  1.0000 0.128291172
H   H682      1.0  0.92530  0.74560  0.54290  1.0000 0.1193162209
H   H683      1.0  0.26980  0.65670  0.81770  1.0000 0.1193162209
H   H684      1.0  0.31040  0.66380  0.81640  1.0000 0.1123073472
H   H685      1.0  0.26580  0.59580  0.73980  1.0000 0.1193162209
H   H686      1.0  0.22480  0.58970  0.73930  1.0000 0.128291172
H   H687      1.0  0.33720  0.67750  0.79110  1.0000 0.1193162209
H   H688      1.0  0.38530  0.64660  0.77790  1.0000 0.128291172
H   H689      1.0  0.31030  0.59410  0.76200  1.0000 0.1193162209
H   H690      1.0  0.37500  0.71730  0.81690  1.0000 0.1193162209
H   H691      1.0  0.40830  0.76050  0.82820  1.0000 0.128291172
H   H692      1.0  0.43460  0.72240  0.78060  1.0000 0.128291172
H   H693      1.0  0.40260  0.68020  0.77080  1.0000 0.1193162209
H   H694      1.0  0.08300  0.60030  0.93570  1.0000 0.1193162209
H   H695      1.0  0.03930  0.58890  0.90220  1.0000 0.1123073472
H   H696      1.0  0.07510  0.66470  0.90820  1.0000 0.1123073472
H   H697      1.0  0.11860  0.67560  0.94220  1.0000 0.128291172
H   H698      1.0  0.04190  0.64390  0.86480  1.0000 0.1123073472
H   H699      1.0  0.98320  0.63630  0.81290  1.0000 0.128291172
H   H700      1.0  0.04210  0.63100  0.81410  1.0000 0.1193162209
H   H701      1.0  0.03720  0.58240  0.73760  1.0000 0.1193162209
H   H702      1.0  0.07770  0.58340  0.73930  1.0000 0.128291172
H   H703      1.0  0.11630  0.62050  0.82360  1.0000 0.128291172
H   H704      1.0  0.07470  0.61760  0.82030  1.0000 0.1193162209
H   H705      1.0  0.61310  0.16100  0.34330  1.0000 0.1193162209
H   H706      1.0  0.64660  0.15260  0.33620  1.0000 0.1123073472
H   H707      1.0  0.67000  0.14400  0.40420  1.0000 0.1193162209
H   H708      1.0  0.63510  0.14960  0.41030  1.0000 0.128291172
H   H709      1.0  0.65970  0.11360  0.32250  1.0000 0.1193162209
H   H710      1.0  0.73870  0.13130  0.35340  1.0000 0.128291172
H   H711      1.0  0.71620  0.16790  0.40590  1.0000 0.1193162209
H   H712      1.0  0.65770  0.09960  0.28270  1.0000 0.1193162209
H   H713      1.0  0.64780  0.06770  0.23950  1.0000 0.128291172
H   H714      1.0  0.71220  0.05820  0.27760  1.0000 0.128291172
H   H715      1.0  0.72240  0.09060  0.31980  1.0000 0.1193162209
H   H716      1.0  0.48270  0.33540  0.39970  1.0000 0.1193162209
H   H717      1.0  0.45040  0.31330  0.41110  1.0000 0.1123073472
H   H718      1.0  0.41040  0.24350  0.33530  1.0000 0.1123073472
H   H719      1.0  0.44300  0.26660  0.32440  1.0000 0.128291172
H   H720      1.0  0.39800  0.22090  0.35610  1.0000 0.1123073472
H   H721      1.0  0.34690  0.17660  0.36370  1.0000 0.128291172
H   H722      1.0  0.41110  0.18310  0.36900  1.0000 0.1193162209
H   H723      1.0  0.45480  0.15520  0.41760  1.0000 0.1193162209
H   H724      1.0  0.49430  0.15590  0.41660  1.0000 0.128291172
H   H725      1.0  0.49580  0.20310  0.37950  1.0000 0.128291172
H   H726      1.0  0.45710  0.20270  0.38240  1.0000 0.1193162209
H   H727      1.0  0.18230  0.83900  0.45210  1.0000 0.1193162209
H   H728      1.0  0.18360  0.84740  0.49400  1.0000 0.1123073472
H   H729      1.0  0.26020  0.85600  0.52600  1.0000 0.1193162209
H   H730      1.0  0.26070  0.85040  0.48550  1.0000 0.128291172
H   H731      1.0  0.20890  0.88640  0.54610  1.0000 0.1193162209
H   H732      1.0  0.22210  0.86870  0.60740  1.0000 0.128291172
H   H733      1.0  0.23800  0.83210  0.54830  1.0000 0.1193162209
H   H734      1.0  0.18310  0.90040  0.55810  1.0000 0.1193162209
H   H735      1.0  0.17180  0.93230  0.58010  1.0000 0.128291172
H   H736      1.0  0.21940  0.94180  0.65400  1.0000 0.128291172
H   H737      1.0  0.22920  0.90940  0.63180  1.0000 0.1193162209
H   H738      1.0  0.06430  0.66460  0.14730  1.0000 0.1193162209
H   H739      1.0  0.09780  0.68670  0.13710  1.0000 0.1123073472
H   H740      1.0  0.09180  0.75650  0.16690  1.0000 0.1123073472
H   H741      1.0  0.05780  0.73340  0.17640  1.0000 0.128291172
H   H742      1.0  0.13520  0.77910  0.17710  1.0000 0.1123073472
H   H743      1.0  0.18710  0.82340  0.17030  1.0000 0.128291172
H   H744      1.0  0.18590  0.81690  0.22800  1.0000 0.1193162209
H   H745      1.0  0.26240  0.84480  0.29960  1.0000 0.1193162209
H   H746      1.0  0.26070  0.84410  0.33840  1.0000 0.128291172
H   H747      1.0  0.17640  0.79690  0.29270  1.0000 0.128291172
H   H748      1.0  0.17970  0.79730  0.25440  1.0000 0.1193162209
H   H749      1.0  0.38690  0.73020  0.54790  1.0000 0.1193162209
H   H750      1.0  0.35340  0.68960  0.50600  1.0000 0.1123073472
H   H751      1.0  0.33000  0.73420  0.47400  1.0000 0.1193162209
H   H752      1.0  0.36490  0.77520  0.51450  1.0000 0.128291172
H   H753      1.0  0.34030  0.66280  0.45390  1.0000 0.1193162209
H   H754      1.0  0.26130  0.61470  0.39260  1.0000 0.128291172
H   H755      1.0  0.28380  0.68970  0.45170  1.0000 0.1193162209
H   H756      1.0  0.34230  0.62500  0.44190  1.0000 0.1193162209
H   H757      1.0  0.35220  0.59170  0.41990  1.0000 0.128291172
H   H758      1.0  0.28780  0.56540  0.34600  1.0000 0.128291172
H   H759      1.0  0.27760  0.59740  0.36820  1.0000 0.1193162209
H   H760      1.0  0.51730  0.91700  0.85270  1.0000 0.1193162209
H   H761      1.0  0.54960  0.96070  0.86290  1.0000 0.1123073472
H   H762      1.0  0.58960  0.92490  0.83310  1.0000 0.1123073472
H   H763      1.0  0.55700  0.88140  0.82360  1.0000 0.128291172
H   H764      1.0  0.60200  0.95810  0.82290  1.0000 0.1123073472
H   H765      1.0  0.65310  0.01680  0.82970  1.0000 0.128291172
H   H766      1.0  0.58890  0.95790  0.77200  1.0000 0.1193162209
H   H767      1.0  0.54520  0.96280  0.70040  1.0000 0.1193162209
H   H768      1.0  0.50570  0.92230  0.66160  1.0000 0.128291172
H   H769      1.0  0.50420  0.88370  0.70730  1.0000 0.128291172
H   H770      1.0  0.54290  0.92530  0.74560  1.0000 0.1193162209
H   H771      1.0  0.81770  0.26980  0.65670  1.0000 0.1193162209
H   H772      1.0  0.81640  0.31040  0.66380  1.0000 0.1123073472
H   H773      1.0  0.73980  0.26580  0.59580  1.0000 0.1193162209
H   H774      1.0  0.73930  0.22480  0.58970  1.0000 0.128291172
H   H775      1.0  0.79110  0.33720  0.67750  1.0000 0.1193162209
H   H776      1.0  0.77790  0.38530  0.64660  1.0000 0.128291172
H   H777      1.0  0.76200  0.31030  0.59410  1.0000 0.1193162209
H   H778      1.0  0.81690  0.37500  0.71730  1.0000 0.1193162209
H   H779      1.0  0.82820  0.40830  0.76050  1.0000 0.128291172
H   H780      1.0  0.78060  0.43460  0.72240  1.0000 0.128291172
H   H781      1.0  0.77080  0.40260  0.68020  1.0000 0.1193162209
H   H782      1.0  0.93570  0.08300  0.60030  1.0000 0.1193162209
H   H783      1.0  0.90220  0.03930  0.58890  1.0000 0.1123073472
H   H784      1.0  0.90820  0.07510  0.66470  1.0000 0.1123073472
H   H785      1.0  0.94220  0.11860  0.67560  1.0000 0.128291172
H   H786      1.0  0.86480  0.04190  0.64390  1.0000 0.1193162209
H   H787      1.0  0.81290  0.98320  0.63630  1.0000 0.128291172
H   H788      1.0  0.81410  0.04210  0.63100  1.0000 0.1193162209
H   H789      1.0  0.73760  0.03720  0.58240  1.0000 0.1193162209
H   H790      1.0  0.73930  0.07770  0.58340  1.0000 0.128291172
H   H791      1.0  0.82360  0.11630  0.62050  1.0000 0.128291172
H   H792      1.0  0.82030  0.07470  0.61760  1.0000 0.1193162209
H   H793      1.0  0.81770  0.54790  0.16100  1.0000 0.1193162209
H   H794      1.0  0.81640  0.50600  0.15260  1.0000 0.1123073472
H   H795      1.0  0.73980  0.47400  0.14400  1.0000 0.1193162209
H   H796      1.0  0.73930  0.51450  0.14960  1.0000 0.128291172
H   H797      1.0  0.79110  0.45390  0.11360  1.0000 0.1193162209
H   H798      1.0  0.77790  0.39260  0.13130  1.0000 0.128291172
H   H799      1.0  0.76200  0.45170  0.16790  1.0000 0.1193162209
H   H800      1.0  0.81690  0.44190  0.09960  1.0000 0.1193162209
H   H801      1.0  0.82820  0.41990  0.06770  1.0000 0.128291172
H   H802      1.0  0.78060  0.34600  0.05820  1.0000 0.128291172
H   H803      1.0  0.77080  0.36820  0.09060  1.0000 0.1193162209
H   H804      1.0  0.93570  0.85270  0.33540  1.0000 0.1193162209
H   H805      1.0  0.90220  0.86290  0.31330  1.0000 0.1123073472
H   H806      1.0  0.90820  0.83310  0.24350  1.0000 0.1123073472
H   H807      1.0  0.94220  0.82360  0.26660  1.0000 0.128291172
H   H808      1.0  0.86480  0.82290  0.22090  1.0000 0.1123073472
H   H809      1.0  0.81290  0.82970  0.17660  1.0000 0.128291172
H   H810      1.0  0.81410  0.77200  0.18310  1.0000 0.1193162209
H   H811      1.0  0.73760  0.70040  0.15520  1.0000 0.1193162209
H   H812      1.0  0.73930  0.66160  0.15590  1.0000 0.128291172
H   H813      1.0  0.82360  0.70730  0.20310  1.0000 0.128291172
H   H814      1.0  0.82030  0.74560  0.20270  1.0000 0.1193162209
H   H815      1.0  0.38690  0.65670  0.83900  1.0000 0.1193162209
H   H816      1.0  0.35340  0.66380  0.84740  1.0000 0.1123073472
H   H817      1.0  0.33000  0.59580  0.85600  1.0000 0.1193162209
H   H818      1.0  0.36490  0.58970  0.85040  1.0000 0.128291172
H   H819      1.0  0.34030  0.67750  0.88640  1.0000 0.1193162209
H   H820      1.0  0.26130  0.64660  0.86870  1.0000 0.128291172
H   H821      1.0  0.28380  0.59410  0.83210  1.0000 0.1193162209
H   H822      1.0  0.34230  0.71730  0.90040  1.0000 0.1193162209
H   H823      1.0  0.35220  0.76050  0.93230  1.0000 0.128291172
H   H824      1.0  0.28780  0.72240  0.94180  1.0000 0.128291172
H   H825      1.0  0.27760  0.68020  0.90940  1.0000 0.1193162209
H   H826      1.0  0.51730  0.60030  0.66460  1.0000 0.1193162209
H   H827      1.0  0.54960  0.58890  0.68670  1.0000 0.1193162209
H   H828      1.0  0.58960  0.66470  0.75650  1.0000 0.1123073472
H   H829      1.0  0.55700  0.67560  0.73340  1.0000 0.128291172
H   H830      1.0  0.60200  0.64390  0.77910  1.0000 0.1123073472
H   H831      1.0  0.65310  0.63630  0.82340  1.0000 0.128291172
H   H832      1.0  0.58890  0.63100  0.81690  1.0000 0.1193162209
H   H833      1.0  0.54520  0.58240  0.84480  1.0000 0.1193162209
H   H834      1.0  0.50570  0.58340  0.84410  1.0000 0.128291172
H   H835      1.0  0.50420  0.62050  0.79690  1.0000 0.128291172
H   H836      1.0  0.54290  0.61760  0.79730  1.0000 0.1193162209
H   H837      1.0  0.18230  0.34330  0.73020  1.0000 0.1193162209
H   H838      1.0  0.18360  0.33620  0.68960  1.0000 0.1123073472
H   H839      1.0  0.26020  0.40420  0.73420  1.0000 0.1193162209
H   H840      1.0  0.26070  0.41030  0.77520  1.0000 0.128291172
H   H841      1.0  0.20890  0.32250  0.66280  1.0000 0.1193162209
H   H842      1.0  0.22210  0.35340  0.61470  1.0000 0.128291172
H   H843      1.0  0.23800  0.40590  0.68970  1.0000 0.1193162209
H   H844      1.0  0.18310  0.28270  0.62500  1.0000 0.1193162209
H   H845      1.0  0.17180  0.23950  0.59170  1.0000 0.128291172
H   H846      1.0  0.21940  0.27760  0.56540  1.0000 0.128291172
H   H847      1.0  0.22920  0.31980  0.59740  1.0000 0.1193162209
H   H848      1.0  0.06430  0.39970  0.91700  1.0000 0.1193162209
H   H849      1.0  0.09780  0.41110  0.96070  1.0000 0.1123073472
H   H850      1.0  0.09180  0.33530  0.92490  1.0000 0.1123073472
H   H851      1.0  0.05780  0.32440  0.88140  1.0000 0.128291172
H   H852      1.0  0.13520  0.35610  0.95810  1.0000 0.1123073472
H   H853      1.0  0.18710  0.36370  0.01680  1.0000 0.128291172
H   H854      1.0  0.18590  0.36900  0.95790  1.0000 0.1193162209
H   H855      1.0  0.26240  0.41760  0.96280  1.0000 0.1193162209
H   H856      1.0  0.26070  0.41660  0.92230  1.0000 0.128291172
H   H857      1.0  0.17640  0.37950  0.88370  1.0000 0.128291172
H   H858      1.0  0.17970  0.38240  0.92530  1.0000 0.1193162209
H   H859      1.0  0.61310  0.45210  0.26980  1.0000 0.1193162209
H   H860      1.0  0.64660  0.49400  0.31040  1.0000 0.1123073472
H   H861      1.0  0.67000  0.52600  0.26580  1.0000 0.1193162209
H   H862      1.0  0.63510  0.48550  0.22480  1.0000 0.128291172
H   H863      1.0  0.65970  0.54610  0.33720  1.0000 0.1193162209
H   H864      1.0  0.73870  0.60740  0.38530  1.0000 0.128291172
H   H865      1.0  0.71620  0.54830  0.31030  1.0000 0.1193162209
H   H866      1.0  0.65770  0.55810  0.37500  1.0000 0.1193162209
H   H867      1.0  0.64780  0.58010  0.40830  1.0000 0.128291172
H   H868      1.0  0.71220  0.65400  0.43460  1.0000 0.128291172
H   H869      1.0  0.72240  0.63180  0.40260  1.0000 0.1193162209
H   H870      1.0  0.48270  0.14730  0.08300  1.0000 0.1193162209
H   H871      1.0  0.45040  0.13710  0.03930  1.0000 0.1123073472
H   H872      1.0  0.41040  0.16690  0.07510  1.0000 0.1123073472
H   H873      1.0  0.44300  0.17640  0.11860  1.0000 0.128291172
H   H874      1.0  0.39800  0.17710  0.04190  1.0000 0.1123073472
H   H875      1.0  0.34690  0.17030  0.98320  1.0000 0.128291172
H   H876      1.0  0.41110  0.22800  0.04210  1.0000 0.1193162209
H   H877      1.0  0.45480  0.29960  0.03720  1.0000 0.1193162209
H   H878      1.0  0.49430  0.33840  0.07770  1.0000 0.128291172
H   H879      1.0  0.49580  0.29270  0.11630  1.0000 0.128291172
H   H880      1.0  0.45710  0.25440  0.07470  1.0000 0.1193162209
H   H881      1.0  0.45210  0.26980  0.61310  1.0000 0.1193162209
H   H882      1.0  0.49400  0.31040  0.64660  1.0000 0.1123073472
H   H883      1.0  0.52600  0.26580  0.67000  1.0000 0.1193162209
H   H884      1.0  0.48550  0.22480  0.63510  1.0000 0.128291172
H   H885      1.0  0.54610  0.33720  0.65970  1.0000 0.1193162209
H   H886      1.0  0.60740  0.38530  0.73870  1.0000 0.128291172
H   H887      1.0  0.54830  0.31030  0.71620  1.0000 0.1193162209
H   H888      1.0  0.55810  0.37500  0.65770  1.0000 0.1193162209
H   H889      1.0  0.58010  0.40830  0.64780  1.0000 0.128291172
H   H890      1.0  0.65400  0.43460  0.71220  1.0000 0.128291172
H   H891      1.0  0.63180  0.40260  0.72240  1.0000 0.1193162209
H   H892      1.0  0.14730  0.08300  0.48270  1.0000 0.1193162209
H   H893      1.0  0.13710  0.03930  0.45040  1.0000 0.1123073472
H   H894      1.0  0.16690  0.07510  0.41040  1.0000 0.1123073472
H   H895      1.0  0.17640  0.11860  0.44300  1.0000 0.128291172
H   H896      1.0  0.17710  0.04190  0.39800  1.0000 0.1123073472
H   H897      1.0  0.17030  0.98320  0.34690  1.0000 0.128291172
H   H898      1.0  0.22800  0.04210  0.41110  1.0000 0.1193162209
H   H899      1.0  0.29960  0.03720  0.45480  1.0000 0.1193162209
H   H900      1.0  0.33840  0.07770  0.49430  1.0000 0.128291172
H   H901      1.0  0.29270  0.11630  0.49580  1.0000 0.128291172
H   H902      1.0  0.25440  0.07470  0.45710  1.0000 0.1193162209
H   H903      1.0  0.34330  0.73020  0.18230  1.0000 0.1193162209
H   H904      1.0  0.33620  0.68960  0.18360  1.0000 0.1123073472
H   H905      1.0  0.40420  0.73420  0.26020  1.0000 0.1193162209
H   H906      1.0  0.41030  0.77520  0.26070  1.0000 0.128291172
H   H907      1.0  0.32250  0.66280  0.20890  1.0000 0.1193162209
H   H908      1.0  0.35340  0.61470  0.22210  1.0000 0.128291172
H   H909      1.0  0.40590  0.68970  0.23800  1.0000 0.1193162209
H   H910      1.0  0.28270  0.62500  0.18310  1.0000 0.1193162209
H   H911      1.0  0.23950  0.59170  0.17180  1.0000 0.128291172
H   H912      1.0  0.27760  0.56540  0.21940  1.0000 0.128291172
H   H913      1.0  0.31980  0.59740  0.22920  1.0000 0.1193162209
H   H914      1.0  0.39970  0.91700  0.06430  1.0000 0.1193162209
H   H915      1.0  0.41110  0.96070  0.09780  1.0000 0.1123073472
H   H916      1.0  0.33530  0.92490  0.09180  1.0000 0.1123073472
H   H917      1.0  0.32440  0.88140  0.05780  1.0000 0.128291172
H   H918      1.0  0.35610  0.95810  0.13520  1.0000 0.1123073472
H   H919      1.0  0.36370  0.01680  0.18710  1.0000 0.128291172
H   H920      1.0  0.36900  0.95790  0.18590  1.0000 0.1193162209
H   H921      1.0  0.41760  0.96280  0.26240  1.0000 0.1193162209
H   H922      1.0  0.41660  0.92230  0.26070  1.0000 0.128291172
H   H923      1.0  0.37950  0.88370  0.17640  1.0000 0.128291172
H   H924      1.0  0.38240  0.92530  0.17970  1.0000 0.1193162209
H   H925      1.0  0.65670  0.83900  0.38690  1.0000 0.1193162209
H   H926      1.0  0.66380  0.84740  0.35340  1.0000 0.1123073472
H   H927      1.0  0.59580  0.85600  0.33000  1.0000 0.1193162209
H   H928      1.0  0.58970  0.85040  0.36490  1.0000 0.128291172
H   H929      1.0  0.67750  0.88640  0.34030  1.0000 0.1193162209
H   H930      1.0  0.64660  0.86870  0.26130  1.0000 0.128291172
H   H931      1.0  0.59410  0.83210  0.28380  1.0000 0.1193162209
H   H932      1.0  0.71730  0.90040  0.34230  1.0000 0.1193162209
H   H933      1.0  0.76050  0.93230  0.35220  1.0000 0.128291172
H   H934      1.0  0.72240  0.94180  0.28780  1.0000 0.128291172
H   H935      1.0  0.68020  0.90940  0.27760  1.0000 0.1193162209
H   H936      1.0  0.60030  0.66460  0.51730  1.0000 0.1193162209
H   H937      1.0  0.58890  0.68670  0.54960  1.0000 0.1123073472
H   H938      1.0  0.66470  0.75650  0.58960  1.0000 0.1123073472
H   H939      1.0  0.67560  0.73340  0.55700  1.0000 0.128291172
H   H940      1.0  0.64390  0.77910  0.60200  1.0000 0.1123073472
H   H941      1.0  0.63630  0.82340  0.65310  1.0000 0.128291172
H   H942      1.0  0.63100  0.81690  0.58890  1.0000 0.1193162209
H   H943      1.0  0.58240  0.84480  0.54520  1.0000 0.1193162209
H   H944      1.0  0.58340  0.84410  0.50570  1.0000 0.128291172
H   H945      1.0  0.62050  0.79690  0.50420  1.0000 0.128291172
H   H946      1.0  0.61760  0.79730  0.54290  1.0000 0.1193162209
H   H947      1.0  0.54790  0.16100  0.81770  1.0000 0.1193162209
H   H948      1.0  0.50600  0.15260  0.81640  1.0000 0.1123073472
H   H949      1.0  0.47400  0.14400  0.73980  1.0000 0.1193162209
H   H950      1.0  0.51450  0.14960  0.73930  1.0000 0.128291172
H   H951      1.0  0.45390  0.11360  0.79110  1.0000 0.1193162209
H   H952      1.0  0.39260  0.13130  0.77790  1.0000 0.128291172
H   H953      1.0  0.45170  0.16790  0.76200  1.0000 0.1193162209
H   H954      1.0  0.44190  0.09960  0.81690  1.0000 0.1193162209
H   H955      1.0  0.41990  0.06770  0.82820  1.0000 0.128291172
H   H956      1.0  0.34600  0.05820  0.78060  1.0000 0.128291172
H   H957      1.0  0.36820  0.09060  0.77080  1.0000 0.1193162209
H   H958      1.0  0.85270  0.33540  0.93570  1.0000 0.1193162209
H   H959      1.0  0.86290  0.31330  0.90220  1.0000 0.1123073472
H   H960      1.0  0.83310  0.24350  0.90820  1.0000 0.1123073472
H   H961      1.0  0.82360  0.26660  0.94220  1.0000 0.128291172
H   H962      1.0  0.82290  0.22090  0.86480  1.0000 0.1123073472
H   H963      1.0  0.82970  0.17660  0.81290  1.0000 0.128291172
H   H964      1.0  0.77200  0.18310  0.81410  1.0000 0.1193162209
H   H965      1.0  0.70040  0.15520  0.73760  1.0000 0.1193162209
H   H966      1.0  0.66160  0.15590  0.73930  1.0000 0.128291172
H   H967      1.0  0.70730  0.20310  0.82360  1.0000 0.128291172
H   H968      1.0  0.74560  0.20270  0.82030  1.0000 0.1193162209
H   H969      1.0  0.73020  0.18230  0.34330  1.0000 0.1193162209
H   H970      1.0  0.68960  0.18360  0.33620  1.0000 0.1123073472
H   H971      1.0  0.73420  0.26020  0.40420  1.0000 0.1193162209
H   H972      1.0  0.77520  0.26070  0.41030  1.0000 0.128291172
H   H973      1.0  0.66280  0.20890  0.32250  1.0000 0.1193162209
H   H974      1.0  0.61470  0.22210  0.35340  1.0000 0.128291172
H   H975      1.0  0.68970  0.23800  0.40590  1.0000 0.1193162209
H   H976      1.0  0.62500  0.18310  0.28270  1.0000 0.1193162209
H   H977      1.0  0.59170  0.17180  0.23950  1.0000 0.128291172
H   H978      1.0  0.56540  0.21940  0.27760  1.0000 0.128291172
H   H979      1.0  0.59740  0.22920  0.31980  1.0000 0.1193162209
H   H980      1.0  0.91700  0.06430  0.39970  1.0000 0.1193162209
H   H981      1.0  0.96070  0.09780  0.41110  1.0000 0.1123073472
H   H982      1.0  0.92490  0.09180  0.33530  1.0000 0.1123073472
H   H983      1.0  0.88140  0.05780  0.32440  1.0000 0.128291172
H   H984      1.0  0.95810  0.13520  0.35610  1.0000 0.1123073472
H   H985      1.0  0.01680  0.18710  0.36370  1.0000 0.128291172
H   H986      1.0  0.95790  0.18590  0.36900  1.0000 0.1193162209
H   H987      1.0  0.96280  0.26240  0.41760  1.0000 0.1193162209
H   H988      1.0  0.92230  0.26070  0.41660  1.0000 0.128291172
H   H989      1.0  0.88370  0.17640  0.37950  1.0000 0.128291172
H   H990      1.0  0.92530  0.17970  0.38240  1.0000 0.1193162209
H   H991      1.0  0.26980  0.61310  0.45210  1.0000 0.1193162209
H   H992      1.0  0.31040  0.64660  0.49400  1.0000 0.1123073472
H   H993      1.0  0.26580  0.67000  0.52600  1.0000 0.1193162209
H   H994      1.0  0.22480  0.63510  0.48550  1.0000 0.128291172
H   H995      1.0  0.33720  0.65970  0.54610  1.0000 0.1193162209
H   H996      1.0  0.38530  0.73870  0.60740  1.0000 0.128291172
H   H997      1.0  0.31030  0.71620  0.54830  1.0000 0.1193162209
H   H998      1.0  0.37500  0.65770  0.55810  1.0000 0.1193162209
H   H999      1.0  0.40830  0.64780  0.58010  1.0000 0.128291172
H   H1000     1.0  0.43460  0.71220  0.65400  1.0000 0.128291172
H   H1001     1.0  0.40260  0.72240  0.63180  1.0000 0.1193162209
H   H1002     1.0  0.08300  0.48270  0.14730  1.0000 0.1193162209
H   H1003     1.0  0.03930  0.45040  0.13710  1.0000 0.1123073472
H   H1004     1.0  0.07510  0.41040  0.16690  1.0000 0.1123073472
H   H1005     1.0  0.11860  0.44300  0.17640  1.0000 0.128291172
H   H1006     1.0  0.04190  0.39800  0.17710  1.0000 0.1123073472
H   H1007     1.0  0.98320  0.34690  0.17030  1.0000 0.128291172
H   H1008     1.0  0.04210  0.41110  0.22800  1.0000 0.1193162209
H   H1009     1.0  0.03720  0.45480  0.29960  1.0000 0.1193162209
H   H1010     1.0  0.07770  0.49430  0.33840  1.0000 0.128291172
H   H1011     1.0  0.11630  0.49580  0.29270  1.0000 0.128291172
H   H1012     1.0  0.07470  0.45710  0.25440  1.0000 0.1193162209
H   H1013     1.0  0.16100  0.81770  0.54790  1.0000 0.1193162209
H   H1014     1.0  0.15260  0.81640  0.50600  1.0000 0.1123073472
H   H1015     1.0  0.14400  0.73980  0.47400  1.0000 0.1193162209
H   H1016     1.0  0.14960  0.73930  0.51450  1.0000 0.128291172
H   H1017     1.0  0.11360  0.79110  0.45390  1.0000 0.1193162209
H   H1018     1.0  0.13130  0.77790  0.39260  1.0000 0.128291172
H   H1019     1.0  0.16790  0.76200  0.45170  1.0000 0.1193162209
H   H1020     1.0  0.09960  0.81690  0.44190  1.0000 0.1193162209
H   H1021     1.0  0.06770  0.82820  0.41990  1.0000 0.128291172
H   H1022     1.0  0.05820  0.78060  0.34600  1.0000 0.128291172
H   H1023     1.0  0.09060  0.77080  0.36820  1.0000 0.1193162209
H   H1024     1.0  0.33540  0.93570  0.85270  1.0000 0.1193162209
H   H1025     1.0  0.31330  0.90220  0.86290  1.0000 0.1123073472
H   H1026     1.0  0.24350  0.90820  0.83310  1.0000 0.1123073472
H   H1027     1.0  0.26660  0.94220  0.82360  1.0000 0.128291172
H   H1028     1.0  0.22090  0.86480  0.82290  1.0000 0.1123073472
H   H1029     1.0  0.17660  0.81290  0.82970  1.0000 0.128291172
H   H1030     1.0  0.18310  0.81410  0.77200  1.0000 0.1193162209
H   H1031     1.0  0.15520  0.73760  0.70040  1.0000 0.1193162209
H   H1032     1.0  0.15590  0.73930  0.66160  1.0000 0.128291172
H   H1033     1.0  0.20310  0.82360  0.70730  1.0000 0.128291172
H   H1034     1.0  0.20270  0.82030  0.74560  1.0000 0.1193162209
H   H1035     1.0  0.83900  0.38690  0.65670  1.0000 0.1193162209
H   H1036     1.0  0.84740  0.35340  0.66380  1.0000 0.1123073472
H   H1037     1.0  0.85600  0.33000  0.59580  1.0000 0.1193162209
H   H1038     1.0  0.85040  0.36490  0.58970  1.0000 0.128291172
H   H1039     1.0  0.88640  0.34030  0.67750  1.0000 0.1193162209
H   H1040     1.0  0.86870  0.26130  0.64660  1.0000 0.128291172
H   H1041     1.0  0.83210  0.28380  0.59410  1.0000 0.1193162209
H   H1042     1.0  0.90040  0.34230  0.71730  1.0000 0.1193162209
H   H1043     1.0  0.93230  0.35220  0.76050  1.0000 0.128291172
H   H1044     1.0  0.94180  0.28780  0.72240  1.0000 0.128291172
H   H1045     1.0  0.90940  0.27760  0.68020  1.0000 0.1193162209
H   H1046     1.0  0.66460  0.51730  0.60030  1.0000 0.1193162209
H   H1047     1.0  0.68670  0.54960  0.58890  1.0000 0.1123073472
H   H1048     1.0  0.75650  0.58960  0.66470  1.0000 0.1123073472
H   H1049     1.0  0.73340  0.55700  0.67560  1.0000 0.128291172
H   H1050     1.0  0.77910  0.60200  0.64390  1.0000 0.1123073472
H   H1051     1.0  0.82340  0.65310  0.63630  1.0000 0.128291172
H   H1052     1.0  0.81690  0.58890  0.63100  1.0000 0.1193162209
H   H1053     1.0  0.84480  0.54520  0.58240  1.0000 0.1193162209
H   H1054     1.0  0.84410  0.50570  0.58340  1.0000 0.128291172
H   H1055     1.0  0.79690  0.50420  0.62050  1.0000 0.128291172
H   H1056     1.0  0.79730  0.54290  0.61760  1.0000 0.1193162209
H   H1057     1.0  0.59730  0.22580  0.82310  1.0000 0.1398591026
H   H1058     1.0  0.57710  0.23830  0.81540  1.0000 0.1398591026
H   H1059     1.0  0.40270  0.77420  0.17690  1.0000 0.1398591026
H   H1060     1.0  0.42290  0.76170  0.18460  1.0000 0.1398591026
H   H1061     1.0  0.59730  0.77420  0.37150  1.0000 0.1398591026
H   H1062     1.0  0.57710  0.76170  0.33880  1.0000 0.1398591026
H   H1063     1.0  0.40270  0.22580  0.62850  1.0000 0.1398591026
H   H1064     1.0  0.42290  0.23830  0.66120  1.0000 0.1398591026
H   H1065     1.0  0.82310  0.59730  0.22580  1.0000 0.1398591026
H   H1066     1.0  0.81540  0.57710  0.23830  1.0000 0.1398591026
H   H1067     1.0  0.17690  0.40270  0.77420  1.0000 0.1398591026
H   H1068     1.0  0.18460  0.42290  0.76170  1.0000 0.1398591026
H   H1069     1.0  0.37150  0.59730  0.77420  1.0000 0.1398591026
H   H1070     1.0  0.33880  0.57710  0.76170  1.0000 0.1398591026
H   H1071     1.0  0.62850  0.40270  0.22580  1.0000 0.1398591026
H   H1072     1.0  0.66120  0.42290  0.23830  1.0000 0.1398591026
H   H1073     1.0  0.22580  0.82310  0.59730  1.0000 0.1398591026
H   H1074     1.0  0.23830  0.81540  0.57710  1.0000 0.1398591026
H   H1075     1.0  0.77420  0.17690  0.40270  1.0000 0.1398591026
H   H1076     1.0  0.76170  0.18460  0.42290  1.0000 0.1398591026
H   H1077     1.0  0.77420  0.37150  0.59730  1.0000 0.1398591026
H   H1078     1.0  0.76170  0.33880  0.57710  1.0000 0.1398591026
H   H1079     1.0  0.22580  0.62850  0.40270  1.0000 0.1398591026
H   H1080     1.0  0.23830  0.66120  0.42290  1.0000 0.1398591026
H   H1081     1.0  0.22580  0.59730  0.82310  1.0000 0.1398591026
H   H1082     1.0  0.23830  0.57710  0.81540  1.0000 0.1398591026
H   H1083     1.0  0.77420  0.40270  0.17690  1.0000 0.1398591026
H   H1084     1.0  0.76170  0.42290  0.18460  1.0000 0.1398591026
H   H1085     1.0  0.77420  0.59730  0.37150  1.0000 0.1398591026
H   H1086     1.0  0.76170  0.57710  0.33880  1.0000 0.1398591026
H   H1087     1.0  0.22580  0.40270  0.62850  1.0000 0.1398591026
H   H1088     1.0  0.23830  0.42290  0.66120  1.0000 0.1398591026
H   H1089     1.0  0.40270  0.62850  0.22580  1.0000 0.1398591026
H   H1090     1.0  0.42290  0.66120  0.23830  1.0000 0.1398591026
H   H1091     1.0  0.59730  0.37150  0.77420  1.0000 0.1398591026
H   H1092     1.0  0.57710  0.33880  0.76170  1.0000 0.1398591026
H   H1093     1.0  0.40270  0.17690  0.77420  1.0000 0.1398591026
H   H1094     1.0  0.42290  0.18460  0.76170  1.0000 0.1398591026
H   H1095     1.0  0.59730  0.82310  0.22580  1.0000 0.1398591026
H   H1096     1.0  0.57710  0.81540  0.23830  1.0000 0.1398591026
H   H1097     1.0  0.37150  0.77420  0.59730  1.0000 0.1398591026
H   H1098     1.0  0.33880  0.76170  0.57710  1.0000 0.1398591026
H   H1099     1.0  0.62850  0.22580  0.40270  1.0000 0.1398591026
H   H1100     1.0  0.66120  0.23830  0.42290  1.0000 0.1398591026
H   H1101     1.0  0.82310  0.22580  0.59730  1.0000 0.1398591026
H   H1102     1.0  0.81540  0.23830  0.57710  1.0000 0.1398591026
H   H1103     1.0  0.17690  0.77420  0.40270  1.0000 0.1398591026
H   H1104     1.0  0.18460  0.76170  0.42290  1.0000 0.1398591026
H   H1105     1.0  0.59300  0.59300  0.70600  1.0000 0.1123073472
H   H1106     1.0  0.55980  0.55980  0.81900  1.0000 0.1123073472
H   H1107     1.0  0.88700  0.88700  0.29400  1.0000 0.1123073472
H   H1108     1.0  0.74080  0.74080  0.18100  1.0000 0.1123073472
H   H1109     1.0  0.11300  0.40700  0.00000  1.0000 0.1123073472
H   H1110     1.0  0.25920  0.44020  0.00000  1.0000 0.1123073472
H   H1111     1.0  0.40700  0.11300  0.00000  1.0000 0.1123073472
H   H1112     1.0  0.44020  0.25920  0.00000  1.0000 0.1123073472
H   H1113     1.0  0.70600  0.59300  0.59300  1.0000 0.1123073472
H   H1114     1.0  0.81900  0.55980  0.55980  1.0000 0.1193162209
H   H1115     1.0  0.29400  0.88700  0.88700  1.0000 0.1123073472
H   H1116     1.0  0.18100  0.74080  0.74080  1.0000 0.1123073472
H   H1117     1.0  0.00000  0.11300  0.40700  1.0000 0.1123073472
H   H1118     1.0  1.00000  0.25920  0.44020  1.0000 0.1123073472
H   H1119     1.0  1.00000  0.40700  0.11300  1.0000 0.1123073472
H   H1120     1.0  1.00000  0.44020  0.25920  1.0000 0.1123073472
H   H1121     1.0  0.59300  0.70600  0.59300  1.0000 0.1123073472
H   H1122     1.0  0.55980  0.81900  0.55980  1.0000 0.1123073472
H   H1123     1.0  0.88700  0.29400  0.88700  1.0000 0.1123073472
H   H1124     1.0  0.74080  0.18100  0.74080  1.0000 0.1193162209
H   H1125     1.0  0.40700  0.00000  0.11300  1.0000 0.1123073472
H   H1126     1.0  0.44020  0.00000  0.25920  1.0000 0.1123073472
H   H1127     1.0  0.11300  0.00000  0.40700  1.0000 0.1123073472
H   H1128     1.0  0.25920  0.00000  0.44020  1.0000 0.1123073472
H   H1129     1.0  0.11300  0.11300  0.70600  1.0000 0.1123073472
H   H1130     1.0  0.25920  0.25920  0.81900  1.0000 0.1193162209
H   H1131     1.0  0.40700  0.40700  0.29400  1.0000 0.1123073472
H   H1132     1.0  0.44020  0.44020  0.18100  1.0000 0.1123073472
H   H1133     1.0  0.88700  0.59300  0.00000  1.0000 0.1123073472
H   H1134     1.0  0.74080  0.55980  0.00000  1.0000 0.1193162209
H   H1135     1.0  0.59300  0.88700  0.00000  1.0000 0.1123073472
H   H1136     1.0  0.55980  0.74080  0.00000  1.0000 0.1123073472
H   H1137     1.0  0.88700  0.00000  0.59300  1.0000 0.1123073472
H   H1138     1.0  0.74080  0.00000  0.55980  1.0000 0.1123073472
H   H1139     1.0  0.59300  0.00000  0.88700  1.0000 0.1123073472
H   H1140     1.0  0.55980  0.00000  0.74080  1.0000 0.1123073472
H   H1141     1.0  0.40700  0.29400  0.40700  1.0000 0.1123073472
H   H1142     1.0  0.44020  0.18100  0.44020  1.0000 0.1123073472
H   H1143     1.0  0.11300  0.70600  0.11300  1.0000 0.1123073472
H   H1144     1.0  0.25920  0.81900  0.25920  1.0000 0.1123073472
H   H1145     1.0  0.00000  0.88700  0.59300  1.0000 0.1123073472
H   H1146     1.0  1.00000  0.74080  0.55980  1.0000 0.1123073472
H   H1147     1.0  1.00000  0.59300  0.88700  1.0000 0.1123073472
H   H1148     1.0  1.00000  0.55980  0.74080  1.0000 0.1193162209
H   H1149     1.0  0.70600  0.11300  0.11300  1.0000 0.1123073472
H   H1150     1.0  0.81900  0.25920  0.25920  1.0000 0.1193162209
H   H1151     1.0  0.29400  0.40700  0.40700  1.0000 0.1123073472
H   H1152     1.0  0.18100  0.44020  0.44020  1.0000 0.1123073472
C   C1        1.0  0.61714  0.40221  0.83857  1.0000 0.5634087017
C   C2        1.0  0.62213  0.37965  0.84350  1.0000 -0.0114505005
C   C3        1.0  0.64433  0.37556  0.84293  1.0000 -0.0975672594
C   C4        1.0  0.64853  0.35569  0.84798  1.0000 -0.1618789427
C   C5        1.0  0.63079  0.33853  0.85396  1.0000 0.0710823839
C   C6        1.0  0.60895  0.34220  0.85337  1.0000 -0.1487380139
C   C7        1.0  0.60472  0.36252  0.84926  1.0000 -0.0975672594
C   C8        1.0  0.63549  0.31589  0.85874  1.0000 0.0888590467
C   C9        1.0  0.66198  0.32183  0.87675  1.0000 -0.2190345834
C   C10       1.0  0.66611  0.30081  0.88082  1.0000 0.0888590467
C   C11       1.0  0.64369  0.27562  0.86623  1.0000 -0.2053535767
C   C12       1.0  0.61564  0.26723  0.84723  1.0000 0.1486529698
C   C13       1.0  0.61235  0.28781  0.84422  1.0000 -0.2190345834
C   C14       1.0  0.69389  0.30834  0.90077  1.0000 0.0710823839
C   C15       1.0  0.71819  0.33068  0.90853  1.0000 -0.1618789427
C   C16       1.0  0.74385  0.33681  0.92770  1.0000 -0.0807478933
C   C17       1.0  0.74561  0.32040  0.94057  1.0000 -0.0515007359
C   C18       1.0  0.72189  0.29914  0.93331  1.0000 -0.0748921724
C   C19       1.0  0.69675  0.29316  0.91401  1.0000 -0.1618789427
C   C20       1.0  0.77343  0.32896  0.96231  1.0000 0.577411362
C   C21       1.0  0.64625  0.51329  0.68206  1.0000 0.5712837381
C   C22       1.0  0.63964  0.53424  0.69688  1.0000 -0.0426629581
C   C23       1.0  0.61359  0.53220  0.68325  1.0000 -0.0807478933
C   C24       1.0  0.60672  0.55144  0.69634  1.0000 -0.1674999952
C   C25       1.0  0.62600  0.57341  0.72357  1.0000 0.0800660619
C   C26       1.0  0.65156  0.57512  0.73754  1.0000 -0.1618789427
C   C27       1.0  0.65800  0.55543  0.72371  1.0000 -0.0807478933
C   C28       1.0  0.61982  0.59457  0.73997  1.0000 0.0800660619
C   C29       1.0  0.63113  0.60654  0.76913  1.0000 -0.2190345834
C   C30       1.0  0.61592  0.59108  0.81804  1.0000 -0.2190345834
C   C31       1.0  0.59638  0.57099  0.81931  1.0000 0.0710823839
C   C32       1.0  0.59898  0.54790  0.81996  1.0000 0.0600673988
C   C33       1.0  0.58972  0.53670  0.83442  1.0000 -0.1618789427
C   C34       1.0  0.59071  0.51334  0.83437  1.0000 -0.0923104735
C   C35       1.0  0.60226  0.50068  0.82022  1.0000 -0.0307098222
C   C36       1.0  0.61225  0.51187  0.80652  1.0000 -0.0807478933
C   C37       1.0  0.61031  0.53520  0.80697  1.0000 -0.1674999952
C   C38       1.0  0.60296  0.47560  0.82172  1.0000 0.577411362
C   C39       1.0  0.56364  0.77857  0.16143  1.0000 0.5634087017
C   C40       1.0  0.53615  0.77863  0.15650  1.0000 -0.0114505005
C   C41       1.0  0.53263  0.80140  0.15707  1.0000 -0.0975672594
C   C42       1.0  0.50771  0.80055  0.15202  1.0000 -0.1618789427
C   C43       1.0  0.48457  0.77683  0.14604  1.0000 0.0710823839
C   C44       1.0  0.48883  0.75558  0.14663  1.0000 -0.1487380139
C   C45       1.0  0.51326  0.75546  0.15074  1.0000 -0.0975672594
C   C46       1.0  0.45715  0.77675  0.14126  1.0000 0.0888590467
C   C47       1.0  0.44508  0.78523  0.12325  1.0000 -0.2190345834
C   C48       1.0  0.41999  0.78529  0.11918  1.0000 0.0888590467
C   C49       1.0  0.40939  0.77746  0.13377  1.0000 -0.2053535767
C   C50       1.0  0.42000  0.76841  0.15277  1.0000 0.1486529698
C   C51       1.0  0.44359  0.76813  0.15578  1.0000 -0.2190345834
C   C52       1.0  0.40757  0.79312  0.09923  1.0000 0.0710823839
C   C53       1.0  0.42215  0.80966  0.09147  1.0000 -0.1618789427
C   C54       1.0  0.40911  0.81615  0.07230  1.0000 -0.0807478933
C   C55       1.0  0.37983  0.80504  0.05943  1.0000 -0.0515007359
C   C56       1.0  0.36583  0.78858  0.06669  1.0000 -0.0748921724
C   C57       1.0  0.37915  0.78274  0.08599  1.0000 -0.1618789427
C   C58       1.0  0.36665  0.81112  0.03769  1.0000 0.577411362
C   C59       1.0  0.83123  0.96419  0.31794  1.0000 0.5712837381
C   C60       1.0  0.83736  0.94276  0.30312  1.0000 -0.0426629581
C   C61       1.0  0.84895  0.93034  0.31675  1.0000 -0.0807478933
C   C62       1.0  0.85510  0.91038  0.30366  1.0000 -0.1674999952
C   C63       1.0  0.84984  0.90243  0.27643  1.0000 0.0800660619
C   C64       1.0  0.83758  0.91402  0.26246  1.0000 -0.1618789427
C   C65       1.0  0.83172  0.93429  0.27629  1.0000 -0.0807478933
C   C66       1.0  0.85460  0.87985  0.26003  1.0000 0.0800660619
C   C67       1.0  0.83741  0.86200  0.23087  1.0000 -0.2190345834
C   C68       1.0  0.77304  0.79788  0.18196  1.0000 -0.2190345834
C   C69       1.0  0.75168  0.77707  0.18069  1.0000 0.0710823839
C   C70       1.0  0.72794  0.77902  0.18004  1.0000 0.0600673988
C   C71       1.0  0.70228  0.75530  0.16558  1.0000 -0.1618789427
C   C72       1.0  0.67897  0.75634  0.16563  1.0000 -0.0923104735
C   C73       1.0  0.68046  0.78204  0.17978  1.0000 -0.0307098222
C   C74       1.0  0.70535  0.80573  0.19348  1.0000 -0.0807478933
C   C75       1.0  0.72823  0.80334  0.19303  1.0000 -0.1674999952
C   C76       1.0  0.65388  0.78124  0.17828  1.0000 0.577411362
C   C77       1.0  0.43636  0.59779  0.21493  1.0000 0.5634087017
C   C78       1.0  0.46385  0.62035  0.24248  1.0000 -0.0114505005
C   C79       1.0  0.46737  0.62444  0.26877  1.0000 -0.0975672594
C   C80       1.0  0.49229  0.64431  0.29284  1.0000 -0.1618789427
C   C81       1.0  0.51543  0.66147  0.29226  1.0000 0.0710823839
C   C82       1.0  0.51117  0.65780  0.26675  1.0000 -0.1487380139
C   C83       1.0  0.48674  0.63748  0.24220  1.0000 -0.0975672594
C   C84       1.0  0.54285  0.68411  0.31960  1.0000 0.0888590467
C   C85       1.0  0.55492  0.67817  0.34015  1.0000 -0.2190345834
C   C86       1.0  0.58001  0.69919  0.36530  1.0000 0.0888590467
C   C87       1.0  0.59061  0.72438  0.36807  1.0000 -0.2053535767
C   C88       1.0  0.58000  0.73277  0.34841  1.0000 0.1486529698
C   C89       1.0  0.55641  0.71219  0.32454  1.0000 -0.2190345834
C   C90       1.0  0.59243  0.69166  0.38555  1.0000 0.0710823839
C   C91       1.0  0.57785  0.66932  0.38751  1.0000 -0.1618789427
C   C92       1.0  0.59089  0.66319  0.40704  1.0000 -0.0807478933
C   C93       1.0  0.62017  0.67960  0.42521  1.0000 -0.0515007359
C   C94       1.0  0.63417  0.70086  0.42275  1.0000 -0.0748921724
C   C95       1.0  0.62085  0.70684  0.40359  1.0000 -0.1618789427
C   C96       1.0  0.63335  0.67104  0.44447  1.0000 0.577411362
C   C97       1.0  0.16877  0.48671  0.13296  1.0000 0.5712837381
C   C98       1.0  0.16264  0.46576  0.10540  1.0000 -0.0426629581
C   C99       1.0  0.15105  0.46780  0.08139  1.0000 -0.0807478933
C   C100      1.0  0.14490  0.44856  0.05528  1.0000 -0.1674999952
C   C101      1.0  0.15016  0.42659  0.05259  1.0000 0.0800660619
C   C102      1.0  0.16242  0.42488  0.07644  1.0000 -0.1618789427
C   C103      1.0  0.16828  0.44457  0.10257  1.0000 -0.0807478933
C   C104      1.0  0.14540  0.40543  0.02525  1.0000 0.0800660619
C   C105      1.0  0.16259  0.39346  0.02459  1.0000 -0.2190345834
C   C106      1.0  0.22696  0.40892  0.02484  1.0000 -0.2190345834
C   C107      1.0  0.24832  0.42901  0.02539  1.0000 0.0710823839
C   C108      1.0  0.27206  0.45210  0.05108  1.0000 0.0600673988
C   C109      1.0  0.29772  0.46330  0.05302  1.0000 -0.1618789427
C   C110      1.0  0.32103  0.48666  0.07737  1.0000 -0.0923104735
C   C111      1.0  0.31954  0.49932  0.10158  1.0000 -0.0307098222
C   C112      1.0  0.29465  0.48813  0.10038  1.0000 -0.0807478933
C   C113      1.0  0.27177  0.46480  0.07511  1.0000 -0.1674999952
C   C114      1.0  0.34612  0.52440  0.12736  1.0000 0.577411362
C   C115      1.0  0.38286  0.22143  0.78507  1.0000 0.5634087017
C   C116      1.0  0.37787  0.22137  0.75752  1.0000 -0.0114505005
C   C117      1.0  0.35567  0.19860  0.73123  1.0000 -0.0975672594
C   C118      1.0  0.35147  0.19945  0.70716  1.0000 -0.1618789427
C   C119      1.0  0.36921  0.22317  0.70774  1.0000 0.0710823839
C   C120      1.0  0.39105  0.24442  0.73325  1.0000 -0.1487380139
C   C121      1.0  0.39528  0.24454  0.75780  1.0000 -0.0975672594
C   C122      1.0  0.36451  0.22325  0.68040  1.0000 0.0888590467
C   C123      1.0  0.33802  0.21477  0.65985  1.0000 -0.2190345834
C   C124      1.0  0.33389  0.21471  0.63470  1.0000 0.0888590467
C   C125      1.0  0.35631  0.22254  0.63193  1.0000 -0.2053535767
C   C126      1.0  0.38436  0.23159  0.65159  1.0000 0.1486529698
C   C127      1.0  0.38765  0.23187  0.67546  1.0000 -0.2190345834
C   C128      1.0  0.30611  0.20688  0.61445  1.0000 0.0710823839
C   C129      1.0  0.28181  0.19034  0.61249  1.0000 -0.1618789427
C   C130      1.0  0.25615  0.18385  0.59296  1.0000 -0.0807478933
C   C131      1.0  0.25439  0.19496  0.57479  1.0000 -0.0515007359
C   C132      1.0  0.27811  0.21142  0.57725  1.0000 -0.0748921724
C   C133      1.0  0.30325  0.21726  0.59641  1.0000 -0.1618789427
C   C134      1.0  0.22657  0.18888  0.55553  1.0000 0.577411362
C   C135      1.0  0.35375  0.03581  0.86704  1.0000 0.5712837381
C   C136      1.0  0.36036  0.05724  0.89460  1.0000 -0.0426629581
C   C137      1.0  0.38641  0.06966  0.91861  1.0000 -0.0807478933
C   C138      1.0  0.39328  0.08962  0.94472  1.0000 -0.1674999952
C   C139      1.0  0.37400  0.09757  0.94741  1.0000 0.0800660619
C   C140      1.0  0.34844  0.08598  0.92356  1.0000 -0.1618789427
C   C141      1.0  0.34200  0.06571  0.89743  1.0000 -0.0807478933
C   C142      1.0  0.38018  0.12015  0.97475  1.0000 0.0800660619
C   C143      1.0  0.36887  0.13800  0.97541  1.0000 -0.2190345834
C   C144      1.0  0.38408  0.20212  0.97516  1.0000 -0.2190345834
C   C145      1.0  0.40362  0.22293  0.97461  1.0000 0.0710823839
C   C146      1.0  0.40102  0.22098  0.94892  1.0000 0.0600673988
C   C147      1.0  0.41028  0.24470  0.94698  1.0000 -0.1618789427
C   C148      1.0  0.40929  0.24366  0.92263  1.0000 -0.0923104735
C   C149      1.0  0.39774  0.21796  0.89842  1.0000 -0.0307098222
C   C150      1.0  0.38775  0.19427  0.89962  1.0000 -0.0807478933
C   C151      1.0  0.38969  0.19666  0.92489  1.0000 -0.1674999952
C   C152      1.0  0.39704  0.21876  0.87264  1.0000 0.577411362
C   C153      1.0  0.83857  0.61714  0.40221  1.0000 0.5634087017
C   C154      1.0  0.84350  0.62213  0.37965  1.0000 -0.0114505005
C   C155      1.0  0.84293  0.64433  0.37556  1.0000 -0.0975672594
C   C156      1.0  0.84798  0.64853  0.35569  1.0000 -0.1618789427
C   C157      1.0  0.85396  0.63079  0.33853  1.0000 0.0710823839
C   C158      1.0  0.85337  0.60895  0.34220  1.0000 -0.1487380139
C   C159      1.0  0.84926  0.60472  0.36252  1.0000 -0.0975672594
C   C160      1.0  0.85874  0.63549  0.31589  1.0000 0.0888590467
C   C161      1.0  0.87675  0.66198  0.32183  1.0000 -0.2190345834
C   C162      1.0  0.88082  0.66611  0.30081  1.0000 0.0888590467
C   C163      1.0  0.86623  0.64369  0.27562  1.0000 -0.2053535767
C   C164      1.0  0.84723  0.61564  0.26723  1.0000 0.1486529698
C   C165      1.0  0.84422  0.61235  0.28781  1.0000 -0.2190345834
C   C166      1.0  0.90077  0.69389  0.30834  1.0000 0.0710823839
C   C167      1.0  0.90853  0.71819  0.33068  1.0000 -0.1618789427
C   C168      1.0  0.92770  0.74385  0.33681  1.0000 -0.0807478933
C   C169      1.0  0.94057  0.74561  0.32040  1.0000 -0.0515007359
C   C170      1.0  0.93331  0.72189  0.29914  1.0000 -0.0748921724
C   C171      1.0  0.91401  0.69675  0.29316  1.0000 -0.1618789427
C   C172      1.0  0.96231  0.77343  0.32896  1.0000 0.577411362
C   C173      1.0  0.68206  0.64625  0.51329  1.0000 0.5712837381
C   C174      1.0  0.69688  0.63964  0.53424  1.0000 -0.0426629581
C   C175      1.0  0.68325  0.61359  0.53220  1.0000 -0.0807478933
C   C176      1.0  0.69634  0.60672  0.55144  1.0000 -0.1674999952
C   C177      1.0  0.72357  0.62600  0.57341  1.0000 0.0800660619
C   C178      1.0  0.73754  0.65156  0.57512  1.0000 -0.1618789427
C   C179      1.0  0.72371  0.65800  0.55543  1.0000 -0.0807478933
C   C180      1.0  0.73997  0.61982  0.59457  1.0000 0.0800660619
C   C181      1.0  0.76913  0.63113  0.60654  1.0000 -0.2190345834
C   C182      1.0  0.81804  0.61592  0.59108  1.0000 -0.2190345834
C   C183      1.0  0.81931  0.59638  0.57099  1.0000 0.0710823839
C   C184      1.0  0.81996  0.59898  0.54790  1.0000 0.0600673988
C   C185      1.0  0.83442  0.58972  0.53670  1.0000 -0.1618789427
C   C186      1.0  0.83437  0.59071  0.51334  1.0000 -0.0923104735
C   C187      1.0  0.82022  0.60226  0.50068  1.0000 -0.0307098222
C   C188      1.0  0.80652  0.61225  0.51187  1.0000 -0.0807478933
C   C189      1.0  0.80697  0.61031  0.53520  1.0000 -0.1674999952
C   C190      1.0  0.82172  0.60296  0.47560  1.0000 0.577411362
C   C191      1.0  0.16143  0.56364  0.77857  1.0000 0.5634087017
C   C192      1.0  0.15650  0.53615  0.77863  1.0000 -0.0114505005
C   C193      1.0  0.15707  0.53263  0.80140  1.0000 -0.0975672594
C   C194      1.0  0.15202  0.50771  0.80055  1.0000 -0.1618789427
C   C195      1.0  0.14604  0.48457  0.77683  1.0000 0.0710823839
C   C196      1.0  0.14663  0.48883  0.75558  1.0000 -0.1487380139
C   C197      1.0  0.15074  0.51326  0.75546  1.0000 -0.0975672594
C   C198      1.0  0.14126  0.45715  0.77675  1.0000 0.0888590467
C   C199      1.0  0.12325  0.44508  0.78523  1.0000 -0.2190345834
C   C200      1.0  0.11918  0.41999  0.78529  1.0000 0.0888590467
C   C201      1.0  0.13377  0.40939  0.77746  1.0000 -0.2053535767
C   C202      1.0  0.15277  0.42000  0.76841  1.0000 0.1486529698
C   C203      1.0  0.15578  0.44359  0.76813  1.0000 -0.2190345834
C   C204      1.0  0.09923  0.40757  0.79312  1.0000 0.0710823839
C   C205      1.0  0.09147  0.42215  0.80966  1.0000 -0.1618789427
C   C206      1.0  0.07230  0.40911  0.81615  1.0000 -0.0807478933
C   C207      1.0  0.05943  0.37983  0.80504  1.0000 -0.0515007359
C   C208      1.0  0.06669  0.36583  0.78858  1.0000 -0.0807478933
C   C209      1.0  0.08599  0.37915  0.78274  1.0000 -0.1618789427
C   C210      1.0  0.03769  0.36665  0.81112  1.0000 0.577411362
C   C211      1.0  0.31794  0.83123  0.96419  1.0000 0.5712837381
C   C212      1.0  0.30312  0.83736  0.94276  1.0000 -0.0426629581
C   C213      1.0  0.31675  0.84895  0.93034  1.0000 -0.0807478933
C   C214      1.0  0.30366  0.85510  0.91038  1.0000 -0.1674999952
C   C215      1.0  0.27643  0.84984  0.90243  1.0000 0.0800660619
C   C216      1.0  0.26246  0.83758  0.91402  1.0000 -0.1618789427
C   C217      1.0  0.27629  0.83172  0.93429  1.0000 -0.0807478933
C   C218      1.0  0.26003  0.85460  0.87985  1.0000 0.0800660619
C   C219      1.0  0.23087  0.83741  0.86200  1.0000 -0.2190345834
C   C220      1.0  0.18196  0.77304  0.79788  1.0000 -0.2190345834
C   C221      1.0  0.18069  0.75168  0.77707  1.0000 0.0710823839
C   C222      1.0  0.18004  0.72794  0.77902  1.0000 0.0600673988
C   C223      1.0  0.16558  0.70228  0.75530  1.0000 -0.1618789427
C   C224      1.0  0.16563  0.67897  0.75634  1.0000 -0.0923104735
C   C225      1.0  0.17978  0.68046  0.78204  1.0000 -0.0307098222
C   C226      1.0  0.19348  0.70535  0.80573  1.0000 -0.0807478933
C   C227      1.0  0.19303  0.72823  0.80334  1.0000 -0.1674999952
C   C228      1.0  0.17828  0.65388  0.78124  1.0000 0.577411362
C   C229      1.0  0.21493  0.43636  0.59779  1.0000 0.5634087017
C   C230      1.0  0.24248  0.46385  0.62035  1.0000 -0.0114505005
C   C231      1.0  0.26877  0.46737  0.62444  1.0000 -0.0975672594
C   C232      1.0  0.29284  0.49229  0.64431  1.0000 -0.1618789427
C   C233      1.0  0.29226  0.51543  0.66147  1.0000 0.0710823839
C   C234      1.0  0.26675  0.51117  0.65780  1.0000 -0.1487380139
C   C235      1.0  0.24220  0.48674  0.63748  1.0000 -0.0975672594
C   C236      1.0  0.31960  0.54285  0.68411  1.0000 0.0888590467
C   C237      1.0  0.34015  0.55492  0.67817  1.0000 -0.2190345834
C   C238      1.0  0.36530  0.58001  0.69919  1.0000 0.0888590467
C   C239      1.0  0.36807  0.59061  0.72438  1.0000 -0.2053535767
C   C240      1.0  0.34841  0.58000  0.73277  1.0000 0.1486529698
C   C241      1.0  0.32454  0.55641  0.71219  1.0000 -0.2190345834
C   C242      1.0  0.38555  0.59243  0.69166  1.0000 0.0710823839
C   C243      1.0  0.38751  0.57785  0.66932  1.0000 -0.1618789427
C   C244      1.0  0.40704  0.59089  0.66319  1.0000 -0.0807478933
C   C245      1.0  0.42521  0.62017  0.67960  1.0000 -0.0515007359
C   C246      1.0  0.42275  0.63417  0.70086  1.0000 -0.0748921724
C   C247      1.0  0.40359  0.62085  0.70684  1.0000 -0.1618789427
C   C248      1.0  0.44447  0.63335  0.67104  1.0000 0.577411362
C   C249      1.0  0.13296  0.16877  0.48671  1.0000 0.5712837381
C   C250      1.0  0.10540  0.16264  0.46576  1.0000 -0.0426629581
C   C251      1.0  0.08139  0.15105  0.46780  1.0000 -0.0807478933
C   C252      1.0  0.05528  0.14490  0.44856  1.0000 -0.1674999952
C   C253      1.0  0.05259  0.15016  0.42659  1.0000 0.0800660619
C   C254      1.0  0.07644  0.16242  0.42488  1.0000 -0.1618789427
C   C255      1.0  0.10257  0.16828  0.44457  1.0000 -0.0807478933
C   C256      1.0  0.02525  0.14540  0.40543  1.0000 0.0800660619
C   C257      1.0  0.02459  0.16259  0.39346  1.0000 -0.2190345834
C   C258      1.0  0.02484  0.22696  0.40892  1.0000 -0.2190345834
C   C259      1.0  0.02539  0.24832  0.42901  1.0000 0.0710823839
C   C260      1.0  0.05108  0.27206  0.45210  1.0000 0.0600673988
C   C261      1.0  0.05302  0.29772  0.46330  1.0000 -0.1618789427
C   C262      1.0  0.07737  0.32103  0.48666  1.0000 -0.0923104735
C   C263      1.0  0.10158  0.31954  0.49932  1.0000 -0.0307098222
C   C264      1.0  0.10038  0.29465  0.48813  1.0000 -0.0807478933
C   C265      1.0  0.07511  0.27177  0.46480  1.0000 -0.1674999952
C   C266      1.0  0.12736  0.34612  0.52440  1.0000 0.577411362
C   C267      1.0  0.78507  0.38286  0.22143  1.0000 0.5634087017
C   C268      1.0  0.75752  0.37787  0.22137  1.0000 -0.0114505005
C   C269      1.0  0.73123  0.35567  0.19860  1.0000 -0.0975672594
C   C270      1.0  0.70716  0.35147  0.19945  1.0000 -0.1618789427
C   C271      1.0  0.70774  0.36921  0.22317  1.0000 0.0710823839
C   C272      1.0  0.73325  0.39105  0.24442  1.0000 -0.1487380139
C   C273      1.0  0.75780  0.39528  0.24454  1.0000 -0.0975672594
C   C274      1.0  0.68040  0.36451  0.22325  1.0000 0.0888590467
C   C275      1.0  0.65985  0.33802  0.21477  1.0000 -0.2190345834
C   C276      1.0  0.63470  0.33389  0.21471  1.0000 0.0888590467
C   C277      1.0  0.63193  0.35631  0.22254  1.0000 -0.2053535767
C   C278      1.0  0.65159  0.38436  0.23159  1.0000 0.1486529698
C   C279      1.0  0.67546  0.38765  0.23187  1.0000 -0.2190345834
C   C280      1.0  0.61445  0.30611  0.20688  1.0000 0.0710823839
C   C281      1.0  0.61249  0.28181  0.19034  1.0000 -0.1618789427
C   C282      1.0  0.59296  0.25615  0.18385  1.0000 -0.0807478933
C   C283      1.0  0.57479  0.25439  0.19496  1.0000 -0.0515007359
C   C284      1.0  0.57725  0.27811  0.21142  1.0000 -0.0807478933
C   C285      1.0  0.59641  0.30325  0.21726  1.0000 -0.1618789427
C   C286      1.0  0.55553  0.22657  0.18888  1.0000 0.577411362
C   C287      1.0  0.86704  0.35375  0.03581  1.0000 0.5712837381
C   C288      1.0  0.89460  0.36036  0.05724  1.0000 -0.0426629581
C   C289      1.0  0.91861  0.38641  0.06966  1.0000 -0.0807478933
C   C290      1.0  0.94472  0.39328  0.08962  1.0000 -0.1674999952
C   C291      1.0  0.94741  0.37400  0.09757  1.0000 0.0800660619
C   C292      1.0  0.92356  0.34844  0.08598  1.0000 -0.1618789427
C   C293      1.0  0.89743  0.34200  0.06571  1.0000 -0.0807478933
C   C294      1.0  0.97475  0.38018  0.12015  1.0000 0.0800660619
C   C295      1.0  0.97541  0.36887  0.13800  1.0000 -0.2190345834
C   C296      1.0  0.97516  0.38408  0.20212  1.0000 -0.2190345834
C   C297      1.0  0.97461  0.40362  0.22293  1.0000 0.0710823839
C   C298      1.0  0.94892  0.40102  0.22098  1.0000 0.0600673988
C   C299      1.0  0.94698  0.41028  0.24470  1.0000 -0.1618789427
C   C300      1.0  0.92263  0.40929  0.24366  1.0000 -0.0923104735
C   C301      1.0  0.89842  0.39774  0.21796  1.0000 -0.0307098222
C   C302      1.0  0.89962  0.38775  0.19427  1.0000 -0.0807478933
C   C303      1.0  0.92489  0.38969  0.19666  1.0000 -0.1674999952
C   C304      1.0  0.87264  0.39704  0.21876  1.0000 0.577411362
C   C305      1.0  0.40221  0.83857  0.61714  1.0000 0.5634087017
C   C306      1.0  0.37965  0.84350  0.62213  1.0000 -0.0114505005
C   C307      1.0  0.37556  0.84293  0.64433  1.0000 -0.0975672594
C   C308      1.0  0.35569  0.84798  0.64853  1.0000 -0.1618789427
C   C309      1.0  0.33853  0.85396  0.63079  1.0000 0.0710823839
C   C310      1.0  0.34220  0.85337  0.60895  1.0000 -0.1487380139
C   C311      1.0  0.36252  0.84926  0.60472  1.0000 -0.0975672594
C   C312      1.0  0.31589  0.85874  0.63549  1.0000 0.0888590467
C   C313      1.0  0.32183  0.87675  0.66198  1.0000 -0.2190345834
C   C314      1.0  0.30081  0.88082  0.66611  1.0000 0.0888590467
C   C315      1.0  0.27562  0.86623  0.64369  1.0000 -0.2053535767
C   C316      1.0  0.26723  0.84723  0.61564  1.0000 0.1486529698
C   C317      1.0  0.28781  0.84422  0.61235  1.0000 -0.2190345834
C   C318      1.0  0.30834  0.90077  0.69389  1.0000 0.0710823839
C   C319      1.0  0.33068  0.90853  0.71819  1.0000 -0.1618789427
C   C320      1.0  0.33681  0.92770  0.74385  1.0000 -0.0807478933
C   C321      1.0  0.32040  0.94057  0.74561  1.0000 -0.0515007359
C   C322      1.0  0.29914  0.93331  0.72189  1.0000 -0.0748921724
C   C323      1.0  0.29316  0.91401  0.69675  1.0000 -0.1618789427
C   C324      1.0  0.32896  0.96231  0.77343  1.0000 0.577411362
C   C325      1.0  0.51329  0.68206  0.64625  1.0000 0.5712837381
C   C326      1.0  0.53424  0.69688  0.63964  1.0000 -0.0426629581
C   C327      1.0  0.53220  0.68325  0.61359  1.0000 -0.0807478933
C   C328      1.0  0.55144  0.69634  0.60672  1.0000 -0.1674999952
C   C329      1.0  0.57341  0.72357  0.62600  1.0000 0.0800660619
C   C330      1.0  0.57512  0.73754  0.65156  1.0000 -0.1618789427
C   C331      1.0  0.55543  0.72371  0.65800  1.0000 -0.0807478933
C   C332      1.0  0.59457  0.73997  0.61982  1.0000 0.0800660619
C   C333      1.0  0.60654  0.76913  0.63113  1.0000 -0.2190345834
C   C334      1.0  0.59108  0.81804  0.61592  1.0000 -0.2190345834
C   C335      1.0  0.57099  0.81931  0.59638  1.0000 0.0710823839
C   C336      1.0  0.54790  0.81996  0.59898  1.0000 0.0600673988
C   C337      1.0  0.53670  0.83442  0.58972  1.0000 -0.1618789427
C   C338      1.0  0.51334  0.83437  0.59071  1.0000 -0.0975672594
C   C339      1.0  0.50068  0.82022  0.60226  1.0000 -0.0307098222
C   C340      1.0  0.51187  0.80652  0.61225  1.0000 -0.0807478933
C   C341      1.0  0.53520  0.80697  0.61031  1.0000 -0.1674999952
C   C342      1.0  0.47560  0.82172  0.60296  1.0000 0.577411362
C   C343      1.0  0.77857  0.16143  0.56364  1.0000 0.5634087017
C   C344      1.0  0.77863  0.15650  0.53615  1.0000 -0.0114505005
C   C345      1.0  0.80140  0.15707  0.53263  1.0000 -0.0975672594
C   C346      1.0  0.80055  0.15202  0.50771  1.0000 -0.1618789427
C   C347      1.0  0.77683  0.14604  0.48457  1.0000 0.0710823839
C   C348      1.0  0.75558  0.14663  0.48883  1.0000 -0.1487380139
C   C349      1.0  0.75546  0.15074  0.51326  1.0000 -0.0975672594
C   C350      1.0  0.77675  0.14126  0.45715  1.0000 0.0888590467
C   C351      1.0  0.78523  0.12325  0.44508  1.0000 -0.2190345834
C   C352      1.0  0.78529  0.11918  0.41999  1.0000 0.0888590467
C   C353      1.0  0.77746  0.13377  0.40939  1.0000 -0.2053535767
C   C354      1.0  0.76841  0.15277  0.42000  1.0000 0.1486529698
C   C355      1.0  0.76813  0.15578  0.44359  1.0000 -0.2190345834
C   C356      1.0  0.79312  0.09923  0.40757  1.0000 0.0710823839
C   C357      1.0  0.80966  0.09147  0.42215  1.0000 -0.1618789427
C   C358      1.0  0.81615  0.07230  0.40911  1.0000 -0.0807478933
C   C359      1.0  0.80504  0.05943  0.37983  1.0000 -0.0515007359
C   C360      1.0  0.78858  0.06669  0.36583  1.0000 -0.0748921724
C   C361      1.0  0.78274  0.08599  0.37915  1.0000 -0.1618789427
C   C362      1.0  0.81112  0.03769  0.36665  1.0000 0.577411362
C   C363      1.0  0.96419  0.31794  0.83123  1.0000 0.5712837381
C   C364      1.0  0.94276  0.30312  0.83736  1.0000 -0.0426629581
C   C365      1.0  0.93034  0.31675  0.84895  1.0000 -0.0807478933
C   C366      1.0  0.91038  0.30366  0.85510  1.0000 -0.1674999952
C   C367      1.0  0.90243  0.27643  0.84984  1.0000 0.0800660619
C   C368      1.0  0.91402  0.26246  0.83758  1.0000 -0.1618789427
C   C369      1.0  0.93429  0.27629  0.83172  1.0000 -0.0807478933
C   C370      1.0  0.87985  0.26003  0.85460  1.0000 0.0800660619
C   C371      1.0  0.86200  0.23087  0.83741  1.0000 -0.2190345834
C   C372      1.0  0.79788  0.18196  0.77304  1.0000 -0.2190345834
C   C373      1.0  0.77707  0.18069  0.75168  1.0000 0.0710823839
C   C374      1.0  0.77902  0.18004  0.72794  1.0000 0.0600673988
C   C375      1.0  0.75530  0.16558  0.70228  1.0000 -0.1618789427
C   C376      1.0  0.75634  0.16563  0.67897  1.0000 -0.0923104735
C   C377      1.0  0.78204  0.17978  0.68046  1.0000 -0.0307098222
C   C378      1.0  0.80573  0.19348  0.70535  1.0000 -0.0807478933
C   C379      1.0  0.80334  0.19303  0.72823  1.0000 -0.1674999952
C   C380      1.0  0.78124  0.17828  0.65388  1.0000 0.577411362
C   C381      1.0  0.59779  0.21493  0.43636  1.0000 0.5634087017
C   C382      1.0  0.62035  0.24248  0.46385  1.0000 -0.0114505005
C   C383      1.0  0.62444  0.26877  0.46737  1.0000 -0.0975672594
C   C384      1.0  0.64431  0.29284  0.49229  1.0000 -0.1618789427
C   C385      1.0  0.66147  0.29226  0.51543  1.0000 0.0710823839
C   C386      1.0  0.65780  0.26675  0.51117  1.0000 -0.1487380139
C   C387      1.0  0.63748  0.24220  0.48674  1.0000 -0.0975672594
C   C388      1.0  0.68411  0.31960  0.54285  1.0000 0.0888590467
C   C389      1.0  0.67817  0.34015  0.55492  1.0000 -0.2190345834
C   C390      1.0  0.69919  0.36530  0.58001  1.0000 0.0888590467
C   C391      1.0  0.72438  0.36807  0.59061  1.0000 -0.2053535767
C   C392      1.0  0.73277  0.34841  0.58000  1.0000 0.1486529698
C   C393      1.0  0.71219  0.32454  0.55641  1.0000 -0.2190345834
C   C394      1.0  0.69166  0.38555  0.59243  1.0000 0.0710823839
C   C395      1.0  0.66932  0.38751  0.57785  1.0000 -0.1618789427
C   C396      1.0  0.66319  0.40704  0.59089  1.0000 -0.0807478933
C   C397      1.0  0.67960  0.42521  0.62017  1.0000 -0.0515007359
C   C398      1.0  0.70086  0.42275  0.63417  1.0000 -0.0748921724
C   C399      1.0  0.70684  0.40359  0.62085  1.0000 -0.1618789427
C   C400      1.0  0.67104  0.44447  0.63335  1.0000 0.577411362
C   C401      1.0  0.48671  0.13296  0.16877  1.0000 0.5712837381
C   C402      1.0  0.46576  0.10540  0.16264  1.0000 -0.0426629581
C   C403      1.0  0.46780  0.08139  0.15105  1.0000 -0.0807478933
C   C404      1.0  0.44856  0.05528  0.14490  1.0000 -0.1674999952
C   C405      1.0  0.42659  0.05259  0.15016  1.0000 0.0800660619
C   C406      1.0  0.42488  0.07644  0.16242  1.0000 -0.1618789427
C   C407      1.0  0.44457  0.10257  0.16828  1.0000 -0.0807478933
C   C408      1.0  0.40543  0.02525  0.14540  1.0000 0.0800660619
C   C409      1.0  0.39346  0.02459  0.16259  1.0000 -0.2190345834
C   C410      1.0  0.40892  0.02484  0.22696  1.0000 -0.2190345834
C   C411      1.0  0.42901  0.02539  0.24832  1.0000 0.0710823839
C   C412      1.0  0.45210  0.05108  0.27206  1.0000 0.0600673988
C   C413      1.0  0.46330  0.05302  0.29772  1.0000 -0.1618789427
C   C414      1.0  0.48666  0.07737  0.32103  1.0000 -0.0923104735
C   C415      1.0  0.49932  0.10158  0.31954  1.0000 -0.0307098222
C   C416      1.0  0.48813  0.10038  0.29465  1.0000 -0.0807478933
C   C417      1.0  0.46480  0.07511  0.27177  1.0000 -0.1674999952
C   C418      1.0  0.52440  0.12736  0.34612  1.0000 0.577411362
C   C419      1.0  0.22143  0.78507  0.38286  1.0000 0.5634087017
C   C420      1.0  0.22137  0.75752  0.37787  1.0000 -0.0114505005
C   C421      1.0  0.19860  0.73123  0.35567  1.0000 -0.0975672594
C   C422      1.0  0.19945  0.70716  0.35147  1.0000 -0.1618789427
C   C423      1.0  0.22317  0.70774  0.36921  1.0000 0.0710823839
C   C424      1.0  0.24442  0.73325  0.39105  1.0000 -0.1487380139
C   C425      1.0  0.24454  0.75780  0.39528  1.0000 -0.0975672594
C   C426      1.0  0.22325  0.68040  0.36451  1.0000 0.0888590467
C   C427      1.0  0.21477  0.65985  0.33802  1.0000 -0.2190345834
C   C428      1.0  0.21471  0.63470  0.33389  1.0000 0.0888590467
C   C429      1.0  0.22254  0.63193  0.35631  1.0000 -0.2053535767
C   C430      1.0  0.23159  0.65159  0.38436  1.0000 0.1486529698
C   C431      1.0  0.23187  0.67546  0.38765  1.0000 -0.2190345834
C   C432      1.0  0.20688  0.61445  0.30611  1.0000 0.0710823839
C   C433      1.0  0.19034  0.61249  0.28181  1.0000 -0.1618789427
C   C434      1.0  0.18385  0.59296  0.25615  1.0000 -0.0807478933
C   C435      1.0  0.19496  0.57479  0.25439  1.0000 -0.0515007359
C   C436      1.0  0.21142  0.57725  0.27811  1.0000 -0.0748921724
C   C437      1.0  0.21726  0.59641  0.30325  1.0000 -0.1618789427
C   C438      1.0  0.18888  0.55553  0.22657  1.0000 0.577411362
C   C439      1.0  0.03581  0.86704  0.35375  1.0000 0.5712837381
C   C440      1.0  0.05724  0.89460  0.36036  1.0000 -0.0426629581
C   C441      1.0  0.06966  0.91861  0.38641  1.0000 -0.0807478933
C   C442      1.0  0.08962  0.94472  0.39328  1.0000 -0.1674999952
C   C443      1.0  0.09757  0.94741  0.37400  1.0000 0.0800660619
C   C444      1.0  0.08598  0.92356  0.34844  1.0000 -0.1618789427
C   C445      1.0  0.06571  0.89743  0.34200  1.0000 -0.0807478933
C   C446      1.0  0.12015  0.97475  0.38018  1.0000 0.0800660619
C   C447      1.0  0.13800  0.97541  0.36887  1.0000 -0.2190345834
C   C448      1.0  0.20212  0.97516  0.38408  1.0000 -0.2190345834
C   C449      1.0  0.22293  0.97461  0.40362  1.0000 0.0710823839
C   C450      1.0  0.22098  0.94892  0.40102  1.0000 0.0600673988
C   C451      1.0  0.24470  0.94698  0.41028  1.0000 -0.1618789427
C   C452      1.0  0.24366  0.92263  0.40929  1.0000 -0.0975672594
C   C453      1.0  0.21796  0.89842  0.39774  1.0000 -0.0307098222
C   C454      1.0  0.19427  0.89962  0.38775  1.0000 -0.0807478933
C   C455      1.0  0.19666  0.92489  0.38969  1.0000 -0.1674999952
C   C456      1.0  0.21876  0.87264  0.39704  1.0000 0.577411362
C   C457      1.0  0.22143  0.43636  0.83857  1.0000 0.5634087017
C   C458      1.0  0.22137  0.46385  0.84350  1.0000 -0.0114505005
C   C459      1.0  0.19860  0.46737  0.84293  1.0000 -0.0975672594
C   C460      1.0  0.19945  0.49229  0.84798  1.0000 -0.1618789427
C   C461      1.0  0.22317  0.51543  0.85396  1.0000 0.0710823839
C   C462      1.0  0.24442  0.51117  0.85337  1.0000 -0.1487380139
C   C463      1.0  0.24454  0.48674  0.84926  1.0000 -0.0975672594
C   C464      1.0  0.22325  0.54285  0.85874  1.0000 0.0888590467
C   C465      1.0  0.21477  0.55492  0.87675  1.0000 -0.2190345834
C   C466      1.0  0.21471  0.58001  0.88082  1.0000 0.0888590467
C   C467      1.0  0.22254  0.59061  0.86623  1.0000 -0.2053535767
C   C468      1.0  0.23159  0.58000  0.84723  1.0000 0.1486529698
C   C469      1.0  0.23187  0.55641  0.84422  1.0000 -0.2190345834
C   C470      1.0  0.20688  0.59243  0.90077  1.0000 0.0710823839
C   C471      1.0  0.19034  0.57785  0.90853  1.0000 -0.1618789427
C   C472      1.0  0.18385  0.59089  0.92770  1.0000 -0.0807478933
C   C473      1.0  0.19496  0.62017  0.94057  1.0000 -0.0515007359
C   C474      1.0  0.21142  0.63417  0.93331  1.0000 -0.0748921724
C   C475      1.0  0.21726  0.62085  0.91401  1.0000 -0.1618789427
C   C476      1.0  0.18888  0.63335  0.96231  1.0000 0.577411362
C   C477      1.0  0.03581  0.16877  0.68206  1.0000 0.5712837381
C   C478      1.0  0.05724  0.16264  0.69688  1.0000 -0.0426629581
C   C479      1.0  0.06966  0.15105  0.68325  1.0000 -0.0807478933
C   C480      1.0  0.08962  0.14490  0.69634  1.0000 -0.1674999952
C   C481      1.0  0.09757  0.15016  0.72357  1.0000 0.0800660619
C   C482      1.0  0.08598  0.16242  0.73754  1.0000 -0.1618789427
C   C483      1.0  0.06571  0.16828  0.72371  1.0000 -0.0807478933
C   C484      1.0  0.12015  0.14540  0.73997  1.0000 0.0800660619
C   C485      1.0  0.13800  0.16259  0.76913  1.0000 -0.2190345834
C   C486      1.0  0.20212  0.22696  0.81804  1.0000 -0.2190345834
C   C487      1.0  0.22293  0.24832  0.81931  1.0000 0.0710823839
C   C488      1.0  0.22098  0.27206  0.81996  1.0000 0.0600673988
C   C489      1.0  0.24470  0.29772  0.83442  1.0000 -0.1618789427
C   C490      1.0  0.24366  0.32103  0.83437  1.0000 -0.0923104735
C   C491      1.0  0.21796  0.31954  0.82022  1.0000 -0.0307098222
C   C492      1.0  0.19427  0.29465  0.80652  1.0000 -0.0807478933
C   C493      1.0  0.19666  0.27177  0.80697  1.0000 -0.1674999952
C   C494      1.0  0.21876  0.34612  0.82172  1.0000 0.577411362
C   C495      1.0  0.59779  0.38286  0.16143  1.0000 0.5634087017
C   C496      1.0  0.62035  0.37787  0.15650  1.0000 -0.0114505005
C   C497      1.0  0.62444  0.35567  0.15707  1.0000 -0.0975672594
C   C498      1.0  0.64431  0.35147  0.15202  1.0000 -0.1618789427
C   C499      1.0  0.66147  0.36921  0.14604  1.0000 0.0710823839
C   C500      1.0  0.65780  0.39105  0.14663  1.0000 -0.1487380139
C   C501      1.0  0.63748  0.39528  0.15074  1.0000 -0.0975672594
C   C502      1.0  0.68411  0.36451  0.14126  1.0000 0.0888590467
C   C503      1.0  0.67817  0.33802  0.12325  1.0000 -0.2190345834
C   C504      1.0  0.69919  0.33389  0.11918  1.0000 0.0888590467
C   C505      1.0  0.72438  0.35631  0.13377  1.0000 -0.2053535767
C   C506      1.0  0.73277  0.38436  0.15277  1.0000 0.1486529698
C   C507      1.0  0.71219  0.38765  0.15578  1.0000 -0.2190345834
C   C508      1.0  0.69166  0.30611  0.09923  1.0000 0.0710823839
C   C509      1.0  0.66932  0.28181  0.09147  1.0000 -0.1618789427
C   C510      1.0  0.66319  0.25615  0.07230  1.0000 -0.0807478933
C   C511      1.0  0.67960  0.25439  0.05943  1.0000 -0.0515007359
C   C512      1.0  0.70086  0.27811  0.06669  1.0000 -0.0748921724
C   C513      1.0  0.70684  0.30325  0.08599  1.0000 -0.1618789427
C   C514      1.0  0.67104  0.22657  0.03769  1.0000 0.577411362
C   C515      1.0  0.48671  0.35375  0.31794  1.0000 0.5712837381
C   C516      1.0  0.46576  0.36036  0.30312  1.0000 -0.0426629581
C   C517      1.0  0.46780  0.38641  0.31675  1.0000 -0.0807478933
C   C518      1.0  0.44856  0.39328  0.30366  1.0000 -0.1674999952
C   C519      1.0  0.42659  0.37400  0.27643  1.0000 0.0800660619
C   C520      1.0  0.42488  0.34844  0.26246  1.0000 -0.1618789427
C   C521      1.0  0.44457  0.34200  0.27629  1.0000 -0.0807478933
C   C522      1.0  0.40543  0.38018  0.26003  1.0000 0.0800660619
C   C523      1.0  0.39346  0.36887  0.23087  1.0000 -0.2190345834
C   C524      1.0  0.40892  0.38408  0.18196  1.0000 -0.2190345834
C   C525      1.0  0.42901  0.40362  0.18069  1.0000 0.0710823839
C   C526      1.0  0.45210  0.40102  0.18004  1.0000 0.0600673988
C   C527      1.0  0.46330  0.41028  0.16558  1.0000 -0.1618789427
C   C528      1.0  0.48666  0.40929  0.16563  1.0000 -0.0923104735
C   C529      1.0  0.49932  0.39774  0.17978  1.0000 -0.0307098222
C   C530      1.0  0.48813  0.38775  0.19348  1.0000 -0.0807478933
C   C531      1.0  0.46480  0.38969  0.19303  1.0000 -0.1674999952
C   C532      1.0  0.52440  0.39704  0.17828  1.0000 0.577411362
C   C533      1.0  0.77857  0.61714  0.21493  1.0000 0.5634087017
C   C534      1.0  0.77863  0.62213  0.24248  1.0000 -0.0114505005
C   C535      1.0  0.80140  0.64433  0.26877  1.0000 -0.0975672594
C   C536      1.0  0.80055  0.64853  0.29284  1.0000 -0.1618789427
C   C537      1.0  0.77683  0.63079  0.29226  1.0000 0.0710823839
C   C538      1.0  0.75558  0.60895  0.26675  1.0000 -0.1487380139
C   C539      1.0  0.75546  0.60472  0.24220  1.0000 -0.0975672594
C   C540      1.0  0.77675  0.63549  0.31960  1.0000 0.0888590467
C   C541      1.0  0.78523  0.66198  0.34015  1.0000 -0.2190345834
C   C542      1.0  0.78529  0.66611  0.36530  1.0000 0.0888590467
C   C543      1.0  0.77746  0.64369  0.36807  1.0000 -0.2053535767
C   C544      1.0  0.76841  0.61564  0.34841  1.0000 0.1486529698
C   C545      1.0  0.76813  0.61235  0.32454  1.0000 -0.2190345834
C   C546      1.0  0.79312  0.69389  0.38555  1.0000 0.0710823839
C   C547      1.0  0.80966  0.71819  0.38751  1.0000 -0.1618789427
C   C548      1.0  0.81615  0.74385  0.40704  1.0000 -0.0807478933
C   C549      1.0  0.80504  0.74561  0.42521  1.0000 -0.0515007359
C   C550      1.0  0.78858  0.72189  0.42275  1.0000 -0.0748921724
C   C551      1.0  0.78274  0.69675  0.40359  1.0000 -0.1618789427
C   C552      1.0  0.81112  0.77343  0.44447  1.0000 0.577411362
C   C553      1.0  0.96419  0.64625  0.13296  1.0000 0.5712837381
C   C554      1.0  0.94276  0.63964  0.10540  1.0000 -0.0426629581
C   C555      1.0  0.93034  0.61359  0.08139  1.0000 -0.0807478933
C   C556      1.0  0.91038  0.60672  0.05528  1.0000 -0.1674999952
C   C557      1.0  0.90243  0.62600  0.05259  1.0000 0.0800660619
C   C558      1.0  0.91402  0.65156  0.07644  1.0000 -0.1618789427
C   C559      1.0  0.93429  0.65800  0.10257  1.0000 -0.0807478933
C   C560      1.0  0.87985  0.61982  0.02525  1.0000 0.0800660619
C   C561      1.0  0.86200  0.63113  0.02459  1.0000 -0.2190345834
C   C562      1.0  0.79788  0.61592  0.02484  1.0000 -0.2190345834
C   C563      1.0  0.77707  0.59638  0.02539  1.0000 0.0710823839
C   C564      1.0  0.77902  0.59898  0.05108  1.0000 0.0600673988
C   C565      1.0  0.75530  0.58972  0.05302  1.0000 -0.1618789427
C   C566      1.0  0.75634  0.59071  0.07737  1.0000 -0.0923104735
C   C567      1.0  0.78204  0.60226  0.10158  1.0000 -0.0307098222
C   C568      1.0  0.80573  0.61225  0.10038  1.0000 -0.0807478933
C   C569      1.0  0.80334  0.61031  0.07511  1.0000 -0.1674999952
C   C570      1.0  0.78124  0.60296  0.12736  1.0000 0.577411362
C   C571      1.0  0.40221  0.56364  0.78507  1.0000 0.5634087017
C   C572      1.0  0.37965  0.53615  0.75752  1.0000 -0.0114505005
C   C573      1.0  0.37556  0.53263  0.73123  1.0000 -0.0975672594
C   C574      1.0  0.35569  0.50771  0.70716  1.0000 -0.1618789427
C   C575      1.0  0.33853  0.48457  0.70774  1.0000 0.0710823839
C   C576      1.0  0.34220  0.48883  0.73325  1.0000 -0.1487380139
C   C577      1.0  0.36252  0.51326  0.75780  1.0000 -0.0975672594
C   C578      1.0  0.31589  0.45715  0.68040  1.0000 0.0888590467
C   C579      1.0  0.32183  0.44508  0.65985  1.0000 -0.2190345834
C   C580      1.0  0.30081  0.41999  0.63470  1.0000 0.0888590467
C   C581      1.0  0.27562  0.40939  0.63193  1.0000 -0.2053535767
C   C582      1.0  0.26723  0.42000  0.65159  1.0000 0.1486529698
C   C583      1.0  0.28781  0.44359  0.67546  1.0000 -0.2190345834
C   C584      1.0  0.30834  0.40757  0.61445  1.0000 0.0710823839
C   C585      1.0  0.33068  0.42215  0.61249  1.0000 -0.1618789427
C   C586      1.0  0.33681  0.40911  0.59296  1.0000 -0.0807478933
C   C587      1.0  0.32040  0.37983  0.57479  1.0000 -0.0515007359
C   C588      1.0  0.29914  0.36583  0.57725  1.0000 -0.0748921724
C   C589      1.0  0.29316  0.37915  0.59641  1.0000 -0.1618789427
C   C590      1.0  0.32896  0.36665  0.55553  1.0000 0.577411362
C   C591      1.0  0.51329  0.83123  0.86704  1.0000 0.5712837381
C   C592      1.0  0.53424  0.83736  0.89460  1.0000 -0.0426629581
C   C593      1.0  0.53220  0.84895  0.91861  1.0000 -0.0807478933
C   C594      1.0  0.55144  0.85510  0.94472  1.0000 -0.1674999952
C   C595      1.0  0.57341  0.84984  0.94741  1.0000 0.0800660619
C   C596      1.0  0.57512  0.83758  0.92356  1.0000 -0.1618789427
C   C597      1.0  0.55543  0.83172  0.89743  1.0000 -0.0807478933
C   C598      1.0  0.59457  0.85460  0.97475  1.0000 0.0800660619
C   C599      1.0  0.60654  0.83741  0.97541  1.0000 -0.2190345834
C   C600      1.0  0.59108  0.77304  0.97516  1.0000 -0.2190345834
C   C601      1.0  0.57099  0.75168  0.97461  1.0000 0.0710823839
C   C602      1.0  0.54790  0.72794  0.94892  1.0000 0.0600673988
C   C603      1.0  0.53670  0.70228  0.94698  1.0000 -0.1618789427
C   C604      1.0  0.51334  0.67897  0.92263  1.0000 -0.0923104735
C   C605      1.0  0.50068  0.68046  0.89842  1.0000 -0.0307098222
C   C606      1.0  0.51187  0.70535  0.89962  1.0000 -0.0807478933
C   C607      1.0  0.53520  0.72823  0.92489  1.0000 -0.1674999952
C   C608      1.0  0.47560  0.65388  0.87264  1.0000 0.577411362
C   C609      1.0  0.56364  0.78507  0.40221  1.0000 0.5634087017
C   C610      1.0  0.53615  0.75752  0.37965  1.0000 -0.0114505005
C   C611      1.0  0.53263  0.73123  0.37556  1.0000 -0.0975672594
C   C612      1.0  0.50771  0.70716  0.35569  1.0000 -0.1618789427
C   C613      1.0  0.48457  0.70774  0.33853  1.0000 0.0710823839
C   C614      1.0  0.48883  0.73325  0.34220  1.0000 -0.1487380139
C   C615      1.0  0.51326  0.75780  0.36252  1.0000 -0.0975672594
C   C616      1.0  0.45715  0.68040  0.31589  1.0000 0.0888590467
C   C617      1.0  0.44508  0.65985  0.32183  1.0000 -0.2190345834
C   C618      1.0  0.41999  0.63470  0.30081  1.0000 0.0888590467
C   C619      1.0  0.40939  0.63193  0.27562  1.0000 -0.2053535767
C   C620      1.0  0.42000  0.65159  0.26723  1.0000 0.1486529698
C   C621      1.0  0.44359  0.67546  0.28781  1.0000 -0.2190345834
C   C622      1.0  0.40757  0.61445  0.30834  1.0000 0.0710823839
C   C623      1.0  0.42215  0.61249  0.33068  1.0000 -0.1618789427
C   C624      1.0  0.40911  0.59296  0.33681  1.0000 -0.0807478933
C   C625      1.0  0.37983  0.57479  0.32040  1.0000 -0.0515007359
C   C626      1.0  0.36583  0.57725  0.29914  1.0000 -0.0748921724
C   C627      1.0  0.37915  0.59641  0.29316  1.0000 -0.1618789427
C   C628      1.0  0.36665  0.55553  0.32896  1.0000 0.577411362
C   C629      1.0  0.83123  0.86704  0.51329  1.0000 0.5712837381
C   C630      1.0  0.83736  0.89460  0.53424  1.0000 -0.0426629581
C   C631      1.0  0.84895  0.91861  0.53220  1.0000 -0.0807478933
C   C632      1.0  0.85510  0.94472  0.55144  1.0000 -0.1674999952
C   C633      1.0  0.84984  0.94741  0.57341  1.0000 0.0800660619
C   C634      1.0  0.83758  0.92356  0.57512  1.0000 -0.1618789427
C   C635      1.0  0.83172  0.89743  0.55543  1.0000 -0.0807478933
C   C636      1.0  0.85460  0.97475  0.59457  1.0000 0.0800660619
C   C637      1.0  0.83741  0.97541  0.60654  1.0000 -0.2190345834
C   C638      1.0  0.77304  0.97516  0.59108  1.0000 -0.2190345834
C   C639      1.0  0.75168  0.97461  0.57099  1.0000 0.0710823839
C   C640      1.0  0.72794  0.94892  0.54790  1.0000 0.0600673988
C   C641      1.0  0.70228  0.94698  0.53670  1.0000 -0.1618789427
C   C642      1.0  0.67897  0.92263  0.51334  1.0000 -0.0923104735
C   C643      1.0  0.68046  0.89842  0.50068  1.0000 -0.0307098222
C   C644      1.0  0.70535  0.89962  0.51187  1.0000 -0.0807478933
C   C645      1.0  0.72823  0.92489  0.53520  1.0000 -0.1674999952
C   C646      1.0  0.65388  0.87264  0.47560  1.0000 0.577411362
C   C647      1.0  0.61714  0.21493  0.77857  1.0000 0.5634087017
C   C648      1.0  0.62213  0.24248  0.77863  1.0000 -0.0114505005
C   C649      1.0  0.64433  0.26877  0.80140  1.0000 -0.0975672594
C   C650      1.0  0.64853  0.29284  0.80055  1.0000 -0.1618789427
C   C651      1.0  0.63079  0.29226  0.77683  1.0000 0.0710823839
C   C652      1.0  0.60895  0.26675  0.75558  1.0000 -0.1487380139
C   C653      1.0  0.60472  0.24220  0.75546  1.0000 -0.0975672594
C   C654      1.0  0.63549  0.31960  0.77675  1.0000 0.0888590467
C   C655      1.0  0.66198  0.34015  0.78523  1.0000 -0.2190345834
C   C656      1.0  0.66611  0.36530  0.78529  1.0000 0.0888590467
C   C657      1.0  0.64369  0.36807  0.77746  1.0000 -0.2053535767
C   C658      1.0  0.61564  0.34841  0.76841  1.0000 0.1486529698
C   C659      1.0  0.61235  0.32454  0.76813  1.0000 -0.2190345834
C   C660      1.0  0.69389  0.38555  0.79312  1.0000 0.0710823839
C   C661      1.0  0.71819  0.38751  0.80966  1.0000 -0.1618789427
C   C662      1.0  0.74385  0.40704  0.81615  1.0000 -0.0807478933
C   C663      1.0  0.74561  0.42521  0.80504  1.0000 -0.0515007359
C   C664      1.0  0.72189  0.42275  0.78858  1.0000 -0.0748921724
C   C665      1.0  0.69675  0.40359  0.78274  1.0000 -0.1618789427
C   C666      1.0  0.77343  0.44447  0.81112  1.0000 0.577411362
C   C667      1.0  0.64625  0.13296  0.96419  1.0000 0.5712837381
C   C668      1.0  0.63964  0.10540  0.94276  1.0000 -0.0426629581
C   C669      1.0  0.61359  0.08139  0.93034  1.0000 -0.0807478933
C   C670      1.0  0.60672  0.05528  0.91038  1.0000 -0.1674999952
C   C671      1.0  0.62600  0.05259  0.90243  1.0000 0.0800660619
C   C672      1.0  0.65156  0.07644  0.91402  1.0000 -0.1618789427
C   C673      1.0  0.65800  0.10257  0.93429  1.0000 -0.0807478933
C   C674      1.0  0.61982  0.02525  0.87985  1.0000 0.0800660619
C   C675      1.0  0.63113  0.02459  0.86200  1.0000 -0.2190345834
C   C676      1.0  0.61592  0.02484  0.79788  1.0000 -0.2190345834
C   C677      1.0  0.59638  0.02539  0.77707  1.0000 0.0710823839
C   C678      1.0  0.59898  0.05108  0.77902  1.0000 0.0600673988
C   C679      1.0  0.58972  0.05302  0.75530  1.0000 -0.1618789427
C   C680      1.0  0.59071  0.07737  0.75634  1.0000 -0.0923104735
C   C681      1.0  0.60226  0.10158  0.78204  1.0000 -0.0307098222
C   C682      1.0  0.61225  0.10038  0.80573  1.0000 -0.0923104735
C   C683      1.0  0.61031  0.07511  0.80334  1.0000 -0.1674999952
C   C684      1.0  0.60296  0.12736  0.78124  1.0000 0.577411362
C   C685      1.0  0.38286  0.16143  0.59779  1.0000 0.5634087017
C   C686      1.0  0.37787  0.15650  0.62035  1.0000 -0.0114505005
C   C687      1.0  0.35567  0.15707  0.62444  1.0000 -0.0975672594
C   C688      1.0  0.35147  0.15202  0.64431  1.0000 -0.1618789427
C   C689      1.0  0.36921  0.14604  0.66147  1.0000 0.0710823839
C   C690      1.0  0.39105  0.14663  0.65780  1.0000 -0.1487380139
C   C691      1.0  0.39528  0.15074  0.63748  1.0000 -0.0975672594
C   C692      1.0  0.36451  0.14126  0.68411  1.0000 0.0888590467
C   C693      1.0  0.33802  0.12325  0.67817  1.0000 -0.2190345834
C   C694      1.0  0.33389  0.11918  0.69919  1.0000 0.0888590467
C   C695      1.0  0.35631  0.13377  0.72438  1.0000 -0.2053535767
C   C696      1.0  0.38436  0.15277  0.73277  1.0000 0.1486529698
C   C697      1.0  0.38765  0.15578  0.71219  1.0000 -0.2190345834
C   C698      1.0  0.30611  0.09923  0.69166  1.0000 0.0710823839
C   C699      1.0  0.28181  0.09147  0.66932  1.0000 -0.1618789427
C   C700      1.0  0.25615  0.07230  0.66319  1.0000 -0.0807478933
C   C701      1.0  0.25439  0.05943  0.67960  1.0000 -0.0515007359
C   C702      1.0  0.27811  0.06669  0.70086  1.0000 -0.0748921724
C   C703      1.0  0.30325  0.08599  0.70684  1.0000 -0.1618789427
C   C704      1.0  0.22657  0.03769  0.67104  1.0000 0.577411362
C   C705      1.0  0.35375  0.31794  0.48671  1.0000 0.5712837381
C   C706      1.0  0.36036  0.30312  0.46576  1.0000 -0.0426629581
C   C707      1.0  0.38641  0.31675  0.46780  1.0000 -0.0807478933
C   C708      1.0  0.39328  0.30366  0.44856  1.0000 -0.1674999952
C   C709      1.0  0.37400  0.27643  0.42659  1.0000 0.0800660619
C   C710      1.0  0.34844  0.26246  0.42488  1.0000 -0.1618789427
C   C711      1.0  0.34200  0.27629  0.44457  1.0000 -0.0807478933
C   C712      1.0  0.38018  0.26003  0.40543  1.0000 0.0800660619
C   C713      1.0  0.36887  0.23087  0.39346  1.0000 -0.2190345834
C   C714      1.0  0.38408  0.18196  0.40892  1.0000 -0.2190345834
C   C715      1.0  0.40362  0.18069  0.42901  1.0000 0.0710823839
C   C716      1.0  0.40102  0.18004  0.45210  1.0000 0.0600673988
C   C717      1.0  0.41028  0.16558  0.46330  1.0000 -0.1618789427
C   C718      1.0  0.40929  0.16563  0.48666  1.0000 -0.0975672594
C   C719      1.0  0.39774  0.17978  0.49932  1.0000 -0.0307098222
C   C720      1.0  0.38775  0.19348  0.48813  1.0000 -0.0923104735
C   C721      1.0  0.38969  0.19303  0.46480  1.0000 -0.1674999952
C   C722      1.0  0.39704  0.17828  0.52440  1.0000 0.577411362
C   C723      1.0  0.43636  0.83857  0.22143  1.0000 0.5634087017
C   C724      1.0  0.46385  0.84350  0.22137  1.0000 -0.0114505005
C   C725      1.0  0.46737  0.84293  0.19860  1.0000 -0.0975672594
C   C726      1.0  0.49229  0.84798  0.19945  1.0000 -0.1618789427
C   C727      1.0  0.51543  0.85396  0.22317  1.0000 0.0710823839
C   C728      1.0  0.51117  0.85337  0.24442  1.0000 -0.1487380139
C   C729      1.0  0.48674  0.84926  0.24454  1.0000 -0.0975672594
C   C730      1.0  0.54285  0.85874  0.22325  1.0000 0.0888590467
C   C731      1.0  0.55492  0.87675  0.21477  1.0000 -0.2190345834
C   C732      1.0  0.58001  0.88082  0.21471  1.0000 0.0888590467
C   C733      1.0  0.59061  0.86623  0.22254  1.0000 -0.2053535767
C   C734      1.0  0.58000  0.84723  0.23159  1.0000 0.1486529698
C   C735      1.0  0.55641  0.84422  0.23187  1.0000 -0.2190345834
C   C736      1.0  0.59243  0.90077  0.20688  1.0000 0.0710823839
C   C737      1.0  0.57785  0.90853  0.19034  1.0000 -0.1618789427
C   C738      1.0  0.59089  0.92770  0.18385  1.0000 -0.0807478933
C   C739      1.0  0.62017  0.94057  0.19496  1.0000 -0.0515007359
C   C740      1.0  0.63417  0.93331  0.21142  1.0000 -0.0748921724
C   C741      1.0  0.62085  0.91401  0.21726  1.0000 -0.1618789427
C   C742      1.0  0.63335  0.96231  0.18888  1.0000 0.577411362
C   C743      1.0  0.16877  0.68206  0.03581  1.0000 0.5712837381
C   C744      1.0  0.16264  0.69688  0.05724  1.0000 -0.0426629581
C   C745      1.0  0.15105  0.68325  0.06966  1.0000 -0.0807478933
C   C746      1.0  0.14490  0.69634  0.08962  1.0000 -0.1674999952
C   C747      1.0  0.15016  0.72357  0.09757  1.0000 0.0800660619
C   C748      1.0  0.16242  0.73754  0.08598  1.0000 -0.1618789427
C   C749      1.0  0.16828  0.72371  0.06571  1.0000 -0.0807478933
C   C750      1.0  0.14540  0.73997  0.12015  1.0000 0.0800660619
C   C751      1.0  0.16259  0.76913  0.13800  1.0000 -0.2190345834
C   C752      1.0  0.22696  0.81804  0.20212  1.0000 -0.2190345834
C   C753      1.0  0.24832  0.81931  0.22293  1.0000 0.0710823839
C   C754      1.0  0.27206  0.81996  0.22098  1.0000 0.0600673988
C   C755      1.0  0.29772  0.83442  0.24470  1.0000 -0.1618789427
C   C756      1.0  0.32103  0.83437  0.24366  1.0000 -0.0923104735
C   C757      1.0  0.31954  0.82022  0.21796  1.0000 -0.0307098222
C   C758      1.0  0.29465  0.80652  0.19427  1.0000 -0.0807478933
C   C759      1.0  0.27177  0.80697  0.19666  1.0000 -0.1674999952
C   C760      1.0  0.34612  0.82172  0.21876  1.0000 0.577411362
C   C761      1.0  0.21493  0.77857  0.61714  1.0000 0.5634087017
C   C762      1.0  0.24248  0.77863  0.62213  1.0000 -0.0114505005
C   C763      1.0  0.26877  0.80140  0.64433  1.0000 -0.0975672594
C   C764      1.0  0.29284  0.80055  0.64853  1.0000 -0.1618789427
C   C765      1.0  0.29226  0.77683  0.63079  1.0000 0.0710823839
C   C766      1.0  0.26675  0.75558  0.60895  1.0000 -0.1487380139
C   C767      1.0  0.24220  0.75546  0.60472  1.0000 -0.0975672594
C   C768      1.0  0.31960  0.77675  0.63549  1.0000 0.0888590467
C   C769      1.0  0.34015  0.78523  0.66198  1.0000 -0.2190345834
C   C770      1.0  0.36530  0.78529  0.66611  1.0000 0.0888590467
C   C771      1.0  0.36807  0.77746  0.64369  1.0000 -0.2053535767
C   C772      1.0  0.34841  0.76841  0.61564  1.0000 0.1486529698
C   C773      1.0  0.32454  0.76813  0.61235  1.0000 -0.2190345834
C   C774      1.0  0.38555  0.79312  0.69389  1.0000 0.0710823839
C   C775      1.0  0.38751  0.80966  0.71819  1.0000 -0.1618789427
C   C776      1.0  0.40704  0.81615  0.74385  1.0000 -0.0807478933
C   C777      1.0  0.42521  0.80504  0.74561  1.0000 -0.0515007359
C   C778      1.0  0.42275  0.78858  0.72189  1.0000 -0.0748921724
C   C779      1.0  0.40359  0.78274  0.69675  1.0000 -0.1618789427
C   C780      1.0  0.44447  0.81112  0.77343  1.0000 0.577411362
C   C781      1.0  0.13296  0.96419  0.64625  1.0000 0.5712837381
C   C782      1.0  0.10540  0.94276  0.63964  1.0000 -0.0426629581
C   C783      1.0  0.08139  0.93034  0.61359  1.0000 -0.0807478933
C   C784      1.0  0.05528  0.91038  0.60672  1.0000 -0.1674999952
C   C785      1.0  0.05259  0.90243  0.62600  1.0000 0.0800660619
C   C786      1.0  0.07644  0.91402  0.65156  1.0000 -0.1618789427
C   C787      1.0  0.10257  0.93429  0.65800  1.0000 -0.0807478933
C   C788      1.0  0.02525  0.87985  0.61982  1.0000 0.0800660619
C   C789      1.0  0.02459  0.86200  0.63113  1.0000 -0.2190345834
C   C790      1.0  0.02484  0.79788  0.61592  1.0000 -0.2190345834
C   C791      1.0  0.02539  0.77707  0.59638  1.0000 0.0710823839
C   C792      1.0  0.05108  0.77902  0.59898  1.0000 0.0600673988
C   C793      1.0  0.05302  0.75530  0.58972  1.0000 -0.1618789427
C   C794      1.0  0.07737  0.75634  0.59071  1.0000 -0.0923104735
C   C795      1.0  0.10158  0.78204  0.60226  1.0000 -0.0307098222
C   C796      1.0  0.10038  0.80573  0.61225  1.0000 -0.0807478933
C   C797      1.0  0.07511  0.80334  0.61031  1.0000 -0.1674999952
C   C798      1.0  0.12736  0.78124  0.60296  1.0000 0.577411362
C   C799      1.0  0.78507  0.40221  0.56364  1.0000 0.5634087017
C   C800      1.0  0.75752  0.37965  0.53615  1.0000 -0.0114505005
C   C801      1.0  0.73123  0.37556  0.53263  1.0000 -0.0975672594
C   C802      1.0  0.70716  0.35569  0.50771  1.0000 -0.1618789427
C   C803      1.0  0.70774  0.33853  0.48457  1.0000 0.0710823839
C   C804      1.0  0.73325  0.34220  0.48883  1.0000 -0.1487380139
C   C805      1.0  0.75780  0.36252  0.51326  1.0000 -0.0975672594
C   C806      1.0  0.68040  0.31589  0.45715  1.0000 0.0888590467
C   C807      1.0  0.65985  0.32183  0.44508  1.0000 -0.2190345834
C   C808      1.0  0.63470  0.30081  0.41999  1.0000 0.0888590467
C   C809      1.0  0.63193  0.27562  0.40939  1.0000 -0.2053535767
C   C810      1.0  0.65159  0.26723  0.42000  1.0000 0.1486529698
C   C811      1.0  0.67546  0.28781  0.44359  1.0000 -0.2190345834
C   C812      1.0  0.61445  0.30834  0.40757  1.0000 0.0710823839
C   C813      1.0  0.61249  0.33068  0.42215  1.0000 -0.1618789427
C   C814      1.0  0.59296  0.33681  0.40911  1.0000 -0.0807478933
C   C815      1.0  0.57479  0.32040  0.37983  1.0000 -0.0515007359
C   C816      1.0  0.57725  0.29914  0.36583  1.0000 -0.0748921724
C   C817      1.0  0.59641  0.29316  0.37915  1.0000 -0.1618789427
C   C818      1.0  0.55553  0.32896  0.36665  1.0000 0.577411362
C   C819      1.0  0.86704  0.51329  0.83123  1.0000 0.5712837381
C   C820      1.0  0.89460  0.53424  0.83736  1.0000 -0.0426629581
C   C821      1.0  0.91861  0.53220  0.84895  1.0000 -0.0807478933
C   C822      1.0  0.94472  0.55144  0.85510  1.0000 -0.1674999952
C   C823      1.0  0.94741  0.57341  0.84984  1.0000 0.0800660619
C   C824      1.0  0.92356  0.57512  0.83758  1.0000 -0.1618789427
C   C825      1.0  0.89743  0.55543  0.83172  1.0000 -0.0807478933
C   C826      1.0  0.97475  0.59457  0.85460  1.0000 0.0800660619
C   C827      1.0  0.97541  0.60654  0.83741  1.0000 -0.2190345834
C   C828      1.0  0.97516  0.59108  0.77304  1.0000 -0.2190345834
C   C829      1.0  0.97461  0.57099  0.75168  1.0000 0.0710823839
C   C830      1.0  0.94892  0.54790  0.72794  1.0000 0.0600673988
C   C831      1.0  0.94698  0.53670  0.70228  1.0000 -0.1618789427
C   C832      1.0  0.92263  0.51334  0.67897  1.0000 -0.0923104735
C   C833      1.0  0.89842  0.50068  0.68046  1.0000 -0.0307098222
C   C834      1.0  0.89962  0.51187  0.70535  1.0000 -0.0807478933
C   C835      1.0  0.92489  0.53520  0.72823  1.0000 -0.1674999952
C   C836      1.0  0.87264  0.47560  0.65388  1.0000 0.577411362
C   C837      1.0  0.83857  0.22143  0.43636  1.0000 0.5634087017
C   C838      1.0  0.84350  0.22137  0.46385  1.0000 -0.0114505005
C   C839      1.0  0.84293  0.19860  0.46737  1.0000 -0.0975672594
C   C840      1.0  0.84798  0.19945  0.49229  1.0000 -0.1618789427
C   C841      1.0  0.85396  0.22317  0.51543  1.0000 0.0710823839
C   C842      1.0  0.85337  0.24442  0.51117  1.0000 -0.1487380139
C   C843      1.0  0.84926  0.24454  0.48674  1.0000 -0.0975672594
C   C844      1.0  0.85874  0.22325  0.54285  1.0000 0.0888590467
C   C845      1.0  0.87675  0.21477  0.55492  1.0000 -0.2190345834
C   C846      1.0  0.88082  0.21471  0.58001  1.0000 0.0888590467
C   C847      1.0  0.86623  0.22254  0.59061  1.0000 -0.2053535767
C   C848      1.0  0.84723  0.23159  0.58000  1.0000 0.1486529698
C   C849      1.0  0.84422  0.23187  0.55641  1.0000 -0.2190345834
C   C850      1.0  0.90077  0.20688  0.59243  1.0000 0.0710823839
C   C851      1.0  0.90853  0.19034  0.57785  1.0000 -0.1618789427
C   C852      1.0  0.92770  0.18385  0.59089  1.0000 -0.0807478933
C   C853      1.0  0.94057  0.19496  0.62017  1.0000 -0.0515007359
C   C854      1.0  0.93331  0.21142  0.63417  1.0000 -0.0748921724
C   C855      1.0  0.91401  0.21726  0.62085  1.0000 -0.1618789427
C   C856      1.0  0.96231  0.18888  0.63335  1.0000 0.577411362
C   C857      1.0  0.68206  0.03581  0.16877  1.0000 0.5712837381
C   C858      1.0  0.69688  0.05724  0.16264  1.0000 -0.0426629581
C   C859      1.0  0.68325  0.06966  0.15105  1.0000 -0.0807478933
C   C860      1.0  0.69634  0.08962  0.14490  1.0000 -0.1674999952
C   C861      1.0  0.72357  0.09757  0.15016  1.0000 0.0800660619
C   C862      1.0  0.73754  0.08598  0.16242  1.0000 -0.1618789427
C   C863      1.0  0.72371  0.06571  0.16828  1.0000 -0.0807478933
C   C864      1.0  0.73997  0.12015  0.14540  1.0000 0.0800660619
C   C865      1.0  0.76913  0.13800  0.16259  1.0000 -0.2190345834
C   C866      1.0  0.81804  0.20212  0.22696  1.0000 -0.2190345834
C   C867      1.0  0.81931  0.22293  0.24832  1.0000 0.0710823839
C   C868      1.0  0.81996  0.22098  0.27206  1.0000 0.0600673988
C   C869      1.0  0.83442  0.24470  0.29772  1.0000 -0.1618789427
C   C870      1.0  0.83437  0.24366  0.32103  1.0000 -0.0923104735
C   C871      1.0  0.82022  0.21796  0.31954  1.0000 -0.0307098222
C   C872      1.0  0.80652  0.19427  0.29465  1.0000 -0.0807478933
C   C873      1.0  0.80697  0.19666  0.27177  1.0000 -0.1674999952
C   C874      1.0  0.82172  0.21876  0.34612  1.0000 0.577411362
C   C875      1.0  0.16143  0.59779  0.38286  1.0000 0.5634087017
C   C876      1.0  0.15650  0.62035  0.37787  1.0000 -0.0114505005
C   C877      1.0  0.15707  0.62444  0.35567  1.0000 -0.0975672594
C   C878      1.0  0.15202  0.64431  0.35147  1.0000 -0.1618789427
C   C879      1.0  0.14604  0.66147  0.36921  1.0000 0.0710823839
C   C880      1.0  0.14663  0.65780  0.39105  1.0000 -0.1487380139
C   C881      1.0  0.15074  0.63748  0.39528  1.0000 -0.0975672594
C   C882      1.0  0.14126  0.68411  0.36451  1.0000 0.0888590467
C   C883      1.0  0.12325  0.67817  0.33802  1.0000 -0.2190345834
C   C884      1.0  0.11918  0.69919  0.33389  1.0000 0.0888590467
C   C885      1.0  0.13377  0.72438  0.35631  1.0000 -0.2053535767
C   C886      1.0  0.15277  0.73277  0.38436  1.0000 0.1486529698
C   C887      1.0  0.15578  0.71219  0.38765  1.0000 -0.2190345834
C   C888      1.0  0.09923  0.69166  0.30611  1.0000 0.0710823839
C   C889      1.0  0.09147  0.66932  0.28181  1.0000 -0.1618789427
C   C890      1.0  0.07230  0.66319  0.25615  1.0000 -0.0807478933
C   C891      1.0  0.05943  0.67960  0.25439  1.0000 -0.0515007359
C   C892      1.0  0.06669  0.70086  0.27811  1.0000 -0.0807478933
C   C893      1.0  0.08599  0.70684  0.30325  1.0000 -0.1618789427
C   C894      1.0  0.03769  0.67104  0.22657  1.0000 0.577411362
C   C895      1.0  0.31794  0.48671  0.35375  1.0000 0.5712837381
C   C896      1.0  0.30312  0.46576  0.36036  1.0000 -0.0426629581
C   C897      1.0  0.31675  0.46780  0.38641  1.0000 -0.0807478933
C   C898      1.0  0.30366  0.44856  0.39328  1.0000 -0.1674999952
C   C899      1.0  0.27643  0.42659  0.37400  1.0000 0.0800660619
C   C900      1.0  0.26246  0.42488  0.34844  1.0000 -0.1618789427
C   C901      1.0  0.27629  0.44457  0.34200  1.0000 -0.0807478933
C   C902      1.0  0.26003  0.40543  0.38018  1.0000 0.0800660619
C   C903      1.0  0.23087  0.39346  0.36887  1.0000 -0.2190345834
C   C904      1.0  0.18196  0.40892  0.38408  1.0000 -0.2190345834
C   C905      1.0  0.18069  0.42901  0.40362  1.0000 0.0710823839
C   C906      1.0  0.18004  0.45210  0.40102  1.0000 0.0600673988
C   C907      1.0  0.16558  0.46330  0.41028  1.0000 -0.1618789427
C   C908      1.0  0.16563  0.48666  0.40929  1.0000 -0.0923104735
C   C909      1.0  0.17978  0.49932  0.39774  1.0000 -0.0307098222
C   C910      1.0  0.19348  0.48813  0.38775  1.0000 -0.0807478933
C   C911      1.0  0.19303  0.46480  0.38969  1.0000 -0.1674999952
C   C912      1.0  0.17828  0.52440  0.39704  1.0000 0.577411362
C   C913      1.0  0.38286  0.59779  0.16143  1.0000 0.5634087017
C   C914      1.0  0.37787  0.62035  0.15650  1.0000 -0.0114505005
C   C915      1.0  0.35567  0.62444  0.15707  1.0000 -0.0975672594
C   C916      1.0  0.35147  0.64431  0.15202  1.0000 -0.1618789427
C   C917      1.0  0.36921  0.66147  0.14604  1.0000 0.0710823839
C   C918      1.0  0.39105  0.65780  0.14663  1.0000 -0.1487380139
C   C919      1.0  0.39528  0.63748  0.15074  1.0000 -0.0975672594
C   C920      1.0  0.36451  0.68411  0.14126  1.0000 0.0888590467
C   C921      1.0  0.33802  0.67817  0.12325  1.0000 -0.2190345834
C   C922      1.0  0.33389  0.69919  0.11918  1.0000 0.0888590467
C   C923      1.0  0.35631  0.72438  0.13377  1.0000 -0.2053535767
C   C924      1.0  0.38436  0.73277  0.15277  1.0000 0.1486529698
C   C925      1.0  0.38765  0.71219  0.15578  1.0000 -0.2190345834
C   C926      1.0  0.30611  0.69166  0.09923  1.0000 0.0710823839
C   C927      1.0  0.28181  0.66932  0.09147  1.0000 -0.1618789427
C   C928      1.0  0.25615  0.66319  0.07230  1.0000 -0.0807478933
C   C929      1.0  0.25439  0.67960  0.05943  1.0000 -0.0515007359
C   C930      1.0  0.27811  0.70086  0.06669  1.0000 -0.0748921724
C   C931      1.0  0.30325  0.70684  0.08599  1.0000 -0.1618789427
C   C932      1.0  0.22657  0.67104  0.03769  1.0000 0.577411362
C   C933      1.0  0.35375  0.48671  0.31794  1.0000 0.5712837381
C   C934      1.0  0.36036  0.46576  0.30312  1.0000 -0.0426629581
C   C935      1.0  0.38641  0.46780  0.31675  1.0000 -0.0807478933
C   C936      1.0  0.39328  0.44856  0.30366  1.0000 -0.1674999952
C   C937      1.0  0.37400  0.42659  0.27643  1.0000 0.0800660619
C   C938      1.0  0.34844  0.42488  0.26246  1.0000 -0.1618789427
C   C939      1.0  0.34200  0.44457  0.27629  1.0000 -0.0807478933
C   C940      1.0  0.38018  0.40543  0.26003  1.0000 0.0800660619
C   C941      1.0  0.36887  0.39346  0.23087  1.0000 -0.2190345834
C   C942      1.0  0.38408  0.40892  0.18196  1.0000 -0.2190345834
C   C943      1.0  0.40362  0.42901  0.18069  1.0000 0.0710823839
C   C944      1.0  0.40102  0.45210  0.18004  1.0000 0.0600673988
C   C945      1.0  0.41028  0.46330  0.16558  1.0000 -0.1618789427
C   C946      1.0  0.40929  0.48666  0.16563  1.0000 -0.0923104735
C   C947      1.0  0.39774  0.49932  0.17978  1.0000 -0.0307098222
C   C948      1.0  0.38775  0.48813  0.19348  1.0000 -0.0807478933
C   C949      1.0  0.38969  0.46480  0.19303  1.0000 -0.1674999952
C   C950      1.0  0.39704  0.52440  0.17828  1.0000 0.577411362
C   C951      1.0  0.43636  0.22143  0.83857  1.0000 0.5634087017
C   C952      1.0  0.46385  0.22137  0.84350  1.0000 -0.0114505005
C   C953      1.0  0.46737  0.19860  0.84293  1.0000 -0.0975672594
C   C954      1.0  0.49229  0.19945  0.84798  1.0000 -0.1618789427
C   C955      1.0  0.51543  0.22317  0.85396  1.0000 0.0710823839
C   C956      1.0  0.51117  0.24442  0.85337  1.0000 -0.1487380139
C   C957      1.0  0.48674  0.24454  0.84926  1.0000 -0.0975672594
C   C958      1.0  0.54285  0.22325  0.85874  1.0000 0.0888590467
C   C959      1.0  0.55492  0.21477  0.87675  1.0000 -0.2190345834
C   C960      1.0  0.58001  0.21471  0.88082  1.0000 0.0888590467
C   C961      1.0  0.59061  0.22254  0.86623  1.0000 -0.2053535767
C   C962      1.0  0.58000  0.23159  0.84723  1.0000 0.1486529698
C   C963      1.0  0.55641  0.23187  0.84422  1.0000 -0.2190345834
C   C964      1.0  0.59243  0.20688  0.90077  1.0000 0.0710823839
C   C965      1.0  0.57785  0.19034  0.90853  1.0000 -0.1618789427
C   C966      1.0  0.59089  0.18385  0.92770  1.0000 -0.0807478933
C   C967      1.0  0.62017  0.19496  0.94057  1.0000 -0.0515007359
C   C968      1.0  0.63417  0.21142  0.93331  1.0000 -0.0748921724
C   C969      1.0  0.62085  0.21726  0.91401  1.0000 -0.1618789427
C   C970      1.0  0.63335  0.18888  0.96231  1.0000 0.577411362
C   C971      1.0  0.16877  0.03581  0.68206  1.0000 0.5712837381
C   C972      1.0  0.16264  0.05724  0.69688  1.0000 -0.0426629581
C   C973      1.0  0.15105  0.06966  0.68325  1.0000 -0.0807478933
C   C974      1.0  0.14490  0.08962  0.69634  1.0000 -0.1674999952
C   C975      1.0  0.15016  0.09757  0.72357  1.0000 0.0800660619
C   C976      1.0  0.16242  0.08598  0.73754  1.0000 -0.1618789427
C   C977      1.0  0.16828  0.06571  0.72371  1.0000 -0.0807478933
C   C978      1.0  0.14540  0.12015  0.73997  1.0000 0.0800660619
C   C979      1.0  0.16259  0.13800  0.76913  1.0000 -0.2190345834
C   C980      1.0  0.22696  0.20212  0.81804  1.0000 -0.2190345834
C   C981      1.0  0.24832  0.22293  0.81931  1.0000 0.0710823839
C   C982      1.0  0.27206  0.22098  0.81996  1.0000 0.0600673988
C   C983      1.0  0.29772  0.24470  0.83442  1.0000 -0.1618789427
C   C984      1.0  0.32103  0.24366  0.83437  1.0000 -0.0923104735
C   C985      1.0  0.31954  0.21796  0.82022  1.0000 -0.0307098222
C   C986      1.0  0.29465  0.19427  0.80652  1.0000 -0.0807478933
C   C987      1.0  0.27177  0.19666  0.80697  1.0000 -0.1674999952
C   C988      1.0  0.34612  0.21876  0.82172  1.0000 0.577411362
C   C989      1.0  0.56364  0.40221  0.78507  1.0000 0.5634087017
C   C990      1.0  0.53615  0.37965  0.75752  1.0000 -0.0114505005
C   C991      1.0  0.53263  0.37556  0.73123  1.0000 -0.0975672594
C   C992      1.0  0.50771  0.35569  0.70716  1.0000 -0.1618789427
C   C993      1.0  0.48457  0.33853  0.70774  1.0000 0.0710823839
C   C994      1.0  0.48883  0.34220  0.73325  1.0000 -0.1487380139
C   C995      1.0  0.51326  0.36252  0.75780  1.0000 -0.0975672594
C   C996      1.0  0.45715  0.31589  0.68040  1.0000 0.0888590467
C   C997      1.0  0.44508  0.32183  0.65985  1.0000 -0.2190345834
C   C998      1.0  0.41999  0.30081  0.63470  1.0000 0.0888590467
C   C999      1.0  0.40939  0.27562  0.63193  1.0000 -0.2053535767
C   C1000     1.0  0.42000  0.26723  0.65159  1.0000 0.1486529698
C   C1001     1.0  0.44359  0.28781  0.67546  1.0000 -0.2190345834
C   C1002     1.0  0.40757  0.30834  0.61445  1.0000 0.0710823839
C   C1003     1.0  0.42215  0.33068  0.61249  1.0000 -0.1618789427
C   C1004     1.0  0.40911  0.33681  0.59296  1.0000 -0.0807478933
C   C1005     1.0  0.37983  0.32040  0.57479  1.0000 -0.0515007359
C   C1006     1.0  0.36583  0.29914  0.57725  1.0000 -0.0748921724
C   C1007     1.0  0.37915  0.29316  0.59641  1.0000 -0.1618789427
C   C1008     1.0  0.36665  0.32896  0.55553  1.0000 0.577411362
C   C1009     1.0  0.83123  0.51329  0.86704  1.0000 0.5712837381
C   C1010     1.0  0.83736  0.53424  0.89460  1.0000 -0.0426629581
C   C1011     1.0  0.84895  0.53220  0.91861  1.0000 -0.0807478933
C   C1012     1.0  0.85510  0.55144  0.94472  1.0000 -0.1674999952
C   C1013     1.0  0.84984  0.57341  0.94741  1.0000 0.0800660619
C   C1014     1.0  0.83758  0.57512  0.92356  1.0000 -0.1618789427
C   C1015     1.0  0.83172  0.55543  0.89743  1.0000 -0.0807478933
C   C1016     1.0  0.85460  0.59457  0.97475  1.0000 0.0800660619
C   C1017     1.0  0.83741  0.60654  0.97541  1.0000 -0.2190345834
C   C1018     1.0  0.77304  0.59108  0.97516  1.0000 -0.2190345834
C   C1019     1.0  0.75168  0.57099  0.97461  1.0000 0.0710823839
C   C1020     1.0  0.72794  0.54790  0.94892  1.0000 0.0600673988
C   C1021     1.0  0.70228  0.53670  0.94698  1.0000 -0.1618789427
C   C1022     1.0  0.67897  0.51334  0.92263  1.0000 -0.0923104735
C   C1023     1.0  0.68046  0.50068  0.89842  1.0000 -0.0307098222
C   C1024     1.0  0.70535  0.51187  0.89962  1.0000 -0.0807478933
C   C1025     1.0  0.72823  0.53520  0.92489  1.0000 -0.1674999952
C   C1026     1.0  0.65388  0.47560  0.87264  1.0000 0.577411362
C   C1027     1.0  0.61714  0.77857  0.21493  1.0000 0.5634087017
C   C1028     1.0  0.62213  0.77863  0.24248  1.0000 -0.0114505005
C   C1029     1.0  0.64433  0.80140  0.26877  1.0000 -0.0975672594
C   C1030     1.0  0.64853  0.80055  0.29284  1.0000 -0.1618789427
C   C1031     1.0  0.63079  0.77683  0.29226  1.0000 0.0710823839
C   C1032     1.0  0.60895  0.75558  0.26675  1.0000 -0.1487380139
C   C1033     1.0  0.60472  0.75546  0.24220  1.0000 -0.0975672594
C   C1034     1.0  0.63549  0.77675  0.31960  1.0000 0.0888590467
C   C1035     1.0  0.66198  0.78523  0.34015  1.0000 -0.2190345834
C   C1036     1.0  0.66611  0.78529  0.36530  1.0000 0.0888590467
C   C1037     1.0  0.64369  0.77746  0.36807  1.0000 -0.2053535767
C   C1038     1.0  0.61564  0.76841  0.34841  1.0000 0.1486529698
C   C1039     1.0  0.61235  0.76813  0.32454  1.0000 -0.2190345834
C   C1040     1.0  0.69389  0.79312  0.38555  1.0000 0.0710823839
C   C1041     1.0  0.71819  0.80966  0.38751  1.0000 -0.1618789427
C   C1042     1.0  0.74385  0.81615  0.40704  1.0000 -0.0807478933
C   C1043     1.0  0.74561  0.80504  0.42521  1.0000 -0.0515007359
C   C1044     1.0  0.72189  0.78858  0.42275  1.0000 -0.0748921724
C   C1045     1.0  0.69675  0.78274  0.40359  1.0000 -0.1618789427
C   C1046     1.0  0.77343  0.81112  0.44447  1.0000 0.577411362
C   C1047     1.0  0.64625  0.96419  0.13296  1.0000 0.5712837381
C   C1048     1.0  0.63964  0.94276  0.10540  1.0000 -0.0426629581
C   C1049     1.0  0.61359  0.93034  0.08139  1.0000 -0.0807478933
C   C1050     1.0  0.60672  0.91038  0.05528  1.0000 -0.1674999952
C   C1051     1.0  0.62600  0.90243  0.05259  1.0000 0.0800660619
C   C1052     1.0  0.65156  0.91402  0.07644  1.0000 -0.1618789427
C   C1053     1.0  0.65800  0.93429  0.10257  1.0000 -0.0807478933
C   C1054     1.0  0.61982  0.87985  0.02525  1.0000 0.0800660619
C   C1055     1.0  0.63113  0.86200  0.02459  1.0000 -0.2190345834
C   C1056     1.0  0.61592  0.79788  0.02484  1.0000 -0.2190345834
C   C1057     1.0  0.59638  0.77707  0.02539  1.0000 0.0710823839
C   C1058     1.0  0.59898  0.77902  0.05108  1.0000 0.0600673988
C   C1059     1.0  0.58972  0.75530  0.05302  1.0000 -0.1618789427
C   C1060     1.0  0.59071  0.75634  0.07737  1.0000 -0.0975672594
C   C1061     1.0  0.60226  0.78204  0.10158  1.0000 -0.0307098222
C   C1062     1.0  0.61225  0.80573  0.10038  1.0000 -0.0807478933
C   C1063     1.0  0.61031  0.80334  0.07511  1.0000 -0.1674999952
C   C1064     1.0  0.60296  0.78124  0.12736  1.0000 0.577411362
C   C1065     1.0  0.16143  0.38286  0.59779  1.0000 0.5634087017
C   C1066     1.0  0.15650  0.37787  0.62035  1.0000 -0.0114505005
C   C1067     1.0  0.15707  0.35567  0.62444  1.0000 -0.0975672594
C   C1068     1.0  0.15202  0.35147  0.64431  1.0000 -0.1618789427
C   C1069     1.0  0.14604  0.36921  0.66147  1.0000 0.0710823839
C   C1070     1.0  0.14663  0.39105  0.65780  1.0000 -0.1487380139
C   C1071     1.0  0.15074  0.39528  0.63748  1.0000 -0.0975672594
C   C1072     1.0  0.14126  0.36451  0.68411  1.0000 0.0888590467
C   C1073     1.0  0.12325  0.33802  0.67817  1.0000 -0.2190345834
C   C1074     1.0  0.11918  0.33389  0.69919  1.0000 0.0888590467
C   C1075     1.0  0.13377  0.35631  0.72438  1.0000 -0.2053535767
C   C1076     1.0  0.15277  0.38436  0.73277  1.0000 0.1486529698
C   C1077     1.0  0.15578  0.38765  0.71219  1.0000 -0.2190345834
C   C1078     1.0  0.09923  0.30611  0.69166  1.0000 0.0710823839
C   C1079     1.0  0.09147  0.28181  0.66932  1.0000 -0.1618789427
C   C1080     1.0  0.07230  0.25615  0.66319  1.0000 -0.0807478933
C   C1081     1.0  0.05943  0.25439  0.67960  1.0000 -0.0515007359
C   C1082     1.0  0.06669  0.27811  0.70086  1.0000 -0.0748921724
C   C1083     1.0  0.08599  0.30325  0.70684  1.0000 -0.1618789427
C   C1084     1.0  0.03769  0.22657  0.67104  1.0000 0.577411362
C   C1085     1.0  0.31794  0.35375  0.48671  1.0000 0.5712837381
C   C1086     1.0  0.30312  0.36036  0.46576  1.0000 -0.0426629581
C   C1087     1.0  0.31675  0.38641  0.46780  1.0000 -0.0807478933
C   C1088     1.0  0.30366  0.39328  0.44856  1.0000 -0.1674999952
C   C1089     1.0  0.27643  0.37400  0.42659  1.0000 0.0800660619
C   C1090     1.0  0.26246  0.34844  0.42488  1.0000 -0.1618789427
C   C1091     1.0  0.27629  0.34200  0.44457  1.0000 -0.0807478933
C   C1092     1.0  0.26003  0.38018  0.40543  1.0000 0.0800660619
C   C1093     1.0  0.23087  0.36887  0.39346  1.0000 -0.2190345834
C   C1094     1.0  0.18196  0.38408  0.40892  1.0000 -0.2190345834
C   C1095     1.0  0.18069  0.40362  0.42901  1.0000 0.0710823839
C   C1096     1.0  0.18004  0.40102  0.45210  1.0000 0.0600673988
C   C1097     1.0  0.16558  0.41028  0.46330  1.0000 -0.1618789427
C   C1098     1.0  0.16563  0.40929  0.48666  1.0000 -0.0975672594
C   C1099     1.0  0.17978  0.39774  0.49932  1.0000 -0.0307098222
C   C1100     1.0  0.19348  0.38775  0.48813  1.0000 -0.0923104735
C   C1101     1.0  0.19303  0.38969  0.46480  1.0000 -0.1674999952
C   C1102     1.0  0.17828  0.39704  0.52440  1.0000 0.577411362
C   C1103     1.0  0.83857  0.43636  0.22143  1.0000 0.5634087017
C   C1104     1.0  0.84350  0.46385  0.22137  1.0000 -0.0114505005
C   C1105     1.0  0.84293  0.46737  0.19860  1.0000 -0.0975672594
C   C1106     1.0  0.84798  0.49229  0.19945  1.0000 -0.1618789427
C   C1107     1.0  0.85396  0.51543  0.22317  1.0000 0.0710823839
C   C1108     1.0  0.85337  0.51117  0.24442  1.0000 -0.1487380139
C   C1109     1.0  0.84926  0.48674  0.24454  1.0000 -0.0975672594
C   C1110     1.0  0.85874  0.54285  0.22325  1.0000 0.0888590467
C   C1111     1.0  0.87675  0.55492  0.21477  1.0000 -0.2190345834
C   C1112     1.0  0.88082  0.58001  0.21471  1.0000 0.0888590467
C   C1113     1.0  0.86623  0.59061  0.22254  1.0000 -0.2053535767
C   C1114     1.0  0.84723  0.58000  0.23159  1.0000 0.1486529698
C   C1115     1.0  0.84422  0.55641  0.23187  1.0000 -0.2190345834
C   C1116     1.0  0.90077  0.59243  0.20688  1.0000 0.0710823839
C   C1117     1.0  0.90853  0.57785  0.19034  1.0000 -0.1618789427
C   C1118     1.0  0.92770  0.59089  0.18385  1.0000 -0.0807478933
C   C1119     1.0  0.94057  0.62017  0.19496  1.0000 -0.0515007359
C   C1120     1.0  0.93331  0.63417  0.21142  1.0000 -0.0748921724
C   C1121     1.0  0.91401  0.62085  0.21726  1.0000 -0.1618789427
C   C1122     1.0  0.96231  0.63335  0.18888  1.0000 0.577411362
C   C1123     1.0  0.68206  0.16877  0.03581  1.0000 0.5712837381
C   C1124     1.0  0.69688  0.16264  0.05724  1.0000 -0.0426629581
C   C1125     1.0  0.68325  0.15105  0.06966  1.0000 -0.0807478933
C   C1126     1.0  0.69634  0.14490  0.08962  1.0000 -0.1674999952
C   C1127     1.0  0.72357  0.15016  0.09757  1.0000 0.0800660619
C   C1128     1.0  0.73754  0.16242  0.08598  1.0000 -0.1618789427
C   C1129     1.0  0.72371  0.16828  0.06571  1.0000 -0.0807478933
C   C1130     1.0  0.73997  0.14540  0.12015  1.0000 0.0800660619
C   C1131     1.0  0.76913  0.16259  0.13800  1.0000 -0.2190345834
C   C1132     1.0  0.81804  0.22696  0.20212  1.0000 -0.2190345834
C   C1133     1.0  0.81931  0.24832  0.22293  1.0000 0.0710823839
C   C1134     1.0  0.81996  0.27206  0.22098  1.0000 0.0600673988
C   C1135     1.0  0.83442  0.29772  0.24470  1.0000 -0.1618789427
C   C1136     1.0  0.83437  0.32103  0.24366  1.0000 -0.0923104735
C   C1137     1.0  0.82022  0.31954  0.21796  1.0000 -0.0307098222
C   C1138     1.0  0.80652  0.29465  0.19427  1.0000 -0.0807478933
C   C1139     1.0  0.80697  0.27177  0.19666  1.0000 -0.1674999952
C   C1140     1.0  0.82172  0.34612  0.21876  1.0000 0.577411362
C   C1141     1.0  0.78507  0.56364  0.40221  1.0000 0.5634087017
C   C1142     1.0  0.75752  0.53615  0.37965  1.0000 -0.0114505005
C   C1143     1.0  0.73123  0.53263  0.37556  1.0000 -0.0975672594
C   C1144     1.0  0.70716  0.50771  0.35569  1.0000 -0.1618789427
C   C1145     1.0  0.70774  0.48457  0.33853  1.0000 0.0710823839
C   C1146     1.0  0.73325  0.48883  0.34220  1.0000 -0.1487380139
C   C1147     1.0  0.75780  0.51326  0.36252  1.0000 -0.0975672594
C   C1148     1.0  0.68040  0.45715  0.31589  1.0000 0.0888590467
C   C1149     1.0  0.65985  0.44508  0.32183  1.0000 -0.2190345834
C   C1150     1.0  0.63470  0.41999  0.30081  1.0000 0.0888590467
C   C1151     1.0  0.63193  0.40939  0.27562  1.0000 -0.2053535767
C   C1152     1.0  0.65159  0.42000  0.26723  1.0000 0.1486529698
C   C1153     1.0  0.67546  0.44359  0.28781  1.0000 -0.2190345834
C   C1154     1.0  0.61445  0.40757  0.30834  1.0000 0.0710823839
C   C1155     1.0  0.61249  0.42215  0.33068  1.0000 -0.1618789427
C   C1156     1.0  0.59296  0.40911  0.33681  1.0000 -0.0807478933
C   C1157     1.0  0.57479  0.37983  0.32040  1.0000 -0.0515007359
C   C1158     1.0  0.57725  0.36583  0.29914  1.0000 -0.0748921724
C   C1159     1.0  0.59641  0.37915  0.29316  1.0000 -0.1618789427
C   C1160     1.0  0.55553  0.36665  0.32896  1.0000 0.577411362
C   C1161     1.0  0.86704  0.83123  0.51329  1.0000 0.5712837381
C   C1162     1.0  0.89460  0.83736  0.53424  1.0000 -0.0426629581
C   C1163     1.0  0.91861  0.84895  0.53220  1.0000 -0.0807478933
C   C1164     1.0  0.94472  0.85510  0.55144  1.0000 -0.1674999952
C   C1165     1.0  0.94741  0.84984  0.57341  1.0000 0.0800660619
C   C1166     1.0  0.92356  0.83758  0.57512  1.0000 -0.1618789427
C   C1167     1.0  0.89743  0.83172  0.55543  1.0000 -0.0807478933
C   C1168     1.0  0.97475  0.85460  0.59457  1.0000 0.0800660619
C   C1169     1.0  0.97541  0.83741  0.60654  1.0000 -0.2190345834
C   C1170     1.0  0.97516  0.77304  0.59108  1.0000 -0.2190345834
C   C1171     1.0  0.97461  0.75168  0.57099  1.0000 0.0710823839
C   C1172     1.0  0.94892  0.72794  0.54790  1.0000 0.0600673988
C   C1173     1.0  0.94698  0.70228  0.53670  1.0000 -0.1618789427
C   C1174     1.0  0.92263  0.67897  0.51334  1.0000 -0.0923104735
C   C1175     1.0  0.89842  0.68046  0.50068  1.0000 -0.0307098222
C   C1176     1.0  0.89962  0.70535  0.51187  1.0000 -0.0807478933
C   C1177     1.0  0.92489  0.72823  0.53520  1.0000 -0.1674999952
C   C1178     1.0  0.87264  0.65388  0.47560  1.0000 0.577411362
C   C1179     1.0  0.21493  0.61714  0.77857  1.0000 0.5634087017
C   C1180     1.0  0.24248  0.62213  0.77863  1.0000 -0.0114505005
C   C1181     1.0  0.26877  0.64433  0.80140  1.0000 -0.0975672594
C   C1182     1.0  0.29284  0.64853  0.80055  1.0000 -0.1618789427
C   C1183     1.0  0.29226  0.63079  0.77683  1.0000 0.0710823839
C   C1184     1.0  0.26675  0.60895  0.75558  1.0000 -0.1487380139
C   C1185     1.0  0.24220  0.60472  0.75546  1.0000 -0.0975672594
C   C1186     1.0  0.31960  0.63549  0.77675  1.0000 0.0888590467
C   C1187     1.0  0.34015  0.66198  0.78523  1.0000 -0.2190345834
C   C1188     1.0  0.36530  0.66611  0.78529  1.0000 0.0888590467
C   C1189     1.0  0.36807  0.64369  0.77746  1.0000 -0.2053535767
C   C1190     1.0  0.34841  0.61564  0.76841  1.0000 0.1486529698
C   C1191     1.0  0.32454  0.61235  0.76813  1.0000 -0.2190345834
C   C1192     1.0  0.38555  0.69389  0.79312  1.0000 0.0710823839
C   C1193     1.0  0.38751  0.71819  0.80966  1.0000 -0.1618789427
C   C1194     1.0  0.40704  0.74385  0.81615  1.0000 -0.0807478933
C   C1195     1.0  0.42521  0.74561  0.80504  1.0000 -0.0515007359
C   C1196     1.0  0.42275  0.72189  0.78858  1.0000 -0.0748921724
C   C1197     1.0  0.40359  0.69675  0.78274  1.0000 -0.1618789427
C   C1198     1.0  0.44447  0.77343  0.81112  1.0000 0.577411362
C   C1199     1.0  0.13296  0.64625  0.96419  1.0000 0.5712837381
C   C1200     1.0  0.10540  0.63964  0.94276  1.0000 -0.0426629581
C   C1201     1.0  0.08139  0.61359  0.93034  1.0000 -0.0807478933
C   C1202     1.0  0.05528  0.60672  0.91038  1.0000 -0.1674999952
C   C1203     1.0  0.05259  0.62600  0.90243  1.0000 0.0800660619
C   C1204     1.0  0.07644  0.65156  0.91402  1.0000 -0.1618789427
C   C1205     1.0  0.10257  0.65800  0.93429  1.0000 -0.0807478933
C   C1206     1.0  0.02525  0.61982  0.87985  1.0000 0.0800660619
C   C1207     1.0  0.02459  0.63113  0.86200  1.0000 -0.2190345834
C   C1208     1.0  0.02484  0.61592  0.79788  1.0000 -0.2190345834
C   C1209     1.0  0.02539  0.59638  0.77707  1.0000 0.0710823839
C   C1210     1.0  0.05108  0.59898  0.77902  1.0000 0.0600673988
C   C1211     1.0  0.05302  0.58972  0.75530  1.0000 -0.1618789427
C   C1212     1.0  0.07737  0.59071  0.75634  1.0000 -0.0923104735
C   C1213     1.0  0.10158  0.60226  0.78204  1.0000 -0.0307098222
C   C1214     1.0  0.10038  0.61225  0.80573  1.0000 -0.0923104735
C   C1215     1.0  0.07511  0.61031  0.80334  1.0000 -0.1674999952
C   C1216     1.0  0.12736  0.60296  0.78124  1.0000 0.577411362
C   C1217     1.0  0.59779  0.16143  0.38286  1.0000 0.5634087017
C   C1218     1.0  0.62035  0.15650  0.37787  1.0000 -0.0114505005
C   C1219     1.0  0.62444  0.15707  0.35567  1.0000 -0.0975672594
C   C1220     1.0  0.64431  0.15202  0.35147  1.0000 -0.1618789427
C   C1221     1.0  0.66147  0.14604  0.36921  1.0000 0.0710823839
C   C1222     1.0  0.65780  0.14663  0.39105  1.0000 -0.1487380139
C   C1223     1.0  0.63748  0.15074  0.39528  1.0000 -0.0975672594
C   C1224     1.0  0.68411  0.14126  0.36451  1.0000 0.0888590467
C   C1225     1.0  0.67817  0.12325  0.33802  1.0000 -0.2190345834
C   C1226     1.0  0.69919  0.11918  0.33389  1.0000 0.0888590467
C   C1227     1.0  0.72438  0.13377  0.35631  1.0000 -0.2053535767
C   C1228     1.0  0.73277  0.15277  0.38436  1.0000 0.1486529698
C   C1229     1.0  0.71219  0.15578  0.38765  1.0000 -0.2190345834
C   C1230     1.0  0.69166  0.09923  0.30611  1.0000 0.0710823839
C   C1231     1.0  0.66932  0.09147  0.28181  1.0000 -0.1618789427
C   C1232     1.0  0.66319  0.07230  0.25615  1.0000 -0.0807478933
C   C1233     1.0  0.67960  0.05943  0.25439  1.0000 -0.0515007359
C   C1234     1.0  0.70086  0.06669  0.27811  1.0000 -0.0748921724
C   C1235     1.0  0.70684  0.08599  0.30325  1.0000 -0.1618789427
C   C1236     1.0  0.67104  0.03769  0.22657  1.0000 0.577411362
C   C1237     1.0  0.48671  0.31794  0.35375  1.0000 0.5712837381
C   C1238     1.0  0.46576  0.30312  0.36036  1.0000 -0.0426629581
C   C1239     1.0  0.46780  0.31675  0.38641  1.0000 -0.0807478933
C   C1240     1.0  0.44856  0.30366  0.39328  1.0000 -0.1674999952
C   C1241     1.0  0.42659  0.27643  0.37400  1.0000 0.0800660619
C   C1242     1.0  0.42488  0.26246  0.34844  1.0000 -0.1618789427
C   C1243     1.0  0.44457  0.27629  0.34200  1.0000 -0.0807478933
C   C1244     1.0  0.40543  0.26003  0.38018  1.0000 0.0800660619
C   C1245     1.0  0.39346  0.23087  0.36887  1.0000 -0.2190345834
C   C1246     1.0  0.40892  0.18196  0.38408  1.0000 -0.2190345834
C   C1247     1.0  0.42901  0.18069  0.40362  1.0000 0.0710823839
C   C1248     1.0  0.45210  0.18004  0.40102  1.0000 0.0600673988
C   C1249     1.0  0.46330  0.16558  0.41028  1.0000 -0.1618789427
C   C1250     1.0  0.48666  0.16563  0.40929  1.0000 -0.0923104735
C   C1251     1.0  0.49932  0.17978  0.39774  1.0000 -0.0307098222
C   C1252     1.0  0.48813  0.19348  0.38775  1.0000 -0.0807478933
C   C1253     1.0  0.46480  0.19303  0.38969  1.0000 -0.1674999952
C   C1254     1.0  0.52440  0.17828  0.39704  1.0000 0.577411362
C   C1255     1.0  0.22143  0.83857  0.43636  1.0000 0.5634087017
C   C1256     1.0  0.22137  0.84350  0.46385  1.0000 -0.0114505005
C   C1257     1.0  0.19860  0.84293  0.46737  1.0000 -0.0975672594
C   C1258     1.0  0.19945  0.84798  0.49229  1.0000 -0.1618789427
C   C1259     1.0  0.22317  0.85396  0.51543  1.0000 0.0710823839
C   C1260     1.0  0.24442  0.85337  0.51117  1.0000 -0.1487380139
C   C1261     1.0  0.24454  0.84926  0.48674  1.0000 -0.0975672594
C   C1262     1.0  0.22325  0.85874  0.54285  1.0000 0.0888590467
C   C1263     1.0  0.21477  0.87675  0.55492  1.0000 -0.2190345834
C   C1264     1.0  0.21471  0.88082  0.58001  1.0000 0.0888590467
C   C1265     1.0  0.22254  0.86623  0.59061  1.0000 -0.2053535767
C   C1266     1.0  0.23159  0.84723  0.58000  1.0000 0.1486529698
C   C1267     1.0  0.23187  0.84422  0.55641  1.0000 -0.2190345834
C   C1268     1.0  0.20688  0.90077  0.59243  1.0000 0.0710823839
C   C1269     1.0  0.19034  0.90853  0.57785  1.0000 -0.1618789427
C   C1270     1.0  0.18385  0.92770  0.59089  1.0000 -0.0807478933
C   C1271     1.0  0.19496  0.94057  0.62017  1.0000 -0.0515007359
C   C1272     1.0  0.21142  0.93331  0.63417  1.0000 -0.0807478933
C   C1273     1.0  0.21726  0.91401  0.62085  1.0000 -0.1618789427
C   C1274     1.0  0.18888  0.96231  0.63335  1.0000 0.577411362
C   C1275     1.0  0.03581  0.68206  0.16877  1.0000 0.5712837381
C   C1276     1.0  0.05724  0.69688  0.16264  1.0000 -0.0426629581
C   C1277     1.0  0.06966  0.68325  0.15105  1.0000 -0.0807478933
C   C1278     1.0  0.08962  0.69634  0.14490  1.0000 -0.1674999952
C   C1279     1.0  0.09757  0.72357  0.15016  1.0000 0.0800660619
C   C1280     1.0  0.08598  0.73754  0.16242  1.0000 -0.1618789427
C   C1281     1.0  0.06571  0.72371  0.16828  1.0000 -0.0807478933
C   C1282     1.0  0.12015  0.73997  0.14540  1.0000 0.0800660619
C   C1283     1.0  0.13800  0.76913  0.16259  1.0000 -0.2190345834
C   C1284     1.0  0.20212  0.81804  0.22696  1.0000 -0.2190345834
C   C1285     1.0  0.22293  0.81931  0.24832  1.0000 0.0710823839
C   C1286     1.0  0.22098  0.81996  0.27206  1.0000 0.0600673988
C   C1287     1.0  0.24470  0.83442  0.29772  1.0000 -0.1618789427
C   C1288     1.0  0.24366  0.83437  0.32103  1.0000 -0.0923104735
C   C1289     1.0  0.21796  0.82022  0.31954  1.0000 -0.0307098222
C   C1290     1.0  0.19427  0.80652  0.29465  1.0000 -0.0807478933
C   C1291     1.0  0.19666  0.80697  0.27177  1.0000 -0.1674999952
C   C1292     1.0  0.21876  0.82172  0.34612  1.0000 0.577411362
C   C1293     1.0  0.40221  0.78507  0.56364  1.0000 0.5634087017
C   C1294     1.0  0.37965  0.75752  0.53615  1.0000 -0.0114505005
C   C1295     1.0  0.37556  0.73123  0.53263  1.0000 -0.0975672594
C   C1296     1.0  0.35569  0.70716  0.50771  1.0000 -0.1618789427
C   C1297     1.0  0.33853  0.70774  0.48457  1.0000 0.0710823839
C   C1298     1.0  0.34220  0.73325  0.48883  1.0000 -0.1487380139
C   C1299     1.0  0.36252  0.75780  0.51326  1.0000 -0.0975672594
C   C1300     1.0  0.31589  0.68040  0.45715  1.0000 0.0888590467
C   C1301     1.0  0.32183  0.65985  0.44508  1.0000 -0.2190345834
C   C1302     1.0  0.30081  0.63470  0.41999  1.0000 0.0888590467
C   C1303     1.0  0.27562  0.63193  0.40939  1.0000 -0.2053535767
C   C1304     1.0  0.26723  0.65159  0.42000  1.0000 0.1486529698
C   C1305     1.0  0.28781  0.67546  0.44359  1.0000 -0.2190345834
C   C1306     1.0  0.30834  0.61445  0.40757  1.0000 0.0710823839
C   C1307     1.0  0.33068  0.61249  0.42215  1.0000 -0.1618789427
C   C1308     1.0  0.33681  0.59296  0.40911  1.0000 -0.0807478933
C   C1309     1.0  0.32040  0.57479  0.37983  1.0000 -0.0515007359
C   C1310     1.0  0.29914  0.57725  0.36583  1.0000 -0.0748921724
C   C1311     1.0  0.29316  0.59641  0.37915  1.0000 -0.1618789427
C   C1312     1.0  0.32896  0.55553  0.36665  1.0000 0.577411362
C   C1313     1.0  0.51329  0.86704  0.83123  1.0000 0.5712837381
C   C1314     1.0  0.53424  0.89460  0.83736  1.0000 -0.0426629581
C   C1315     1.0  0.53220  0.91861  0.84895  1.0000 -0.0807478933
C   C1316     1.0  0.55144  0.94472  0.85510  1.0000 -0.1674999952
C   C1317     1.0  0.57341  0.94741  0.84984  1.0000 0.0800660619
C   C1318     1.0  0.57512  0.92356  0.83758  1.0000 -0.1618789427
C   C1319     1.0  0.55543  0.89743  0.83172  1.0000 -0.0807478933
C   C1320     1.0  0.59457  0.97475  0.85460  1.0000 0.0800660619
C   C1321     1.0  0.60654  0.97541  0.83741  1.0000 -0.2190345834
C   C1322     1.0  0.59108  0.97516  0.77304  1.0000 -0.2190345834
C   C1323     1.0  0.57099  0.97461  0.75168  1.0000 0.0710823839
C   C1324     1.0  0.54790  0.94892  0.72794  1.0000 0.0600673988
C   C1325     1.0  0.53670  0.94698  0.70228  1.0000 -0.1618789427
C   C1326     1.0  0.51334  0.92263  0.67897  1.0000 -0.0923104735
C   C1327     1.0  0.50068  0.89842  0.68046  1.0000 -0.0307098222
C   C1328     1.0  0.51187  0.89962  0.70535  1.0000 -0.0807478933
C   C1329     1.0  0.53520  0.92489  0.72823  1.0000 -0.1674999952
C   C1330     1.0  0.47560  0.87264  0.65388  1.0000 0.577411362
C   C1331     1.0  0.77857  0.21493  0.61714  1.0000 0.5634087017
C   C1332     1.0  0.77863  0.24248  0.62213  1.0000 -0.0114505005
C   C1333     1.0  0.80140  0.26877  0.64433  1.0000 -0.0975672594
C   C1334     1.0  0.80055  0.29284  0.64853  1.0000 -0.1618789427
C   C1335     1.0  0.77683  0.29226  0.63079  1.0000 0.0710823839
C   C1336     1.0  0.75558  0.26675  0.60895  1.0000 -0.1487380139
C   C1337     1.0  0.75546  0.24220  0.60472  1.0000 -0.0975672594
C   C1338     1.0  0.77675  0.31960  0.63549  1.0000 0.0888590467
C   C1339     1.0  0.78523  0.34015  0.66198  1.0000 -0.2190345834
C   C1340     1.0  0.78529  0.36530  0.66611  1.0000 0.0888590467
C   C1341     1.0  0.77746  0.36807  0.64369  1.0000 -0.2053535767
C   C1342     1.0  0.76841  0.34841  0.61564  1.0000 0.1486529698
C   C1343     1.0  0.76813  0.32454  0.61235  1.0000 -0.2190345834
C   C1344     1.0  0.79312  0.38555  0.69389  1.0000 0.0710823839
C   C1345     1.0  0.80966  0.38751  0.71819  1.0000 -0.1618789427
C   C1346     1.0  0.81615  0.40704  0.74385  1.0000 -0.0807478933
C   C1347     1.0  0.80504  0.42521  0.74561  1.0000 -0.0515007359
C   C1348     1.0  0.78858  0.42275  0.72189  1.0000 -0.0748921724
C   C1349     1.0  0.78274  0.40359  0.69675  1.0000 -0.1618789427
C   C1350     1.0  0.81112  0.44447  0.77343  1.0000 0.577411362
C   C1351     1.0  0.96419  0.13296  0.64625  1.0000 0.5712837381
C   C1352     1.0  0.94276  0.10540  0.63964  1.0000 -0.0426629581
C   C1353     1.0  0.93034  0.08139  0.61359  1.0000 -0.0807478933
C   C1354     1.0  0.91038  0.05528  0.60672  1.0000 -0.1674999952
C   C1355     1.0  0.90243  0.05259  0.62600  1.0000 0.0800660619
C   C1356     1.0  0.91402  0.07644  0.65156  1.0000 -0.1618789427
C   C1357     1.0  0.93429  0.10257  0.65800  1.0000 -0.0807478933
C   C1358     1.0  0.87985  0.02525  0.61982  1.0000 0.0800660619
C   C1359     1.0  0.86200  0.02459  0.63113  1.0000 -0.2190345834
C   C1360     1.0  0.79788  0.02484  0.61592  1.0000 -0.2190345834
C   C1361     1.0  0.77707  0.02539  0.59638  1.0000 0.0710823839
C   C1362     1.0  0.77902  0.05108  0.59898  1.0000 0.0600673988
C   C1363     1.0  0.75530  0.05302  0.58972  1.0000 -0.1618789427
C   C1364     1.0  0.75634  0.07737  0.59071  1.0000 -0.0923104735
C   C1365     1.0  0.78204  0.10158  0.60226  1.0000 -0.0307098222
C   C1366     1.0  0.80573  0.10038  0.61225  1.0000 -0.0807478933
C   C1367     1.0  0.80334  0.07511  0.61031  1.0000 -0.1674999952
C   C1368     1.0  0.78124  0.12736  0.60296  1.0000 0.577411362
C   C1369     1.0  0.77857  0.56364  0.16143  1.0000 0.5634087017
C   C1370     1.0  0.77863  0.53615  0.15650  1.0000 -0.0114505005
C   C1371     1.0  0.80140  0.53263  0.15707  1.0000 -0.0975672594
C   C1372     1.0  0.80055  0.50771  0.15202  1.0000 -0.1618789427
C   C1373     1.0  0.77683  0.48457  0.14604  1.0000 0.0710823839
C   C1374     1.0  0.75558  0.48883  0.14663  1.0000 -0.1487380139
C   C1375     1.0  0.75546  0.51326  0.15074  1.0000 -0.0975672594
C   C1376     1.0  0.77675  0.45715  0.14126  1.0000 0.0888590467
C   C1377     1.0  0.78523  0.44508  0.12325  1.0000 -0.2190345834
C   C1378     1.0  0.78529  0.41999  0.11918  1.0000 0.0888590467
C   C1379     1.0  0.77746  0.40939  0.13377  1.0000 -0.2053535767
C   C1380     1.0  0.76841  0.42000  0.15277  1.0000 0.1486529698
C   C1381     1.0  0.76813  0.44359  0.15578  1.0000 -0.2190345834
C   C1382     1.0  0.79312  0.40757  0.09923  1.0000 0.0710823839
C   C1383     1.0  0.80966  0.42215  0.09147  1.0000 -0.1618789427
C   C1384     1.0  0.81615  0.40911  0.07230  1.0000 -0.0807478933
C   C1385     1.0  0.80504  0.37983  0.05943  1.0000 -0.0515007359
C   C1386     1.0  0.78858  0.36583  0.06669  1.0000 -0.0748921724
C   C1387     1.0  0.78274  0.37915  0.08599  1.0000 -0.1618789427
C   C1388     1.0  0.81112  0.36665  0.03769  1.0000 0.577411362
C   C1389     1.0  0.96419  0.83123  0.31794  1.0000 0.5712837381
C   C1390     1.0  0.94276  0.83736  0.30312  1.0000 -0.0426629581
C   C1391     1.0  0.93034  0.84895  0.31675  1.0000 -0.0807478933
C   C1392     1.0  0.91038  0.85510  0.30366  1.0000 -0.1674999952
C   C1393     1.0  0.90243  0.84984  0.27643  1.0000 0.0800660619
C   C1394     1.0  0.91402  0.83758  0.26246  1.0000 -0.1618789427
C   C1395     1.0  0.93429  0.83172  0.27629  1.0000 -0.0807478933
C   C1396     1.0  0.87985  0.85460  0.26003  1.0000 0.0800660619
C   C1397     1.0  0.86200  0.83741  0.23087  1.0000 -0.2190345834
C   C1398     1.0  0.79788  0.77304  0.18196  1.0000 -0.2190345834
C   C1399     1.0  0.77707  0.75168  0.18069  1.0000 0.0710823839
C   C1400     1.0  0.77902  0.72794  0.18004  1.0000 0.0600673988
C   C1401     1.0  0.75530  0.70228  0.16558  1.0000 -0.1618789427
C   C1402     1.0  0.75634  0.67897  0.16563  1.0000 -0.0923104735
C   C1403     1.0  0.78204  0.68046  0.17978  1.0000 -0.0307098222
C   C1404     1.0  0.80573  0.70535  0.19348  1.0000 -0.0807478933
C   C1405     1.0  0.80334  0.72823  0.19303  1.0000 -0.1674999952
C   C1406     1.0  0.78124  0.65388  0.17828  1.0000 0.577411362
C   C1407     1.0  0.40221  0.61714  0.83857  1.0000 0.5634087017
C   C1408     1.0  0.37965  0.62213  0.84350  1.0000 -0.0114505005
C   C1409     1.0  0.37556  0.64433  0.84293  1.0000 -0.0975672594
C   C1410     1.0  0.35569  0.64853  0.84798  1.0000 -0.1618789427
C   C1411     1.0  0.33853  0.63079  0.85396  1.0000 0.0710823839
C   C1412     1.0  0.34220  0.60895  0.85337  1.0000 -0.1487380139
C   C1413     1.0  0.36252  0.60472  0.84926  1.0000 -0.0975672594
C   C1414     1.0  0.31589  0.63549  0.85874  1.0000 0.0888590467
C   C1415     1.0  0.32183  0.66198  0.87675  1.0000 -0.2190345834
C   C1416     1.0  0.30081  0.66611  0.88082  1.0000 0.0800660619
C   C1417     1.0  0.27562  0.64369  0.86623  1.0000 -0.2053535767
C   C1418     1.0  0.26723  0.61564  0.84723  1.0000 0.1486529698
C   C1419     1.0  0.28781  0.61235  0.84422  1.0000 -0.2190345834
C   C1420     1.0  0.30834  0.69389  0.90077  1.0000 0.0710823839
C   C1421     1.0  0.33068  0.71819  0.90853  1.0000 -0.1618789427
C   C1422     1.0  0.33681  0.74385  0.92770  1.0000 -0.0807478933
C   C1423     1.0  0.32040  0.74561  0.94057  1.0000 -0.0515007359
C   C1424     1.0  0.29914  0.72189  0.93331  1.0000 -0.0748921724
C   C1425     1.0  0.29316  0.69675  0.91401  1.0000 -0.1618789427
C   C1426     1.0  0.32896  0.77343  0.96231  1.0000 0.577411362
C   C1427     1.0  0.51329  0.64625  0.68206  1.0000 0.5712837381
C   C1428     1.0  0.53424  0.63964  0.69688  1.0000 -0.0426629581
C   C1429     1.0  0.53220  0.61359  0.68325  1.0000 -0.0807478933
C   C1430     1.0  0.55144  0.60672  0.69634  1.0000 -0.1674999952
C   C1431     1.0  0.57341  0.62600  0.72357  1.0000 0.0800660619
C   C1432     1.0  0.57512  0.65156  0.73754  1.0000 -0.1618789427
C   C1433     1.0  0.55543  0.65800  0.72371  1.0000 -0.0807478933
C   C1434     1.0  0.59457  0.61982  0.73997  1.0000 0.0800660619
C   C1435     1.0  0.60654  0.63113  0.76913  1.0000 -0.2190345834
C   C1436     1.0  0.59108  0.61592  0.81804  1.0000 -0.2190345834
C   C1437     1.0  0.57099  0.59638  0.81931  1.0000 0.0710823839
C   C1438     1.0  0.54790  0.59898  0.81996  1.0000 0.0600673988
C   C1439     1.0  0.53670  0.58972  0.83442  1.0000 -0.1618789427
C   C1440     1.0  0.51334  0.59071  0.83437  1.0000 -0.0923104735
C   C1441     1.0  0.50068  0.60226  0.82022  1.0000 -0.0307098222
C   C1442     1.0  0.51187  0.61225  0.80652  1.0000 -0.0807478933
C   C1443     1.0  0.53520  0.61031  0.80697  1.0000 -0.1674999952
C   C1444     1.0  0.47560  0.60296  0.82172  1.0000 0.577411362
C   C1445     1.0  0.22143  0.38286  0.78507  1.0000 0.5634087017
C   C1446     1.0  0.22137  0.37787  0.75752  1.0000 -0.0114505005
C   C1447     1.0  0.19860  0.35567  0.73123  1.0000 -0.0975672594
C   C1448     1.0  0.19945  0.35147  0.70716  1.0000 -0.1618789427
C   C1449     1.0  0.22317  0.36921  0.70774  1.0000 0.0710823839
C   C1450     1.0  0.24442  0.39105  0.73325  1.0000 -0.1487380139
C   C1451     1.0  0.24454  0.39528  0.75780  1.0000 -0.0975672594
C   C1452     1.0  0.22325  0.36451  0.68040  1.0000 0.0888590467
C   C1453     1.0  0.21477  0.33802  0.65985  1.0000 -0.2190345834
C   C1454     1.0  0.21471  0.33389  0.63470  1.0000 0.0888590467
C   C1455     1.0  0.22254  0.35631  0.63193  1.0000 -0.2053535767
C   C1456     1.0  0.23159  0.38436  0.65159  1.0000 0.1486529698
C   C1457     1.0  0.23187  0.38765  0.67546  1.0000 -0.2190345834
C   C1458     1.0  0.20688  0.30611  0.61445  1.0000 0.0710823839
C   C1459     1.0  0.19034  0.28181  0.61249  1.0000 -0.1618789427
C   C1460     1.0  0.18385  0.25615  0.59296  1.0000 -0.0807478933
C   C1461     1.0  0.19496  0.25439  0.57479  1.0000 -0.0515007359
C   C1462     1.0  0.21142  0.27811  0.57725  1.0000 -0.0748921724
C   C1463     1.0  0.21726  0.30325  0.59641  1.0000 -0.1618789427
C   C1464     1.0  0.18888  0.22657  0.55553  1.0000 0.577411362
C   C1465     1.0  0.03581  0.35375  0.86704  1.0000 0.5712837381
C   C1466     1.0  0.05724  0.36036  0.89460  1.0000 -0.0426629581
C   C1467     1.0  0.06966  0.38641  0.91861  1.0000 -0.0807478933
C   C1468     1.0  0.08962  0.39328  0.94472  1.0000 -0.1674999952
C   C1469     1.0  0.09757  0.37400  0.94741  1.0000 0.0800660619
C   C1470     1.0  0.08598  0.34844  0.92356  1.0000 -0.1618789427
C   C1471     1.0  0.06571  0.34200  0.89743  1.0000 -0.0807478933
C   C1472     1.0  0.12015  0.38018  0.97475  1.0000 0.0800660619
C   C1473     1.0  0.13800  0.36887  0.97541  1.0000 -0.2190345834
C   C1474     1.0  0.20212  0.38408  0.97516  1.0000 -0.2190345834
C   C1475     1.0  0.22293  0.40362  0.97461  1.0000 0.0710823839
C   C1476     1.0  0.22098  0.40102  0.94892  1.0000 0.0600673988
C   C1477     1.0  0.24470  0.41028  0.94698  1.0000 -0.1618789427
C   C1478     1.0  0.24366  0.40929  0.92263  1.0000 -0.0923104735
C   C1479     1.0  0.21796  0.39774  0.89842  1.0000 -0.0307098222
C   C1480     1.0  0.19427  0.38775  0.89962  1.0000 -0.0807478933
C   C1481     1.0  0.19666  0.38969  0.92489  1.0000 -0.1674999952
C   C1482     1.0  0.21876  0.39704  0.87264  1.0000 0.577411362
C   C1483     1.0  0.59779  0.43636  0.21493  1.0000 0.5634087017
C   C1484     1.0  0.62035  0.46385  0.24248  1.0000 -0.0114505005
C   C1485     1.0  0.62444  0.46737  0.26877  1.0000 -0.0975672594
C   C1486     1.0  0.64431  0.49229  0.29284  1.0000 -0.1618789427
C   C1487     1.0  0.66147  0.51543  0.29226  1.0000 0.0710823839
C   C1488     1.0  0.65780  0.51117  0.26675  1.0000 -0.1487380139
C   C1489     1.0  0.63748  0.48674  0.24220  1.0000 -0.0975672594
C   C1490     1.0  0.68411  0.54285  0.31960  1.0000 0.0888590467
C   C1491     1.0  0.67817  0.55492  0.34015  1.0000 -0.2190345834
C   C1492     1.0  0.69919  0.58001  0.36530  1.0000 0.0888590467
C   C1493     1.0  0.72438  0.59061  0.36807  1.0000 -0.2053535767
C   C1494     1.0  0.73277  0.58000  0.34841  1.0000 0.1486529698
C   C1495     1.0  0.71219  0.55641  0.32454  1.0000 -0.2190345834
C   C1496     1.0  0.69166  0.59243  0.38555  1.0000 0.0710823839
C   C1497     1.0  0.66932  0.57785  0.38751  1.0000 -0.1618789427
C   C1498     1.0  0.66319  0.59089  0.40704  1.0000 -0.0807478933
C   C1499     1.0  0.67960  0.62017  0.42521  1.0000 -0.0515007359
C   C1500     1.0  0.70086  0.63417  0.42275  1.0000 -0.0748921724
C   C1501     1.0  0.70684  0.62085  0.40359  1.0000 -0.1618789427
C   C1502     1.0  0.67104  0.63335  0.44447  1.0000 0.577411362
C   C1503     1.0  0.48671  0.16877  0.13296  1.0000 0.5712837381
C   C1504     1.0  0.46576  0.16264  0.10540  1.0000 -0.0426629581
C   C1505     1.0  0.46780  0.15105  0.08139  1.0000 -0.0807478933
C   C1506     1.0  0.44856  0.14490  0.05528  1.0000 -0.1674999952
C   C1507     1.0  0.42659  0.15016  0.05259  1.0000 0.0800660619
C   C1508     1.0  0.42488  0.16242  0.07644  1.0000 -0.1618789427
C   C1509     1.0  0.44457  0.16828  0.10257  1.0000 -0.0807478933
C   C1510     1.0  0.40543  0.14540  0.02525  1.0000 0.0800660619
C   C1511     1.0  0.39346  0.16259  0.02459  1.0000 -0.2190345834
C   C1512     1.0  0.40892  0.22696  0.02484  1.0000 -0.2190345834
C   C1513     1.0  0.42901  0.24832  0.02539  1.0000 0.0710823839
C   C1514     1.0  0.45210  0.27206  0.05108  1.0000 0.0600673988
C   C1515     1.0  0.46330  0.29772  0.05302  1.0000 -0.1618789427
C   C1516     1.0  0.48666  0.32103  0.07737  1.0000 -0.0923104735
C   C1517     1.0  0.49932  0.31954  0.10158  1.0000 -0.0307098222
C   C1518     1.0  0.48813  0.29465  0.10038  1.0000 -0.0807478933
C   C1519     1.0  0.46480  0.27177  0.07511  1.0000 -0.1674999952
C   C1520     1.0  0.52440  0.34612  0.12736  1.0000 0.577411362
C   C1521     1.0  0.43636  0.21493  0.59779  1.0000 0.5634087017
C   C1522     1.0  0.46385  0.24248  0.62035  1.0000 -0.0114505005
C   C1523     1.0  0.46737  0.26877  0.62444  1.0000 -0.0975672594
C   C1524     1.0  0.49229  0.29284  0.64431  1.0000 -0.1618789427
C   C1525     1.0  0.51543  0.29226  0.66147  1.0000 0.0710823839
C   C1526     1.0  0.51117  0.26675  0.65780  1.0000 -0.1487380139
C   C1527     1.0  0.48674  0.24220  0.63748  1.0000 -0.0975672594
C   C1528     1.0  0.54285  0.31960  0.68411  1.0000 0.0888590467
C   C1529     1.0  0.55492  0.34015  0.67817  1.0000 -0.2190345834
C   C1530     1.0  0.58001  0.36530  0.69919  1.0000 0.0888590467
C   C1531     1.0  0.59061  0.36807  0.72438  1.0000 -0.2053535767
C   C1532     1.0  0.58000  0.34841  0.73277  1.0000 0.1486529698
C   C1533     1.0  0.55641  0.32454  0.71219  1.0000 -0.2190345834
C   C1534     1.0  0.59243  0.38555  0.69166  1.0000 0.0710823839
C   C1535     1.0  0.57785  0.38751  0.66932  1.0000 -0.1618789427
C   C1536     1.0  0.59089  0.40704  0.66319  1.0000 -0.0807478933
C   C1537     1.0  0.62017  0.42521  0.67960  1.0000 -0.0515007359
C   C1538     1.0  0.63417  0.42275  0.70086  1.0000 -0.0748921724
C   C1539     1.0  0.62085  0.40359  0.70684  1.0000 -0.1618789427
C   C1540     1.0  0.63335  0.44447  0.67104  1.0000 0.577411362
C   C1541     1.0  0.16877  0.13296  0.48671  1.0000 0.5712837381
C   C1542     1.0  0.16264  0.10540  0.46576  1.0000 -0.0426629581
C   C1543     1.0  0.15105  0.08139  0.46780  1.0000 -0.0807478933
C   C1544     1.0  0.14490  0.05528  0.44856  1.0000 -0.1674999952
C   C1545     1.0  0.15016  0.05259  0.42659  1.0000 0.0800660619
C   C1546     1.0  0.16242  0.07644  0.42488  1.0000 -0.1618789427
C   C1547     1.0  0.16828  0.10257  0.44457  1.0000 -0.0807478933
C   C1548     1.0  0.14540  0.02525  0.40543  1.0000 0.0800660619
C   C1549     1.0  0.16259  0.02459  0.39346  1.0000 -0.2190345834
C   C1550     1.0  0.22696  0.02484  0.40892  1.0000 -0.2190345834
C   C1551     1.0  0.24832  0.02539  0.42901  1.0000 0.0710823839
C   C1552     1.0  0.27206  0.05108  0.45210  1.0000 0.0600673988
C   C1553     1.0  0.29772  0.05302  0.46330  1.0000 -0.1618789427
C   C1554     1.0  0.32103  0.07737  0.48666  1.0000 -0.0923104735
C   C1555     1.0  0.31954  0.10158  0.49932  1.0000 -0.0307098222
C   C1556     1.0  0.29465  0.10038  0.48813  1.0000 -0.0807478933
C   C1557     1.0  0.27177  0.07511  0.46480  1.0000 -0.1674999952
C   C1558     1.0  0.34612  0.12736  0.52440  1.0000 0.577411362
C   C1559     1.0  0.38286  0.78507  0.22143  1.0000 0.5634087017
C   C1560     1.0  0.37787  0.75752  0.22137  1.0000 -0.0114505005
C   C1561     1.0  0.35567  0.73123  0.19860  1.0000 -0.0975672594
C   C1562     1.0  0.35147  0.70716  0.19945  1.0000 -0.1618789427
C   C1563     1.0  0.36921  0.70774  0.22317  1.0000 0.0710823839
C   C1564     1.0  0.39105  0.73325  0.24442  1.0000 -0.1487380139
C   C1565     1.0  0.39528  0.75780  0.24454  1.0000 -0.0975672594
C   C1566     1.0  0.36451  0.68040  0.22325  1.0000 0.0888590467
C   C1567     1.0  0.33802  0.65985  0.21477  1.0000 -0.2190345834
C   C1568     1.0  0.33389  0.63470  0.21471  1.0000 0.0888590467
C   C1569     1.0  0.35631  0.63193  0.22254  1.0000 -0.2053535767
C   C1570     1.0  0.38436  0.65159  0.23159  1.0000 0.1486529698
C   C1571     1.0  0.38765  0.67546  0.23187  1.0000 -0.2190345834
C   C1572     1.0  0.30611  0.61445  0.20688  1.0000 0.0710823839
C   C1573     1.0  0.28181  0.61249  0.19034  1.0000 -0.1618789427
C   C1574     1.0  0.25615  0.59296  0.18385  1.0000 -0.0807478933
C   C1575     1.0  0.25439  0.57479  0.19496  1.0000 -0.0515007359
C   C1576     1.0  0.27811  0.57725  0.21142  1.0000 -0.0748921724
C   C1577     1.0  0.30325  0.59641  0.21726  1.0000 -0.1618789427
C   C1578     1.0  0.22657  0.55553  0.18888  1.0000 0.577411362
C   C1579     1.0  0.35375  0.86704  0.03581  1.0000 0.5712837381
C   C1580     1.0  0.36036  0.89460  0.05724  1.0000 -0.0426629581
C   C1581     1.0  0.38641  0.91861  0.06966  1.0000 -0.0807478933
C   C1582     1.0  0.39328  0.94472  0.08962  1.0000 -0.1674999952
C   C1583     1.0  0.37400  0.94741  0.09757  1.0000 0.0800660619
C   C1584     1.0  0.34844  0.92356  0.08598  1.0000 -0.1618789427
C   C1585     1.0  0.34200  0.89743  0.06571  1.0000 -0.0807478933
C   C1586     1.0  0.38018  0.97475  0.12015  1.0000 0.0800660619
C   C1587     1.0  0.36887  0.97541  0.13800  1.0000 -0.2190345834
C   C1588     1.0  0.38408  0.97516  0.20212  1.0000 -0.2190345834
C   C1589     1.0  0.40362  0.97461  0.22293  1.0000 0.0710823839
C   C1590     1.0  0.40102  0.94892  0.22098  1.0000 0.0600673988
C   C1591     1.0  0.41028  0.94698  0.24470  1.0000 -0.1618789427
C   C1592     1.0  0.40929  0.92263  0.24366  1.0000 -0.0923104735
C   C1593     1.0  0.39774  0.89842  0.21796  1.0000 -0.0307098222
C   C1594     1.0  0.38775  0.89962  0.19427  1.0000 -0.0807478933
C   C1595     1.0  0.38969  0.92489  0.19666  1.0000 -0.1674999952
C   C1596     1.0  0.39704  0.87264  0.21876  1.0000 0.577411362
C   C1597     1.0  0.61714  0.83857  0.40221  1.0000 0.5634087017
C   C1598     1.0  0.62213  0.84350  0.37965  1.0000 -0.0114505005
C   C1599     1.0  0.64433  0.84293  0.37556  1.0000 -0.0975672594
C   C1600     1.0  0.64853  0.84798  0.35569  1.0000 -0.1618789427
C   C1601     1.0  0.63079  0.85396  0.33853  1.0000 0.0710823839
C   C1602     1.0  0.60895  0.85337  0.34220  1.0000 -0.1487380139
C   C1603     1.0  0.60472  0.84926  0.36252  1.0000 -0.0975672594
C   C1604     1.0  0.63549  0.85874  0.31589  1.0000 0.0888590467
C   C1605     1.0  0.66198  0.87675  0.32183  1.0000 -0.2190345834
C   C1606     1.0  0.66611  0.88082  0.30081  1.0000 0.0888590467
C   C1607     1.0  0.64369  0.86623  0.27562  1.0000 -0.2053535767
C   C1608     1.0  0.61564  0.84723  0.26723  1.0000 0.1486529698
C   C1609     1.0  0.61235  0.84422  0.28781  1.0000 -0.2190345834
C   C1610     1.0  0.69389  0.90077  0.30834  1.0000 0.0710823839
C   C1611     1.0  0.71819  0.90853  0.33068  1.0000 -0.1618789427
C   C1612     1.0  0.74385  0.92770  0.33681  1.0000 -0.0807478933
C   C1613     1.0  0.74561  0.94057  0.32040  1.0000 -0.0515007359
C   C1614     1.0  0.72189  0.93331  0.29914  1.0000 -0.0748921724
C   C1615     1.0  0.69675  0.91401  0.29316  1.0000 -0.1618789427
C   C1616     1.0  0.77343  0.96231  0.32896  1.0000 0.577411362
C   C1617     1.0  0.64625  0.68206  0.51329  1.0000 0.5712837381
C   C1618     1.0  0.63964  0.69688  0.53424  1.0000 -0.0426629581
C   C1619     1.0  0.61359  0.68325  0.53220  1.0000 -0.0807478933
C   C1620     1.0  0.60672  0.69634  0.55144  1.0000 -0.1674999952
C   C1621     1.0  0.62600  0.72357  0.57341  1.0000 0.0800660619
C   C1622     1.0  0.65156  0.73754  0.57512  1.0000 -0.1618789427
C   C1623     1.0  0.65800  0.72371  0.55543  1.0000 -0.0807478933
C   C1624     1.0  0.61982  0.73997  0.59457  1.0000 0.0800660619
C   C1625     1.0  0.63113  0.76913  0.60654  1.0000 -0.2190345834
C   C1626     1.0  0.61592  0.81804  0.59108  1.0000 -0.2190345834
C   C1627     1.0  0.59638  0.81931  0.57099  1.0000 0.0710823839
C   C1628     1.0  0.59898  0.81996  0.54790  1.0000 0.0600673988
C   C1629     1.0  0.58972  0.83442  0.53670  1.0000 -0.1618789427
C   C1630     1.0  0.59071  0.83437  0.51334  1.0000 -0.0923104735
C   C1631     1.0  0.60226  0.82022  0.50068  1.0000 -0.0307098222
C   C1632     1.0  0.61225  0.80652  0.51187  1.0000 -0.0807478933
C   C1633     1.0  0.61031  0.80697  0.53520  1.0000 -0.1674999952
C   C1634     1.0  0.60296  0.82172  0.47560  1.0000 0.577411362
C   C1635     1.0  0.56364  0.16143  0.77857  1.0000 0.5634087017
C   C1636     1.0  0.53615  0.15650  0.77863  1.0000 -0.0114505005
C   C1637     1.0  0.53263  0.15707  0.80140  1.0000 -0.0975672594
C   C1638     1.0  0.50771  0.15202  0.80055  1.0000 -0.1618789427
C   C1639     1.0  0.48457  0.14604  0.77683  1.0000 0.0710823839
C   C1640     1.0  0.48883  0.14663  0.75558  1.0000 -0.1487380139
C   C1641     1.0  0.51326  0.15074  0.75546  1.0000 -0.0975672594
C   C1642     1.0  0.45715  0.14126  0.77675  1.0000 0.0888590467
C   C1643     1.0  0.44508  0.12325  0.78523  1.0000 -0.2190345834
C   C1644     1.0  0.41999  0.11918  0.78529  1.0000 0.0888590467
C   C1645     1.0  0.40939  0.13377  0.77746  1.0000 -0.2053535767
C   C1646     1.0  0.42000  0.15277  0.76841  1.0000 0.1486529698
C   C1647     1.0  0.44359  0.15578  0.76813  1.0000 -0.2190345834
C   C1648     1.0  0.40757  0.09923  0.79312  1.0000 0.0710823839
C   C1649     1.0  0.42215  0.09147  0.80966  1.0000 -0.1618789427
C   C1650     1.0  0.40911  0.07230  0.81615  1.0000 -0.0807478933
C   C1651     1.0  0.37983  0.05943  0.80504  1.0000 -0.0515007359
C   C1652     1.0  0.36583  0.06669  0.78858  1.0000 -0.0748921724
C   C1653     1.0  0.37915  0.08599  0.78274  1.0000 -0.1618789427
C   C1654     1.0  0.36665  0.03769  0.81112  1.0000 0.577411362
C   C1655     1.0  0.83123  0.31794  0.96419  1.0000 0.5712837381
C   C1656     1.0  0.83736  0.30312  0.94276  1.0000 -0.0426629581
C   C1657     1.0  0.84895  0.31675  0.93034  1.0000 -0.0807478933
C   C1658     1.0  0.85510  0.30366  0.91038  1.0000 -0.1674999952
C   C1659     1.0  0.84984  0.27643  0.90243  1.0000 0.0800660619
C   C1660     1.0  0.83758  0.26246  0.91402  1.0000 -0.1618789427
C   C1661     1.0  0.83172  0.27629  0.93429  1.0000 -0.0807478933
C   C1662     1.0  0.85460  0.26003  0.87985  1.0000 0.0800660619
C   C1663     1.0  0.83741  0.23087  0.86200  1.0000 -0.2190345834
C   C1664     1.0  0.77304  0.18196  0.79788  1.0000 -0.2190345834
C   C1665     1.0  0.75168  0.18069  0.77707  1.0000 0.0710823839
C   C1666     1.0  0.72794  0.18004  0.77902  1.0000 0.0600673988
C   C1667     1.0  0.70228  0.16558  0.75530  1.0000 -0.1618789427
C   C1668     1.0  0.67897  0.16563  0.75634  1.0000 -0.0923104735
C   C1669     1.0  0.68046  0.17978  0.78204  1.0000 -0.0307098222
C   C1670     1.0  0.70535  0.19348  0.80573  1.0000 -0.0807478933
C   C1671     1.0  0.72823  0.19303  0.80334  1.0000 -0.1674999952
C   C1672     1.0  0.65388  0.17828  0.78124  1.0000 0.577411362
C   C1673     1.0  0.78507  0.22143  0.38286  1.0000 0.5634087017
C   C1674     1.0  0.75752  0.22137  0.37787  1.0000 -0.0114505005
C   C1675     1.0  0.73123  0.19860  0.35567  1.0000 -0.0975672594
C   C1676     1.0  0.70716  0.19945  0.35147  1.0000 -0.1618789427
C   C1677     1.0  0.70774  0.22317  0.36921  1.0000 0.0710823839
C   C1678     1.0  0.73325  0.24442  0.39105  1.0000 -0.1487380139
C   C1679     1.0  0.75780  0.24454  0.39528  1.0000 -0.0975672594
C   C1680     1.0  0.68040  0.22325  0.36451  1.0000 0.0888590467
C   C1681     1.0  0.65985  0.21477  0.33802  1.0000 -0.2190345834
C   C1682     1.0  0.63470  0.21471  0.33389  1.0000 0.0888590467
C   C1683     1.0  0.63193  0.22254  0.35631  1.0000 -0.2053535767
C   C1684     1.0  0.65159  0.23159  0.38436  1.0000 0.1486529698
C   C1685     1.0  0.67546  0.23187  0.38765  1.0000 -0.2190345834
C   C1686     1.0  0.61445  0.20688  0.30611  1.0000 0.0710823839
C   C1687     1.0  0.61249  0.19034  0.28181  1.0000 -0.1618789427
C   C1688     1.0  0.59296  0.18385  0.25615  1.0000 -0.0807478933
C   C1689     1.0  0.57479  0.19496  0.25439  1.0000 -0.0515007359
C   C1690     1.0  0.57725  0.21142  0.27811  1.0000 -0.0748921724
C   C1691     1.0  0.59641  0.21726  0.30325  1.0000 -0.1618789427
C   C1692     1.0  0.55553  0.18888  0.22657  1.0000 0.577411362
C   C1693     1.0  0.86704  0.03581  0.35375  1.0000 0.5712837381
C   C1694     1.0  0.89460  0.05724  0.36036  1.0000 -0.0426629581
C   C1695     1.0  0.91861  0.06966  0.38641  1.0000 -0.0807478933
C   C1696     1.0  0.94472  0.08962  0.39328  1.0000 -0.1674999952
C   C1697     1.0  0.94741  0.09757  0.37400  1.0000 0.0800660619
C   C1698     1.0  0.92356  0.08598  0.34844  1.0000 -0.1618789427
C   C1699     1.0  0.89743  0.06571  0.34200  1.0000 -0.0807478933
C   C1700     1.0  0.97475  0.12015  0.38018  1.0000 0.0800660619
C   C1701     1.0  0.97541  0.13800  0.36887  1.0000 -0.2190345834
C   C1702     1.0  0.97516  0.20212  0.38408  1.0000 -0.2190345834
C   C1703     1.0  0.97461  0.22293  0.40362  1.0000 0.0710823839
C   C1704     1.0  0.94892  0.22098  0.40102  1.0000 0.0600673988
C   C1705     1.0  0.94698  0.24470  0.41028  1.0000 -0.1618789427
C   C1706     1.0  0.92263  0.24366  0.40929  1.0000 -0.0923104735
C   C1707     1.0  0.89842  0.21796  0.39774  1.0000 -0.0307098222
C   C1708     1.0  0.89962  0.19427  0.38775  1.0000 -0.0807478933
C   C1709     1.0  0.92489  0.19666  0.38969  1.0000 -0.1674999952
C   C1710     1.0  0.87264  0.21876  0.39704  1.0000 0.577411362
C   C1711     1.0  0.21493  0.59779  0.43636  1.0000 0.5634087017
C   C1712     1.0  0.24248  0.62035  0.46385  1.0000 -0.0114505005
C   C1713     1.0  0.26877  0.62444  0.46737  1.0000 -0.0975672594
C   C1714     1.0  0.29284  0.64431  0.49229  1.0000 -0.1618789427
C   C1715     1.0  0.29226  0.66147  0.51543  1.0000 0.0710823839
C   C1716     1.0  0.26675  0.65780  0.51117  1.0000 -0.1487380139
C   C1717     1.0  0.24220  0.63748  0.48674  1.0000 -0.0975672594
C   C1718     1.0  0.31960  0.68411  0.54285  1.0000 0.0888590467
C   C1719     1.0  0.34015  0.67817  0.55492  1.0000 -0.2190345834
C   C1720     1.0  0.36530  0.69919  0.58001  1.0000 0.0888590467
C   C1721     1.0  0.36807  0.72438  0.59061  1.0000 -0.2053535767
C   C1722     1.0  0.34841  0.73277  0.58000  1.0000 0.1486529698
C   C1723     1.0  0.32454  0.71219  0.55641  1.0000 -0.2190345834
C   C1724     1.0  0.38555  0.69166  0.59243  1.0000 0.0710823839
C   C1725     1.0  0.38751  0.66932  0.57785  1.0000 -0.1618789427
C   C1726     1.0  0.40704  0.66319  0.59089  1.0000 -0.0807478933
C   C1727     1.0  0.42521  0.67960  0.62017  1.0000 -0.0515007359
C   C1728     1.0  0.42275  0.70086  0.63417  1.0000 -0.0748921724
C   C1729     1.0  0.40359  0.70684  0.62085  1.0000 -0.1618789427
C   C1730     1.0  0.44447  0.67104  0.63335  1.0000 0.577411362
C   C1731     1.0  0.13296  0.48671  0.16877  1.0000 0.5712837381
C   C1732     1.0  0.10540  0.46576  0.16264  1.0000 -0.0426629581
C   C1733     1.0  0.08139  0.46780  0.15105  1.0000 -0.0807478933
C   C1734     1.0  0.05528  0.44856  0.14490  1.0000 -0.1674999952
C   C1735     1.0  0.05259  0.42659  0.15016  1.0000 0.0800660619
C   C1736     1.0  0.07644  0.42488  0.16242  1.0000 -0.1618789427
C   C1737     1.0  0.10257  0.44457  0.16828  1.0000 -0.0807478933
C   C1738     1.0  0.02525  0.40543  0.14540  1.0000 0.0800660619
C   C1739     1.0  0.02459  0.39346  0.16259  1.0000 -0.2190345834
C   C1740     1.0  0.02484  0.40892  0.22696  1.0000 -0.2190345834
C   C1741     1.0  0.02539  0.42901  0.24832  1.0000 0.0710823839
C   C1742     1.0  0.05108  0.45210  0.27206  1.0000 0.0600673988
C   C1743     1.0  0.05302  0.46330  0.29772  1.0000 -0.1618789427
C   C1744     1.0  0.07737  0.48666  0.32103  1.0000 -0.0923104735
C   C1745     1.0  0.10158  0.49932  0.31954  1.0000 -0.0307098222
C   C1746     1.0  0.10038  0.48813  0.29465  1.0000 -0.0807478933
C   C1747     1.0  0.07511  0.46480  0.27177  1.0000 -0.1674999952
C   C1748     1.0  0.12736  0.52440  0.34612  1.0000 0.577411362
C   C1749     1.0  0.16143  0.77857  0.56364  1.0000 0.5634087017
C   C1750     1.0  0.15650  0.77863  0.53615  1.0000 -0.0114505005
C   C1751     1.0  0.15707  0.80140  0.53263  1.0000 -0.0975672594
C   C1752     1.0  0.15202  0.80055  0.50771  1.0000 -0.1618789427
C   C1753     1.0  0.14604  0.77683  0.48457  1.0000 0.0710823839
C   C1754     1.0  0.14663  0.75558  0.48883  1.0000 -0.1487380139
C   C1755     1.0  0.15074  0.75546  0.51326  1.0000 -0.0975672594
C   C1756     1.0  0.14126  0.77675  0.45715  1.0000 0.0888590467
C   C1757     1.0  0.12325  0.78523  0.44508  1.0000 -0.2190345834
C   C1758     1.0  0.11918  0.78529  0.41999  1.0000 0.0888590467
C   C1759     1.0  0.13377  0.77746  0.40939  1.0000 -0.2053535767
C   C1760     1.0  0.15277  0.76841  0.42000  1.0000 0.1486529698
C   C1761     1.0  0.15578  0.76813  0.44359  1.0000 -0.2190345834
C   C1762     1.0  0.09923  0.79312  0.40757  1.0000 0.0710823839
C   C1763     1.0  0.09147  0.80966  0.42215  1.0000 -0.1618789427
C   C1764     1.0  0.07230  0.81615  0.40911  1.0000 -0.0807478933
C   C1765     1.0  0.05943  0.80504  0.37983  1.0000 -0.0515007359
C   C1766     1.0  0.06669  0.78858  0.36583  1.0000 -0.0748921724
C   C1767     1.0  0.08599  0.78274  0.37915  1.0000 -0.1618789427
C   C1768     1.0  0.03769  0.81112  0.36665  1.0000 0.577411362
C   C1769     1.0  0.31794  0.96419  0.83123  1.0000 0.5712837381
C   C1770     1.0  0.30312  0.94276  0.83736  1.0000 -0.0426629581
C   C1771     1.0  0.31675  0.93034  0.84895  1.0000 -0.0807478933
C   C1772     1.0  0.30366  0.91038  0.85510  1.0000 -0.1674999952
C   C1773     1.0  0.27643  0.90243  0.84984  1.0000 0.0800660619
C   C1774     1.0  0.26246  0.91402  0.83758  1.0000 -0.1618789427
C   C1775     1.0  0.27629  0.93429  0.83172  1.0000 -0.0807478933
C   C1776     1.0  0.26003  0.87985  0.85460  1.0000 0.0800660619
C   C1777     1.0  0.23087  0.86200  0.83741  1.0000 -0.2190345834
C   C1778     1.0  0.18196  0.79788  0.77304  1.0000 -0.2190345834
C   C1779     1.0  0.18069  0.77707  0.75168  1.0000 0.0710823839
C   C1780     1.0  0.18004  0.77902  0.72794  1.0000 0.0600673988
C   C1781     1.0  0.16558  0.75530  0.70228  1.0000 -0.1618789427
C   C1782     1.0  0.16563  0.75634  0.67897  1.0000 -0.0923104735
C   C1783     1.0  0.17978  0.78204  0.68046  1.0000 -0.0307098222
C   C1784     1.0  0.19348  0.80573  0.70535  1.0000 -0.0807478933
C   C1785     1.0  0.19303  0.80334  0.72823  1.0000 -0.1674999952
C   C1786     1.0  0.17828  0.78124  0.65388  1.0000 0.577411362
C   C1787     1.0  0.83857  0.40221  0.61714  1.0000 0.5634087017
C   C1788     1.0  0.84350  0.37965  0.62213  1.0000 -0.0114505005
C   C1789     1.0  0.84293  0.37556  0.64433  1.0000 -0.0975672594
C   C1790     1.0  0.84798  0.35569  0.64853  1.0000 -0.1618789427
C   C1791     1.0  0.85396  0.33853  0.63079  1.0000 0.0710823839
C   C1792     1.0  0.85337  0.34220  0.60895  1.0000 -0.1487380139
C   C1793     1.0  0.84926  0.36252  0.60472  1.0000 -0.0975672594
C   C1794     1.0  0.85874  0.31589  0.63549  1.0000 0.0888590467
C   C1795     1.0  0.87675  0.32183  0.66198  1.0000 -0.2190345834
C   C1796     1.0  0.88082  0.30081  0.66611  1.0000 0.0888590467
C   C1797     1.0  0.86623  0.27562  0.64369  1.0000 -0.2053535767
C   C1798     1.0  0.84723  0.26723  0.61564  1.0000 0.1486529698
C   C1799     1.0  0.84422  0.28781  0.61235  1.0000 -0.2190345834
C   C1800     1.0  0.90077  0.30834  0.69389  1.0000 0.0710823839
C   C1801     1.0  0.90853  0.33068  0.71819  1.0000 -0.1618789427
C   C1802     1.0  0.92770  0.33681  0.74385  1.0000 -0.0807478933
C   C1803     1.0  0.94057  0.32040  0.74561  1.0000 -0.0515007359
C   C1804     1.0  0.93331  0.29914  0.72189  1.0000 -0.0748921724
C   C1805     1.0  0.91401  0.29316  0.69675  1.0000 -0.1618789427
C   C1806     1.0  0.96231  0.32896  0.77343  1.0000 0.577411362
C   C1807     1.0  0.68206  0.51329  0.64625  1.0000 0.5712837381
C   C1808     1.0  0.69688  0.53424  0.63964  1.0000 -0.0426629581
C   C1809     1.0  0.68325  0.53220  0.61359  1.0000 -0.0807478933
C   C1810     1.0  0.69634  0.55144  0.60672  1.0000 -0.1674999952
C   C1811     1.0  0.72357  0.57341  0.62600  1.0000 0.0800660619
C   C1812     1.0  0.73754  0.57512  0.65156  1.0000 -0.1618789427
C   C1813     1.0  0.72371  0.55543  0.65800  1.0000 -0.0807478933
C   C1814     1.0  0.73997  0.59457  0.61982  1.0000 0.0800660619
C   C1815     1.0  0.76913  0.60654  0.63113  1.0000 -0.2190345834
C   C1816     1.0  0.81804  0.59108  0.61592  1.0000 -0.2190345834
C   C1817     1.0  0.81931  0.57099  0.59638  1.0000 0.0710823839
C   C1818     1.0  0.81996  0.54790  0.59898  1.0000 0.0600673988
C   C1819     1.0  0.83442  0.53670  0.58972  1.0000 -0.1618789427
C   C1820     1.0  0.83437  0.51334  0.59071  1.0000 -0.0923104735
C   C1821     1.0  0.82022  0.50068  0.60226  1.0000 -0.0307098222
C   C1822     1.0  0.80652  0.51187  0.61225  1.0000 -0.0807478933
C   C1823     1.0  0.80697  0.53520  0.61031  1.0000 -0.1674999952
C   C1824     1.0  0.82172  0.47560  0.60296  1.0000 0.577411362
C   C1825     1.0  0.59172  0.23945  0.83117  1.0000 -0.2991007532
C   C1826     1.0  0.40828  0.76055  0.16883  1.0000 -0.2991007532
C   C1827     1.0  0.59172  0.76055  0.35227  1.0000 -0.2991007532
C   C1828     1.0  0.40828  0.23945  0.64773  1.0000 -0.2991007532
C   C1829     1.0  0.83117  0.59172  0.23945  1.0000 -0.2991007532
C   C1830     1.0  0.16883  0.40828  0.76055  1.0000 -0.2991007532
C   C1831     1.0  0.35227  0.59172  0.76055  1.0000 -0.2991007532
C   C1832     1.0  0.64773  0.40828  0.23945  1.0000 -0.2991007532
C   C1833     1.0  0.23945  0.83117  0.59172  1.0000 -0.2991007532
C   C1834     1.0  0.76055  0.16883  0.40828  1.0000 -0.2991007532
C   C1835     1.0  0.76055  0.35227  0.59172  1.0000 -0.2991007532
C   C1836     1.0  0.23945  0.64773  0.40828  1.0000 -0.2991007532
C   C1837     1.0  0.23945  0.59172  0.83117  1.0000 -0.2991007532
C   C1838     1.0  0.76055  0.40828  0.16883  1.0000 -0.2991007532
C   C1839     1.0  0.76055  0.59172  0.35227  1.0000 -0.2991007532
C   C1840     1.0  0.23945  0.40828  0.64773  1.0000 -0.2991007532
C   C1841     1.0  0.40828  0.64773  0.23945  1.0000 -0.2991007532
C   C1842     1.0  0.59172  0.35227  0.76055  1.0000 -0.2991007532
C   C1843     1.0  0.40828  0.16883  0.76055  1.0000 -0.2991007532
C   C1844     1.0  0.59172  0.83117  0.23945  1.0000 -0.2991007532
C   C1845     1.0  0.35227  0.76055  0.59172  1.0000 -0.2991007532
C   C1846     1.0  0.64773  0.23945  0.40828  1.0000 -0.2991007532
C   C1847     1.0  0.83117  0.23945  0.59172  1.0000 -0.2991007532
C   C1848     1.0  0.16883  0.76055  0.40828  1.0000 -0.2991007532
C   C1849     1.0  0.60132  0.60132  0.72586  1.0000 -0.1986419844
C   C1850     1.0  0.62449  0.62449  0.78384  1.0000 0.1193162209
C   C1851     1.0  0.63437  0.63437  0.81426  1.0000 -0.2991007532
C   C1852     1.0  0.61427  0.61427  0.81830  1.0000 0.1193162209
C   C1853     1.0  0.57404  0.57404  0.81918  1.0000 -0.1986419844
C   C1854     1.0  0.87546  0.87546  0.27414  1.0000 -0.1986419844
C   C1855     1.0  0.84065  0.84065  0.21616  1.0000 0.1193162209
C   C1856     1.0  0.82011  0.82011  0.18574  1.0000 -0.2991007532
C   C1857     1.0  0.79597  0.79597  0.18170  1.0000 0.1193162209
C   C1858     1.0  0.75486  0.75486  0.18082  1.0000 -0.1986419844
C   C1859     1.0  0.12454  0.39868  0.00000  1.0000 -0.1986419844
C   C1860     1.0  0.15935  0.37551  0.00000  1.0000 0.1193162209
C   C1861     1.0  0.17989  0.36563  0.00000  1.0000 -0.2991007532
C   C1862     1.0  0.20403  0.38573  0.00000  1.0000 0.1193162209
C   C1863     1.0  0.24514  0.42596  0.00000  1.0000 -0.1986419844
C   C1864     1.0  0.39868  0.12454  0.00000  1.0000 -0.1986419844
C   C1865     1.0  0.37551  0.15935  0.00000  1.0000 0.1193162209
C   C1866     1.0  0.36563  0.17989  0.00000  1.0000 -0.2991007532
C   C1867     1.0  0.38573  0.20403  0.00000  1.0000 0.1193162209
C   C1868     1.0  0.42596  0.24514  0.00000  1.0000 -0.1986419844
C   C1869     1.0  0.72586  0.60132  0.60132  1.0000 -0.1986419844
C   C1870     1.0  0.78384  0.62449  0.62449  1.0000 0.1193162209
C   C1871     1.0  0.81426  0.63437  0.63437  1.0000 -0.2991007532
C   C1872     1.0  0.81830  0.61427  0.61427  1.0000 0.1193162209
C   C1873     1.0  0.81918  0.57404  0.57404  1.0000 -0.1986419844
C   C1874     1.0  0.27414  0.87546  0.87546  1.0000 -0.1986419844
C   C1875     1.0  0.21616  0.84065  0.84065  1.0000 0.1193162209
C   C1876     1.0  0.18574  0.82011  0.82011  1.0000 -0.2991007532
C   C1877     1.0  0.18170  0.79597  0.79597  1.0000 0.1193162209
C   C1878     1.0  0.18082  0.75486  0.75486  1.0000 -0.1986419844
C   C1879     1.0  1.00000  0.12454  0.39868  1.0000 -0.1986419844
C   C1880     1.0  0.00000  0.15935  0.37551  1.0000 0.1193162209
C   C1881     1.0  0.00000  0.17989  0.36563  1.0000 -0.2991007532
C   C1882     1.0  1.00000  0.20403  0.38573  1.0000 0.1193162209
C   C1883     1.0  0.00000  0.24514  0.42596  1.0000 -0.1986419844
C   C1884     1.0  1.00000  0.39868  0.12454  1.0000 -0.1986419844
C   C1885     1.0  0.00000  0.37551  0.15935  1.0000 0.1193162209
C   C1886     1.0  0.00000  0.36563  0.17989  1.0000 -0.2991007532
C   C1887     1.0  1.00000  0.38573  0.20403  1.0000 0.1193162209
C   C1888     1.0  1.00000  0.42596  0.24514  1.0000 -0.1986419844
C   C1889     1.0  0.60132  0.72586  0.60132  1.0000 -0.1986419844
C   C1890     1.0  0.62449  0.78384  0.62449  1.0000 0.1193162209
C   C1891     1.0  0.63437  0.81426  0.63437  1.0000 -0.2991007532
C   C1892     1.0  0.61427  0.81830  0.61427  1.0000 0.1193162209
C   C1893     1.0  0.57404  0.81918  0.57404  1.0000 -0.1986419844
C   C1894     1.0  0.87546  0.27414  0.87546  1.0000 -0.1986419844
C   C1895     1.0  0.84065  0.21616  0.84065  1.0000 0.1193162209
C   C1896     1.0  0.82011  0.18574  0.82011  1.0000 -0.2991007532
C   C1897     1.0  0.79597  0.18170  0.79597  1.0000 0.1193162209
C   C1898     1.0  0.75486  0.18082  0.75486  1.0000 -0.1986419844
C   C1899     1.0  0.39868  0.00000  0.12454  1.0000 -0.1986419844
C   C1900     1.0  0.37551  0.00000  0.15935  1.0000 0.1193162209
C   C1901     1.0  0.36563  0.00000  0.17989  1.0000 -0.2991007532
C   C1902     1.0  0.38573  0.00000  0.20403  1.0000 0.1193162209
C   C1903     1.0  0.42596  0.00000  0.24514  1.0000 -0.1986419844
C   C1904     1.0  0.12454  0.00000  0.39868  1.0000 -0.1986419844
C   C1905     1.0  0.15935  0.00000  0.37551  1.0000 0.1193162209
C   C1906     1.0  0.17989  1.00000  0.36563  1.0000 -0.2991007532
C   C1907     1.0  0.20403  0.00000  0.38573  1.0000 0.1193162209
C   C1908     1.0  0.24514  0.00000  0.42596  1.0000 -0.1986419844
C   C1909     1.0  0.12454  0.12454  0.72586  1.0000 -0.1986419844
C   C1910     1.0  0.15935  0.15935  0.78384  1.0000 0.1193162209
C   C1911     1.0  0.17989  0.17989  0.81426  1.0000 -0.2991007532
C   C1912     1.0  0.20403  0.20403  0.81830  1.0000 0.1193162209
C   C1913     1.0  0.24514  0.24514  0.81918  1.0000 -0.1986419844
C   C1914     1.0  0.39868  0.39868  0.27414  1.0000 -0.1986419844
C   C1915     1.0  0.37551  0.37551  0.21616  1.0000 0.1193162209
C   C1916     1.0  0.36563  0.36563  0.18574  1.0000 -0.2991007532
C   C1917     1.0  0.38573  0.38573  0.18170  1.0000 0.1193162209
C   C1918     1.0  0.42596  0.42596  0.18082  1.0000 -0.1986419844
C   C1919     1.0  0.87546  0.60132  0.00000  1.0000 -0.1986419844
C   C1920     1.0  0.84065  0.62449  0.00000  1.0000 0.1193162209
C   C1921     1.0  0.82011  0.63437  0.00000  1.0000 -0.2991007532
C   C1922     1.0  0.79597  0.61427  0.00000  1.0000 0.1193162209
C   C1923     1.0  0.75486  0.57404  0.00000  1.0000 -0.1986419844
C   C1924     1.0  0.60132  0.87546  0.00000  1.0000 -0.1986419844
C   C1925     1.0  0.62449  0.84065  0.00000  1.0000 0.1193162209
C   C1926     1.0  0.63437  0.82011  0.00000  1.0000 -0.2991007532
C   C1927     1.0  0.61427  0.79597  0.00000  1.0000 0.1193162209
C   C1928     1.0  0.57404  0.75486  0.00000  1.0000 -0.1986419844
C   C1929     1.0  0.87546  0.00000  0.60132  1.0000 -0.1986419844
C   C1930     1.0  0.84065  0.00000  0.62449  1.0000 0.1193162209
C   C1931     1.0  0.82011  0.00000  0.63437  1.0000 -0.2991007532
C   C1932     1.0  0.79597  0.00000  0.61427  1.0000 0.1193162209
C   C1933     1.0  0.75486  0.00000  0.57404  1.0000 -0.1986419844
C   C1934     1.0  0.60132  0.00000  0.87546  1.0000 -0.1986419844
C   C1935     1.0  0.62449  0.00000  0.84065  1.0000 0.1193162209
C   C1936     1.0  0.63437  0.00000  0.82011  1.0000 -0.2991007532
C   C1937     1.0  0.61427  0.00000  0.79597  1.0000 0.1193162209
C   C1938     1.0  0.57404  1.00000  0.75486  1.0000 -0.1986419844
C   C1939     1.0  0.39868  0.27414  0.39868  1.0000 -0.1986419844
C   C1940     1.0  0.37551  0.21616  0.37551  1.0000 0.1193162209
C   C1941     1.0  0.36563  0.18574  0.36563  1.0000 -0.2991007532
C   C1942     1.0  0.38573  0.18170  0.38573  1.0000 0.1193162209
C   C1943     1.0  0.42596  0.18082  0.42596  1.0000 -0.1986419844
C   C1944     1.0  0.12454  0.72586  0.12454  1.0000 -0.1986419844
C   C1945     1.0  0.15935  0.78384  0.15935  1.0000 0.1193162209
C   C1946     1.0  0.17989  0.81426  0.17989  1.0000 -0.2991007532
C   C1947     1.0  0.20403  0.81830  0.20403  1.0000 0.1193162209
C   C1948     1.0  0.24514  0.81918  0.24514  1.0000 -0.1986419844
C   C1949     1.0  1.00000  0.87546  0.60132  1.0000 -0.1986419844
C   C1950     1.0  0.00000  0.84065  0.62449  1.0000 0.1193162209
C   C1951     1.0  0.00000  0.82011  0.63437  1.0000 -0.2991007532
C   C1952     1.0  1.00000  0.79597  0.61427  1.0000 0.1193162209
C   C1953     1.0  1.00000  0.75486  0.57404  1.0000 -0.1986419844
C   C1954     1.0  1.00000  0.60132  0.87546  1.0000 -0.1986419844
C   C1955     1.0  1.00000  0.62449  0.84065  1.0000 0.1193162209
C   C1956     1.0  1.00000  0.63437  0.82011  1.0000 -0.2991007532
C   C1957     1.0  1.00000  0.61427  0.79597  1.0000 0.1193162209
C   C1958     1.0  1.00000  0.57404  0.75486  1.0000 -0.1986419844
C   C1959     1.0  0.72586  0.12454  0.12454  1.0000 -0.1986419844
C   C1960     1.0  0.78384  0.15935  0.15935  1.0000 0.1193162209
C   C1961     1.0  0.81426  0.17989  0.17989  1.0000 -0.2991007532
C   C1962     1.0  0.81830  0.20403  0.20403  1.0000 0.1193162209
C   C1963     1.0  0.81918  0.24514  0.24514  1.0000 -0.1986419844
C   C1964     1.0  0.27414  0.39868  0.39868  1.0000 -0.1986419844
C   C1965     1.0  0.21616  0.37551  0.37551  1.0000 0.1193162209
C   C1966     1.0  0.18574  0.36563  0.36563  1.0000 -0.2991007532
C   C1967     1.0  0.18170  0.38573  0.38573  1.0000 0.1193162209
C   C1968     1.0  0.18082  0.42596  0.42596  1.0000 -0.1986419844
O   O1        1.0  0.62717  0.40953  0.82410  1.0000 -0.538753128
O   O2        1.0  0.60227  0.40898  0.84667  1.0000 -0.4803697734
O   O3        1.0  0.79475  0.35194  0.97089  1.0000 -0.5214980999
O   O4        1.0  0.77469  0.31231  0.97100  1.0000 -0.510348601
O   O5        1.0  0.62828  0.49511  0.65685  1.0000 -0.510348601
O   O6        1.0  0.66875  0.51487  0.69728  1.0000 -0.5214980999
O   O7        1.0  0.61606  0.46742  0.81162  1.0000 -0.4803697734
O   O8        1.0  0.59187  0.46650  0.83449  1.0000 -0.5214980999
O   O9        1.0  0.58543  0.80307  0.17590  1.0000 -0.538753128
O   O10       1.0  0.56231  0.75560  0.15333  1.0000 -0.4803697734
O   O11       1.0  0.38105  0.82386  0.02911  1.0000 -0.5214980999
O   O12       1.0  0.34131  0.80369  0.02900  1.0000 -0.510348601
O   O13       1.0  0.83826  0.97143  0.34315  1.0000 -0.510348601
O   O14       1.0  0.81759  0.97147  0.30272  1.0000 -0.5214980999
O   O15       1.0  0.65580  0.80444  0.18838  1.0000 -0.4803697734
O   O16       1.0  0.63201  0.75738  0.16551  1.0000 -0.5214980999
O   O17       1.0  0.41457  0.59047  0.21764  1.0000 -0.538753128
O   O18       1.0  0.43769  0.59102  0.19329  1.0000 -0.4803697734
O   O19       1.0  0.61895  0.64806  0.44281  1.0000 -0.5214980999
O   O20       1.0  0.65869  0.68769  0.46238  1.0000 -0.510348601
O   O21       1.0  0.16174  0.50489  0.13317  1.0000 -0.510348601
O   O22       1.0  0.18241  0.48513  0.15388  1.0000 -0.5214980999
O   O23       1.0  0.34420  0.53258  0.14864  1.0000 -0.4862745541
O   O24       1.0  0.36799  0.53350  0.12537  1.0000 -0.5214980999
O   O25       1.0  0.37283  0.19693  0.78236  1.0000 -0.538753128
O   O26       1.0  0.39773  0.24440  0.80671  1.0000 -0.4803697734
O   O27       1.0  0.20525  0.17614  0.55719  1.0000 -0.5214980999
O   O28       1.0  0.22531  0.19631  0.53762  1.0000 -0.510348601
O   O29       1.0  0.37172  0.02857  0.86683  1.0000 -0.510348601
O   O30       1.0  0.33125  0.02853  0.84612  1.0000 -0.5214980999
O   O31       1.0  0.38394  0.19556  0.85136  1.0000 -0.4803697734
O   O32       1.0  0.40813  0.24262  0.87463  1.0000 -0.5214980999
O   O33       1.0  0.82410  0.62717  0.40953  1.0000 -0.538753128
O   O34       1.0  0.84667  0.60227  0.40898  1.0000 -0.4803697734
O   O35       1.0  0.97089  0.79475  0.35194  1.0000 -0.5214980999
O   O36       1.0  0.97100  0.77469  0.31231  1.0000 -0.510348601
O   O37       1.0  0.65685  0.62828  0.49511  1.0000 -0.510348601
O   O38       1.0  0.69728  0.66875  0.51487  1.0000 -0.5214980999
O   O39       1.0  0.81162  0.61606  0.46742  1.0000 -0.4803697734
O   O40       1.0  0.83449  0.59187  0.46650  1.0000 -0.5214980999
O   O41       1.0  0.17590  0.58543  0.80307  1.0000 -0.538753128
O   O42       1.0  0.15333  0.56231  0.75560  1.0000 -0.4803697734
O   O43       1.0  0.02911  0.38105  0.82386  1.0000 -0.5214980999
O   O44       1.0  0.02900  0.34131  0.80369  1.0000 -0.510348601
O   O45       1.0  0.34315  0.83826  0.97143  1.0000 -0.510348601
O   O46       1.0  0.30272  0.81759  0.97147  1.0000 -0.5214980999
O   O47       1.0  0.18838  0.65580  0.80444  1.0000 -0.4803697734
O   O48       1.0  0.16551  0.63201  0.75738  1.0000 -0.5214980999
O   O49       1.0  0.21764  0.41457  0.59047  1.0000 -0.538753128
O   O50       1.0  0.19329  0.43769  0.59102  1.0000 -0.4803697734
O   O51       1.0  0.44281  0.61895  0.64806  1.0000 -0.5214980999
O   O52       1.0  0.46238  0.65869  0.68769  1.0000 -0.510348601
O   O53       1.0  0.13317  0.16174  0.50489  1.0000 -0.510348601
O   O54       1.0  0.15388  0.18241  0.48513  1.0000 -0.5214980999
O   O55       1.0  0.14864  0.34420  0.53258  1.0000 -0.4803697734
O   O56       1.0  0.12537  0.36799  0.53350  1.0000 -0.5214980999
O   O57       1.0  0.78236  0.37283  0.19693  1.0000 -0.538753128
O   O58       1.0  0.80671  0.39773  0.24440  1.0000 -0.4803697734
O   O59       1.0  0.55719  0.20525  0.17614  1.0000 -0.5214980999
O   O60       1.0  0.53762  0.22531  0.19631  1.0000 -0.510348601
O   O61       1.0  0.86683  0.37172  0.02857  1.0000 -0.510348601
O   O62       1.0  0.84612  0.33125  0.02853  1.0000 -0.5214980999
O   O63       1.0  0.85136  0.38394  0.19556  1.0000 -0.4862745541
O   O64       1.0  0.87463  0.40813  0.24262  1.0000 -0.5214980999
O   O65       1.0  0.40953  0.82410  0.62717  1.0000 -0.538753128
O   O66       1.0  0.40898  0.84667  0.60227  1.0000 -0.4803697734
O   O67       1.0  0.35194  0.97089  0.79475  1.0000 -0.5214980999
O   O68       1.0  0.31231  0.97100  0.77469  1.0000 -0.510348601
O   O69       1.0  0.49511  0.65685  0.62828  1.0000 -0.510348601
O   O70       1.0  0.51487  0.69728  0.66875  1.0000 -0.5214980999
O   O71       1.0  0.46742  0.81162  0.61606  1.0000 -0.4862745541
O   O72       1.0  0.46650  0.83449  0.59187  1.0000 -0.5214980999
O   O73       1.0  0.80307  0.17590  0.58543  1.0000 -0.538753128
O   O74       1.0  0.75560  0.15333  0.56231  1.0000 -0.4803697734
O   O75       1.0  0.82386  0.02911  0.38105  1.0000 -0.5214980999
O   O76       1.0  0.80369  0.02900  0.34131  1.0000 -0.510348601
O   O77       1.0  0.97143  0.34315  0.83826  1.0000 -0.510348601
O   O78       1.0  0.97147  0.30272  0.81759  1.0000 -0.5214980999
O   O79       1.0  0.80444  0.18838  0.65580  1.0000 -0.4862745541
O   O80       1.0  0.75738  0.16551  0.63201  1.0000 -0.5214980999
O   O81       1.0  0.59047  0.21764  0.41457  1.0000 -0.538753128
O   O82       1.0  0.59102  0.19329  0.43769  1.0000 -0.4803697734
O   O83       1.0  0.64806  0.44281  0.61895  1.0000 -0.5214980999
O   O84       1.0  0.68769  0.46238  0.65869  1.0000 -0.510348601
O   O85       1.0  0.50489  0.13317  0.16174  1.0000 -0.510348601
O   O86       1.0  0.48513  0.15388  0.18241  1.0000 -0.5214980999
O   O87       1.0  0.53258  0.14864  0.34420  1.0000 -0.4862745541
O   O88       1.0  0.53350  0.12537  0.36799  1.0000 -0.5214980999
O   O89       1.0  0.19693  0.78236  0.37283  1.0000 -0.538753128
O   O90       1.0  0.24440  0.80671  0.39773  1.0000 -0.4803697734
O   O91       1.0  0.17614  0.55719  0.20525  1.0000 -0.5214980999
O   O92       1.0  0.19631  0.53762  0.22531  1.0000 -0.510348601
O   O93       1.0  0.02857  0.86683  0.37172  1.0000 -0.510348601
O   O94       1.0  0.02853  0.84612  0.33125  1.0000 -0.5214980999
O   O95       1.0  0.19556  0.85136  0.38394  1.0000 -0.4803697734
O   O96       1.0  0.24262  0.87463  0.40813  1.0000 -0.5214980999
O   O97       1.0  0.19693  0.41457  0.82410  1.0000 -0.538753128
O   O98       1.0  0.24440  0.43769  0.84667  1.0000 -0.4803697734
O   O99       1.0  0.17614  0.61895  0.97089  1.0000 -0.5214980999
O   O100      1.0  0.19631  0.65869  0.97100  1.0000 -0.510348601
O   O101      1.0  0.02857  0.16174  0.65685  1.0000 -0.510348601
O   O102      1.0  0.02853  0.18241  0.69728  1.0000 -0.5214980999
O   O103      1.0  0.19556  0.34420  0.81162  1.0000 -0.4862745541
O   O104      1.0  0.24262  0.36799  0.83449  1.0000 -0.5214980999
O   O105      1.0  0.59047  0.37283  0.17590  1.0000 -0.538753128
O   O106      1.0  0.59102  0.39773  0.15333  1.0000 -0.4803697734
O   O107      1.0  0.64806  0.20525  0.02911  1.0000 -0.5214980999
O   O108      1.0  0.68769  0.22531  0.02900  1.0000 -0.510348601
O   O109      1.0  0.50489  0.37172  0.34315  1.0000 -0.510348601
O   O110      1.0  0.48513  0.33125  0.30272  1.0000 -0.5214980999
O   O111      1.0  0.53258  0.38394  0.18838  1.0000 -0.4803697734
O   O112      1.0  0.53350  0.40813  0.16551  1.0000 -0.5214980999
O   O113      1.0  0.80307  0.62717  0.21764  1.0000 -0.538753128
O   O114      1.0  0.75560  0.60227  0.19329  1.0000 -0.4803697734
O   O115      1.0  0.82386  0.79475  0.44281  1.0000 -0.5214980999
O   O116      1.0  0.80369  0.77469  0.46238  1.0000 -0.510348601
O   O117      1.0  0.97143  0.62828  0.13317  1.0000 -0.510348601
O   O118      1.0  0.97147  0.66875  0.15388  1.0000 -0.5214980999
O   O119      1.0  0.80444  0.61606  0.14864  1.0000 -0.4803697734
O   O120      1.0  0.75738  0.59187  0.12537  1.0000 -0.5214980999
O   O121      1.0  0.40953  0.58543  0.78236  1.0000 -0.538753128
O   O122      1.0  0.40898  0.56231  0.80671  1.0000 -0.4803697734
O   O123      1.0  0.35194  0.38105  0.55719  1.0000 -0.5214980999
O   O124      1.0  0.31231  0.34131  0.53762  1.0000 -0.510348601
O   O125      1.0  0.49511  0.83826  0.86683  1.0000 -0.510348601
O   O126      1.0  0.51487  0.81759  0.84612  1.0000 -0.5214980999
O   O127      1.0  0.46742  0.65580  0.85136  1.0000 -0.4803697734
O   O128      1.0  0.46650  0.63201  0.87463  1.0000 -0.5214980999
O   O129      1.0  0.58543  0.78236  0.40953  1.0000 -0.538753128
O   O130      1.0  0.56231  0.80671  0.40898  1.0000 -0.4803697734
O   O131      1.0  0.38105  0.55719  0.35194  1.0000 -0.5214980999
O   O132      1.0  0.34131  0.53762  0.31231  1.0000 -0.510348601
O   O133      1.0  0.83826  0.86683  0.49511  1.0000 -0.510348601
O   O134      1.0  0.81759  0.84612  0.51487  1.0000 -0.5214980999
O   O135      1.0  0.65580  0.85136  0.46742  1.0000 -0.4862745541
O   O136      1.0  0.63201  0.87463  0.46650  1.0000 -0.5214980999
O   O137      1.0  0.62717  0.21764  0.80307  1.0000 -0.538753128
O   O138      1.0  0.60227  0.19329  0.75560  1.0000 -0.4803697734
O   O139      1.0  0.79475  0.44281  0.82386  1.0000 -0.5214980999
O   O140      1.0  0.77469  0.46238  0.80369  1.0000 -0.510348601
O   O141      1.0  0.62828  0.13317  0.97143  1.0000 -0.510348601
O   O142      1.0  0.66875  0.15388  0.97147  1.0000 -0.5214980999
O   O143      1.0  0.61606  0.14864  0.80444  1.0000 -0.4803697734
O   O144      1.0  0.59187  0.12537  0.75738  1.0000 -0.5214980999
O   O145      1.0  0.37283  0.17590  0.59047  1.0000 -0.538753128
O   O146      1.0  0.39773  0.15333  0.59102  1.0000 -0.4803697734
O   O147      1.0  0.20525  0.02911  0.64806  1.0000 -0.5214980999
O   O148      1.0  0.22531  0.02900  0.68769  1.0000 -0.510348601
O   O149      1.0  0.37172  0.34315  0.50489  1.0000 -0.510348601
O   O150      1.0  0.33125  0.30272  0.48513  1.0000 -0.5214980999
O   O151      1.0  0.38394  0.18838  0.53258  1.0000 -0.4803697734
O   O152      1.0  0.40813  0.16551  0.53350  1.0000 -0.5214980999
O   O153      1.0  0.41457  0.82410  0.19693  1.0000 -0.538753128
O   O154      1.0  0.43769  0.84667  0.24440  1.0000 -0.4803697734
O   O155      1.0  0.61895  0.97089  0.17614  1.0000 -0.5214980999
O   O156      1.0  0.65869  0.97100  0.19631  1.0000 -0.510348601
O   O157      1.0  0.16174  0.65685  0.02857  1.0000 -0.510348601
O   O158      1.0  0.18241  0.69728  0.02853  1.0000 -0.5214980999
O   O159      1.0  0.34420  0.81162  0.19556  1.0000 -0.4803697734
O   O160      1.0  0.36799  0.83449  0.24262  1.0000 -0.5214980999
O   O161      1.0  0.21764  0.80307  0.62717  1.0000 -0.538753128
O   O162      1.0  0.19329  0.75560  0.60227  1.0000 -0.4803697734
O   O163      1.0  0.44281  0.82386  0.79475  1.0000 -0.5214980999
O   O164      1.0  0.46238  0.80369  0.77469  1.0000 -0.510348601
O   O165      1.0  0.13317  0.97143  0.62828  1.0000 -0.510348601
O   O166      1.0  0.15388  0.97147  0.66875  1.0000 -0.5214980999
O   O167      1.0  0.14864  0.80444  0.61606  1.0000 -0.4862745541
O   O168      1.0  0.12537  0.75738  0.59187  1.0000 -0.5214980999
O   O169      1.0  0.78236  0.40953  0.58543  1.0000 -0.538753128
O   O170      1.0  0.80671  0.40898  0.56231  1.0000 -0.4803697734
O   O171      1.0  0.55719  0.35194  0.38105  1.0000 -0.5214980999
O   O172      1.0  0.53762  0.31231  0.34131  1.0000 -0.510348601
O   O173      1.0  0.86683  0.49511  0.83826  1.0000 -0.510348601
O   O174      1.0  0.84612  0.51487  0.81759  1.0000 -0.5214980999
O   O175      1.0  0.85136  0.46742  0.65580  1.0000 -0.4803697734
O   O176      1.0  0.87463  0.46650  0.63201  1.0000 -0.5214980999
O   O177      1.0  0.82410  0.19693  0.41457  1.0000 -0.538753128
O   O178      1.0  0.84667  0.24440  0.43769  1.0000 -0.4803697734
O   O179      1.0  0.97089  0.17614  0.61895  1.0000 -0.5214980999
O   O180      1.0  0.97100  0.19631  0.65869  1.0000 -0.510348601
O   O181      1.0  0.65685  0.02857  0.16174  1.0000 -0.510348601
O   O182      1.0  0.69728  0.02853  0.18241  1.0000 -0.5214980999
O   O183      1.0  0.81162  0.19556  0.34420  1.0000 -0.4862745541
O   O184      1.0  0.83449  0.24262  0.36799  1.0000 -0.5214980999
O   O185      1.0  0.17590  0.59047  0.37283  1.0000 -0.538753128
O   O186      1.0  0.15333  0.59102  0.39773  1.0000 -0.4803697734
O   O187      1.0  0.02911  0.64806  0.20525  1.0000 -0.5214980999
O   O188      1.0  0.02900  0.68769  0.22531  1.0000 -0.510348601
O   O189      1.0  0.34315  0.50489  0.37172  1.0000 -0.510348601
O   O190      1.0  0.30272  0.48513  0.33125  1.0000 -0.5214980999
O   O191      1.0  0.18838  0.53258  0.38394  1.0000 -0.4862745541
O   O192      1.0  0.16551  0.53350  0.40813  1.0000 -0.5214980999
O   O193      1.0  0.37283  0.59047  0.17590  1.0000 -0.538753128
O   O194      1.0  0.39773  0.59102  0.15333  1.0000 -0.4803697734
O   O195      1.0  0.20525  0.64806  0.02911  1.0000 -0.5214980999
O   O196      1.0  0.22531  0.68769  0.02900  1.0000 -0.510348601
O   O197      1.0  0.37172  0.50489  0.34315  1.0000 -0.510348601
O   O198      1.0  0.33125  0.48513  0.30272  1.0000 -0.5214980999
O   O199      1.0  0.38394  0.53258  0.18838  1.0000 -0.4803697734
O   O200      1.0  0.40813  0.53350  0.16551  1.0000 -0.5214980999
O   O201      1.0  0.41457  0.19693  0.82410  1.0000 -0.538753128
O   O202      1.0  0.43769  0.24440  0.84667  1.0000 -0.4803697734
O   O203      1.0  0.61895  0.17614  0.97089  1.0000 -0.5214980999
O   O204      1.0  0.65869  0.19631  0.97100  1.0000 -0.510348601
O   O205      1.0  0.16174  0.02857  0.65685  1.0000 -0.510348601
O   O206      1.0  0.18241  0.02853  0.69728  1.0000 -0.5214980999
O   O207      1.0  0.34420  0.19556  0.81162  1.0000 -0.4803697734
O   O208      1.0  0.36799  0.24262  0.83449  1.0000 -0.5214980999
O   O209      1.0  0.58543  0.40953  0.78236  1.0000 -0.538753128
O   O210      1.0  0.56231  0.40898  0.80671  1.0000 -0.4803697734
O   O211      1.0  0.38105  0.35194  0.55719  1.0000 -0.5214980999
O   O212      1.0  0.34131  0.31231  0.53762  1.0000 -0.510348601
O   O213      1.0  0.83826  0.49511  0.86683  1.0000 -0.510348601
O   O214      1.0  0.81759  0.51487  0.84612  1.0000 -0.5214980999
O   O215      1.0  0.65580  0.46742  0.85136  1.0000 -0.4803697734
O   O216      1.0  0.63201  0.46650  0.87463  1.0000 -0.5214980999
O   O217      1.0  0.62717  0.80307  0.21764  1.0000 -0.538753128
O   O218      1.0  0.60227  0.75560  0.19329  1.0000 -0.4803697734
O   O219      1.0  0.79475  0.82386  0.44281  1.0000 -0.5214980999
O   O220      1.0  0.77469  0.80369  0.46238  1.0000 -0.510348601
O   O221      1.0  0.62828  0.97143  0.13317  1.0000 -0.510348601
O   O222      1.0  0.66875  0.97147  0.15388  1.0000 -0.5214980999
O   O223      1.0  0.61606  0.80444  0.14864  1.0000 -0.4803697734
O   O224      1.0  0.59187  0.75738  0.12537  1.0000 -0.5214980999
O   O225      1.0  0.17590  0.37283  0.59047  1.0000 -0.538753128
O   O226      1.0  0.15333  0.39773  0.59102  1.0000 -0.4803697734
O   O227      1.0  0.02911  0.20525  0.64806  1.0000 -0.5214980999
O   O228      1.0  0.02900  0.22531  0.68769  1.0000 -0.510348601
O   O229      1.0  0.34315  0.37172  0.50489  1.0000 -0.510348601
O   O230      1.0  0.30272  0.33125  0.48513  1.0000 -0.5214980999
O   O231      1.0  0.18838  0.38394  0.53258  1.0000 -0.4803697734
O   O232      1.0  0.16551  0.40813  0.53350  1.0000 -0.5214980999
O   O233      1.0  0.82410  0.41457  0.19693  1.0000 -0.538753128
O   O234      1.0  0.84667  0.43769  0.24440  1.0000 -0.4803697734
O   O235      1.0  0.97089  0.61895  0.17614  1.0000 -0.5214980999
O   O236      1.0  0.97100  0.65869  0.19631  1.0000 -0.510348601
O   O237      1.0  0.65685  0.16174  0.02857  1.0000 -0.510348601
O   O238      1.0  0.69728  0.18241  0.02853  1.0000 -0.5214980999
O   O239      1.0  0.81162  0.34420  0.19556  1.0000 -0.4803697734
O   O240      1.0  0.83449  0.36799  0.24262  1.0000 -0.5214980999
O   O241      1.0  0.78236  0.58543  0.40953  1.0000 -0.538753128
O   O242      1.0  0.80671  0.56231  0.40898  1.0000 -0.4803697734
O   O243      1.0  0.55719  0.38105  0.35194  1.0000 -0.5214980999
O   O244      1.0  0.53762  0.34131  0.31231  1.0000 -0.510348601
O   O245      1.0  0.86683  0.83826  0.49511  1.0000 -0.510348601
O   O246      1.0  0.84612  0.81759  0.51487  1.0000 -0.5214980999
O   O247      1.0  0.85136  0.65580  0.46742  1.0000 -0.4803697734
O   O248      1.0  0.87463  0.63201  0.46650  1.0000 -0.5214980999
O   O249      1.0  0.21764  0.62717  0.80307  1.0000 -0.538753128
O   O250      1.0  0.19329  0.60227  0.75560  1.0000 -0.4803697734
O   O251      1.0  0.44281  0.79475  0.82386  1.0000 -0.5214980999
O   O252      1.0  0.46238  0.77469  0.80369  1.0000 -0.510348601
O   O253      1.0  0.13317  0.62828  0.97143  1.0000 -0.510348601
O   O254      1.0  0.15388  0.66875  0.97147  1.0000 -0.5214980999
O   O255      1.0  0.14864  0.61606  0.80444  1.0000 -0.4803697734
O   O256      1.0  0.12537  0.59187  0.75738  1.0000 -0.5214980999
O   O257      1.0  0.59047  0.17590  0.37283  1.0000 -0.538753128
O   O258      1.0  0.59102  0.15333  0.39773  1.0000 -0.4803697734
O   O259      1.0  0.64806  0.02911  0.20525  1.0000 -0.5214980999
O   O260      1.0  0.68769  0.02900  0.22531  1.0000 -0.510348601
O   O261      1.0  0.50489  0.34315  0.37172  1.0000 -0.510348601
O   O262      1.0  0.48513  0.30272  0.33125  1.0000 -0.5214980999
O   O263      1.0  0.53258  0.18838  0.38394  1.0000 -0.4862745541
O   O264      1.0  0.53350  0.16551  0.40813  1.0000 -0.5214980999
O   O265      1.0  0.19693  0.82410  0.41457  1.0000 -0.538753128
O   O266      1.0  0.24440  0.84667  0.43769  1.0000 -0.4803697734
O   O267      1.0  0.17614  0.97089  0.61895  1.0000 -0.5214980999
O   O268      1.0  0.19631  0.97100  0.65869  1.0000 -0.510348601
O   O269      1.0  0.02857  0.65685  0.16174  1.0000 -0.510348601
O   O270      1.0  0.02853  0.69728  0.18241  1.0000 -0.5214980999
O   O271      1.0  0.19556  0.81162  0.34420  1.0000 -0.4803697734
O   O272      1.0  0.24262  0.83449  0.36799  1.0000 -0.5214980999
O   O273      1.0  0.40953  0.78236  0.58543  1.0000 -0.538753128
O   O274      1.0  0.40898  0.80671  0.56231  1.0000 -0.4803697734
O   O275      1.0  0.35194  0.55719  0.38105  1.0000 -0.5214980999
O   O276      1.0  0.31231  0.53762  0.34131  1.0000 -0.510348601
O   O277      1.0  0.49511  0.86683  0.83826  1.0000 -0.510348601
O   O278      1.0  0.51487  0.84612  0.81759  1.0000 -0.5214980999
O   O279      1.0  0.46742  0.85136  0.65580  1.0000 -0.4803697734
O   O280      1.0  0.46650  0.87463  0.63201  1.0000 -0.5214980999
O   O281      1.0  0.80307  0.21764  0.62717  1.0000 -0.538753128
O   O282      1.0  0.75560  0.19329  0.60227  1.0000 -0.4803697734
O   O283      1.0  0.82386  0.44281  0.79475  1.0000 -0.5214980999
O   O284      1.0  0.80369  0.46238  0.77469  1.0000 -0.510348601
O   O285      1.0  0.97143  0.13317  0.62828  1.0000 -0.510348601
O   O286      1.0  0.97147  0.15388  0.66875  1.0000 -0.5214980999
O   O287      1.0  0.80444  0.14864  0.61606  1.0000 -0.4803697734
O   O288      1.0  0.75738  0.12537  0.59187  1.0000 -0.5214980999
O   O289      1.0  0.80307  0.58543  0.17590  1.0000 -0.538753128
O   O290      1.0  0.75560  0.56231  0.15333  1.0000 -0.4803697734
O   O291      1.0  0.82386  0.38105  0.02911  1.0000 -0.5214980999
O   O292      1.0  0.80369  0.34131  0.02900  1.0000 -0.510348601
O   O293      1.0  0.97143  0.83826  0.34315  1.0000 -0.510348601
O   O294      1.0  0.97147  0.81759  0.30272  1.0000 -0.5214980999
O   O295      1.0  0.80444  0.65580  0.18838  1.0000 -0.4803697734
O   O296      1.0  0.75738  0.63201  0.16551  1.0000 -0.5214980999
O   O297      1.0  0.40953  0.62717  0.82410  1.0000 -0.538753128
O   O298      1.0  0.40898  0.60227  0.84667  1.0000 -0.4803697734
O   O299      1.0  0.35194  0.79475  0.97089  1.0000 -0.5214980999
O   O300      1.0  0.31231  0.77469  0.97100  1.0000 -0.510348601
O   O301      1.0  0.49511  0.62828  0.65685  1.0000 -0.510348601
O   O302      1.0  0.51487  0.66875  0.69728  1.0000 -0.5214980999
O   O303      1.0  0.46742  0.61606  0.81162  1.0000 -0.4803697734
O   O304      1.0  0.46650  0.59187  0.83449  1.0000 -0.5214980999
O   O305      1.0  0.19693  0.37283  0.78236  1.0000 -0.538753128
O   O306      1.0  0.24440  0.39773  0.80671  1.0000 -0.4803697734
O   O307      1.0  0.17614  0.20525  0.55719  1.0000 -0.5214980999
O   O308      1.0  0.19631  0.22531  0.53762  1.0000 -0.510348601
O   O309      1.0  0.02857  0.37172  0.86683  1.0000 -0.510348601
O   O310      1.0  0.02853  0.33125  0.84612  1.0000 -0.5214980999
O   O311      1.0  0.19556  0.38394  0.85136  1.0000 -0.4803697734
O   O312      1.0  0.24262  0.40813  0.87463  1.0000 -0.5214980999
O   O313      1.0  0.59047  0.41457  0.21764  1.0000 -0.538753128
O   O314      1.0  0.59102  0.43769  0.19329  1.0000 -0.4803697734
O   O315      1.0  0.64806  0.61895  0.44281  1.0000 -0.5214980999
O   O316      1.0  0.68769  0.65869  0.46238  1.0000 -0.510348601
O   O317      1.0  0.50489  0.16174  0.13317  1.0000 -0.510348601
O   O318      1.0  0.48513  0.18241  0.15388  1.0000 -0.5214980999
O   O319      1.0  0.53258  0.34420  0.14864  1.0000 -0.4803697734
O   O320      1.0  0.53350  0.36799  0.12537  1.0000 -0.5214980999
O   O321      1.0  0.41457  0.21764  0.59047  1.0000 -0.538753128
O   O322      1.0  0.43769  0.19329  0.59102  1.0000 -0.4803697734
O   O323      1.0  0.61895  0.44281  0.64806  1.0000 -0.5214980999
O   O324      1.0  0.65869  0.46238  0.68769  1.0000 -0.510348601
O   O325      1.0  0.16174  0.13317  0.50489  1.0000 -0.510348601
O   O326      1.0  0.18241  0.15388  0.48513  1.0000 -0.5214980999
O   O327      1.0  0.34420  0.14864  0.53258  1.0000 -0.4803697734
O   O328      1.0  0.36799  0.12537  0.53350  1.0000 -0.5214980999
O   O329      1.0  0.37283  0.78236  0.19693  1.0000 -0.538753128
O   O330      1.0  0.39773  0.80671  0.24440  1.0000 -0.4803697734
O   O331      1.0  0.20525  0.55719  0.17614  1.0000 -0.5214980999
O   O332      1.0  0.22531  0.53762  0.19631  1.0000 -0.510348601
O   O333      1.0  0.37172  0.86683  0.02857  1.0000 -0.510348601
O   O334      1.0  0.33125  0.84612  0.02853  1.0000 -0.5214980999
O   O335      1.0  0.38394  0.85136  0.19556  1.0000 -0.4803697734
O   O336      1.0  0.40813  0.87463  0.24262  1.0000 -0.5214980999
O   O337      1.0  0.62717  0.82410  0.40953  1.0000 -0.538753128
O   O338      1.0  0.60227  0.84667  0.40898  1.0000 -0.4803697734
O   O339      1.0  0.79475  0.97089  0.35194  1.0000 -0.5214980999
O   O340      1.0  0.77469  0.97100  0.31231  1.0000 -0.510348601
O   O341      1.0  0.62828  0.65685  0.49511  1.0000 -0.510348601
O   O342      1.0  0.66875  0.69728  0.51487  1.0000 -0.5214980999
O   O343      1.0  0.61606  0.81162  0.46742  1.0000 -0.4862745541
O   O344      1.0  0.59187  0.83449  0.46650  1.0000 -0.5214980999
O   O345      1.0  0.58543  0.17590  0.80307  1.0000 -0.538753128
O   O346      1.0  0.56231  0.15333  0.75560  1.0000 -0.4803697734
O   O347      1.0  0.38105  0.02911  0.82386  1.0000 -0.5214980999
O   O348      1.0  0.34131  0.02900  0.80369  1.0000 -0.510348601
O   O349      1.0  0.83826  0.34315  0.97143  1.0000 -0.510348601
O   O350      1.0  0.81759  0.30272  0.97147  1.0000 -0.5214980999
O   O351      1.0  0.65580  0.18838  0.80444  1.0000 -0.4803697734
O   O352      1.0  0.63201  0.16551  0.75738  1.0000 -0.5214980999
O   O353      1.0  0.78236  0.19693  0.37283  1.0000 -0.538753128
O   O354      1.0  0.80671  0.24440  0.39773  1.0000 -0.4803697734
O   O355      1.0  0.55719  0.17614  0.20525  1.0000 -0.5214980999
O   O356      1.0  0.53762  0.19631  0.22531  1.0000 -0.510348601
O   O357      1.0  0.86683  0.02857  0.37172  1.0000 -0.510348601
O   O358      1.0  0.84612  0.02853  0.33125  1.0000 -0.5214980999
O   O359      1.0  0.85136  0.19556  0.38394  1.0000 -0.4803697734
O   O360      1.0  0.87463  0.24262  0.40813  1.0000 -0.5214980999
O   O361      1.0  0.21764  0.59047  0.41457  1.0000 -0.538753128
O   O362      1.0  0.19329  0.59102  0.43769  1.0000 -0.4803697734
O   O363      1.0  0.44281  0.64806  0.61895  1.0000 -0.5214980999
O   O364      1.0  0.46238  0.68769  0.65869  1.0000 -0.510348601
O   O365      1.0  0.13317  0.50489  0.16174  1.0000 -0.510348601
O   O366      1.0  0.15388  0.48513  0.18241  1.0000 -0.5214980999
O   O367      1.0  0.14864  0.53258  0.34420  1.0000 -0.4862745541
O   O368      1.0  0.12537  0.53350  0.36799  1.0000 -0.5214980999
O   O369      1.0  0.17590  0.80307  0.58543  1.0000 -0.538753128
O   O370      1.0  0.15333  0.75560  0.56231  1.0000 -0.4803697734
O   O371      1.0  0.02911  0.82386  0.38105  1.0000 -0.5214980999
O   O372      1.0  0.02900  0.80369  0.34131  1.0000 -0.510348601
O   O373      1.0  0.34315  0.97143  0.83826  1.0000 -0.510348601
O   O374      1.0  0.30272  0.97147  0.81759  1.0000 -0.5214980999
O   O375      1.0  0.18838  0.80444  0.65580  1.0000 -0.4803697734
O   O376      1.0  0.16551  0.75738  0.63201  1.0000 -0.5214980999
O   O377      1.0  0.82410  0.40953  0.62717  1.0000 -0.538753128
O   O378      1.0  0.84667  0.40898  0.60227  1.0000 -0.4803697734
O   O379      1.0  0.97089  0.35194  0.79475  1.0000 -0.5214980999
O   O380      1.0  0.97100  0.31231  0.77469  1.0000 -0.510348601
O   O381      1.0  0.65685  0.49511  0.62828  1.0000 -0.510348601
O   O382      1.0  0.69728  0.51487  0.66875  1.0000 -0.5214980999
O   O383      1.0  0.81162  0.46742  0.61606  1.0000 -0.4862745541
O   O384      1.0  0.83449  0.46650  0.59187  1.0000 -0.5214980999
