# DDEC6 charges by PACMAN v1.1 (https://github.com/mtap-research/PACMAN-charge/)
data_2010[Cd][nan]3[ASR]11
_chemical_formula_sum              "Cd8 H200 C280 N56 O40"
_cell_length_a       18.1535
_cell_length_b       18.3033
_cell_length_c       25.2354
_cell_angle_alpha    90
_cell_angle_beta     90
_cell_angle_gamma    90

_symmetry_space_group_name_H-M    "P 1"
_symmetry_Int_Tables_number       1

loop_
  _symmetry_equiv_pos_as_xyz
  'x, y, z'

loop_
  _atom_site_type_symbol
  _atom_site_label
  _atom_site_symmetry_multiplicity
  _atom_site_fract_x
  _atom_site_fract_y
  _atom_site_fract_z
  _atom_site_occupancy
  _atom_site_charge
Cd  Cd1       1.0  0.78542  0.78150  0.42948  1.0000 0.8097359553
Cd  Cd2       1.0  0.71458  0.21850  0.92948  1.0000 0.8097359553
Cd  Cd3       1.0  0.28542  0.71850  0.57052  1.0000 0.8097359553
Cd  Cd4       1.0  0.21458  0.28150  0.07052  1.0000 0.8097359553
Cd  Cd5       1.0  0.51132  0.50292  0.31175  1.0000 0.8156796113
Cd  Cd6       1.0  0.98868  0.49708  0.81175  1.0000 0.8156796113
Cd  Cd7       1.0  0.01132  0.99708  0.68825  1.0000 0.8156796113
Cd  Cd8       1.0  0.48868  0.00292  0.18825  1.0000 0.8156796113
H   H1        1.0  0.63310  0.68300  0.41870  1.0000 0.1292936836
H   H2        1.0  0.86690  0.31700  0.91870  1.0000 0.1292936836
H   H3        1.0  0.13310  0.81700  0.58130  1.0000 0.1292936836
H   H4        1.0  0.36690  0.18300  0.08130  1.0000 0.1292936836
H   H5        1.0  0.60680  0.55620  0.45410  1.0000 0.1292936836
H   H6        1.0  0.89320  0.44380  0.95410  1.0000 0.1292936836
H   H7        1.0  0.10680  0.94380  0.54590  1.0000 0.1292936836
H   H8        1.0  0.39320  0.05620  0.04590  1.0000 0.1292936836
H   H9        1.0  0.81390  0.61100  0.47710  1.0000 0.1214447144
H   H10       1.0  0.68610  0.38900  0.97710  1.0000 0.1214447144
H   H11       1.0  0.31390  0.88900  0.52290  1.0000 0.1214447144
H   H12       1.0  0.18610  0.11100  0.02290  1.0000 0.1214447144
H   H13       1.0  0.87970  0.18730  0.86870  1.0000 0.1292936836
H   H14       1.0  0.62030  0.81270  0.36870  1.0000 0.1292936836
H   H15       1.0  0.37970  0.31270  0.13130  1.0000 0.1292936836
H   H16       1.0  0.12030  0.68730  0.63130  1.0000 0.1292936836
H   H17       1.0  0.91500  0.20140  0.77530  1.0000 0.1376762665
H   H18       1.0  0.58500  0.79860  0.27530  1.0000 0.1376762665
H   H19       1.0  0.41500  0.29860  0.22470  1.0000 0.1376762665
H   H20       1.0  0.08500  0.70140  0.72470  1.0000 0.1376762665
H   H21       1.0  0.69940  0.24020  0.79510  1.0000 0.111906001
H   H22       1.0  0.80060  0.75980  0.29510  1.0000 0.111906001
H   H23       1.0  0.19940  0.25980  0.20490  1.0000 0.111906001
H   H24       1.0  0.30060  0.74020  0.70490  1.0000 0.111906001
H   H25       1.0  0.86640  0.90960  0.34070  1.0000 0.1214447144
H   H26       1.0  0.63360  0.09040  0.84070  1.0000 0.1214447144
H   H27       1.0  0.36640  0.59040  0.65930  1.0000 0.1214447144
H   H28       1.0  0.13360  0.40960  0.15930  1.0000 0.1214447144
H   H29       1.0  0.85500  0.04320  0.35220  1.0000 0.1214447144
H   H30       1.0  0.64500  0.95680  0.85220  1.0000 0.1214447144
H   H31       1.0  0.35500  0.45680  0.64780  1.0000 0.1214447144
H   H32       1.0  0.14500  0.54320  0.14780  1.0000 0.1214447144
H   H33       1.0  0.79200  0.94800  0.48210  1.0000 0.1214447144
H   H34       1.0  0.70800  0.05200  0.98210  1.0000 0.1214447144
H   H35       1.0  0.29200  0.55200  0.51790  1.0000 0.1292936836
H   H36       1.0  0.20800  0.44800  0.01790  1.0000 0.1292936836
H   H37       1.0  0.00260  0.67890  0.33110  1.0000 0.1494412087
H   H38       1.0  0.49740  0.32110  0.83110  1.0000 0.1494412087
H   H39       1.0  0.50260  0.82110  0.66890  1.0000 0.1494412087
H   H40       1.0  0.99740  0.17890  0.16890  1.0000 0.1494412087
H   H41       1.0  0.20660  0.66390  0.38970  1.0000 0.1376762665
H   H42       1.0  0.29340  0.33610  0.88970  1.0000 0.1292936836
H   H43       1.0  0.70660  0.83610  0.61030  1.0000 0.1376762665
H   H44       1.0  0.79340  0.16390  0.11030  1.0000 0.1376762665
H   H45       1.0  0.03810  0.71260  0.48550  1.0000 0.1214447144
H   H46       1.0  0.46190  0.28740  0.98550  1.0000 0.1214447144
H   H47       1.0  0.53810  0.78740  0.51450  1.0000 0.1214447144
H   H48       1.0  0.96190  0.21260  0.01450  1.0000 0.1214447144
H   H49       1.0  0.65780  0.43290  0.44320  1.0000 0.111906001
H   H50       1.0  0.84220  0.56710  0.94320  1.0000 0.111906001
H   H51       1.0  0.15780  0.06710  0.55680  1.0000 0.111906001
H   H52       1.0  0.34220  0.93290  0.05680  1.0000 0.111906001
H   H53       1.0  0.68340  0.31610  0.47440  1.0000 0.1214447144
H   H54       1.0  0.81660  0.68390  0.97440  1.0000 0.1214447144
H   H55       1.0  0.18340  0.18390  0.52560  1.0000 0.1214447144
H   H56       1.0  0.31660  0.81610  0.02560  1.0000 0.1214447144
H   H57       1.0  0.84150  0.39200  0.56960  1.0000 0.1292936836
H   H58       1.0  0.65850  0.60800  0.06960  1.0000 0.1292936836
H   H59       1.0  0.34150  0.10800  0.43040  1.0000 0.1292936836
H   H60       1.0  0.15850  0.89200  0.93040  1.0000 0.1292936836
H   H61       1.0  0.81100  0.51320  0.54330  1.0000 0.1376762665
H   H62       1.0  0.68900  0.48680  0.04330  1.0000 0.1376762665
H   H63       1.0  0.31100  0.98680  0.45670  1.0000 0.1376762665
H   H64       1.0  0.18900  0.01320  0.95670  1.0000 0.1376762665
H   H65       1.0  0.86370  0.18780  0.59570  1.0000 0.111906001
H   H66       1.0  0.63630  0.81220  0.09570  1.0000 0.111906001
H   H67       1.0  0.36370  0.31220  0.40430  1.0000 0.111906001
H   H68       1.0  0.13630  0.68780  0.90430  1.0000 0.111906001
H   H69       1.0  0.87270  0.16350  0.68440  1.0000 0.1214447144
H   H70       1.0  0.62730  0.83650  0.18440  1.0000 0.1214447144
H   H71       1.0  0.37270  0.33650  0.31560  1.0000 0.1214447144
H   H72       1.0  0.12730  0.66350  0.81560  1.0000 0.1214447144
H   H73       1.0  0.71700  0.31490  0.71440  1.0000 0.1292936836
H   H74       1.0  0.78300  0.68510  0.21440  1.0000 0.1292936836
H   H75       1.0  0.21700  0.18510  0.28560  1.0000 0.1292936836
H   H76       1.0  0.28300  0.81490  0.78560  1.0000 0.1292936836
H   H77       1.0  0.69910  0.32770  0.62110  1.0000 0.1292936836
H   H78       1.0  0.80090  0.67230  0.12110  1.0000 0.1292936836
H   H79       1.0  0.19910  0.17230  0.37890  1.0000 0.1292936836
H   H80       1.0  0.30090  0.82770  0.87890  1.0000 0.1292936836
H   H81       1.0  0.84510  0.25660  0.45420  1.0000 0.1214447144
H   H82       1.0  0.65490  0.74340  0.95420  1.0000 0.1214447144
H   H83       1.0  0.34510  0.24340  0.54580  1.0000 0.1214447144
H   H84       1.0  0.15490  0.75660  0.04580  1.0000 0.1214447144
H   H85       1.0  0.86710  0.15130  0.40870  1.0000 0.1214447144
H   H86       1.0  0.63290  0.84870  0.90870  1.0000 0.1214447144
H   H87       1.0  0.36710  0.34870  0.59130  1.0000 0.1214447144
H   H88       1.0  0.13290  0.65130  0.09130  1.0000 0.1214447144
H   H89       1.0  0.72770  0.04200  0.50370  1.0000 0.1214447144
H   H90       1.0  0.77230  0.95800  0.00370  1.0000 0.1214447144
H   H91       1.0  0.22770  0.45800  0.49630  1.0000 0.1214447144
H   H92       1.0  0.27230  0.54200  0.99630  1.0000 0.1214447144
H   H93       1.0  0.72480  0.14230  0.55910  1.0000 0.1214447144
H   H94       1.0  0.77520  0.85770  0.05910  1.0000 0.1214447144
H   H95       1.0  0.22480  0.35770  0.44090  1.0000 0.1214447144
H   H96       1.0  0.27520  0.64230  0.94090  1.0000 0.1214447144
H   H97       1.0  0.18670  0.64070  0.30390  1.0000 0.3609735832
H   H98       1.0  0.31330  0.35930  0.80390  1.0000 0.3609735832
H   H99       1.0  0.68670  0.85930  0.69610  1.0000 0.3609735832
H   H100      1.0  0.81330  0.14070  0.19610  1.0000 0.3609735832
H   H101      1.0  0.67520  0.43660  0.34740  1.0000 0.111906001
H   H102      1.0  0.82480  0.56340  0.84740  1.0000 0.111906001
H   H103      1.0  0.17520  0.06340  0.65260  1.0000 0.111906001
H   H104      1.0  0.32480  0.93660  0.15260  1.0000 0.111906001
H   H105      1.0  0.64430  0.63510  0.29410  1.0000 0.1214447144
H   H106      1.0  0.85570  0.36490  0.79410  1.0000 0.1214447144
H   H107      1.0  0.14430  0.86490  0.70590  1.0000 0.1214447144
H   H108      1.0  0.35570  0.13510  0.20590  1.0000 0.1214447144
H   H109      1.0  0.77820  0.62300  0.31740  1.0000 0.1214447144
H   H110      1.0  0.72180  0.37700  0.81740  1.0000 0.1214447144
H   H111      1.0  0.27820  0.87700  0.68260  1.0000 0.1214447144
H   H112      1.0  0.22180  0.12300  0.18260  1.0000 0.1214447144
H   H113      1.0  0.97050  0.98430  0.55820  1.0000 0.1292936836
H   H114      1.0  0.52950  0.01570  0.05820  1.0000 0.1292936836
H   H115      1.0  0.47050  0.51570  0.44180  1.0000 0.1292936836
H   H116      1.0  0.02950  0.48430  0.94180  1.0000 0.1292936836
H   H117      1.0  0.96920  0.07470  0.48380  1.0000 0.1214447144
H   H118      1.0  0.53080  0.92530  0.98380  1.0000 0.1214447144
H   H119      1.0  0.46920  0.42530  0.51620  1.0000 0.1214447144
H   H120      1.0  0.03080  0.57470  0.01620  1.0000 0.1214447144
H   H121      1.0  0.03100  0.16770  0.61870  1.0000 0.1214447144
H   H122      1.0  0.46900  0.83230  0.11870  1.0000 0.1214447144
H   H123      1.0  0.53100  0.33230  0.38130  1.0000 0.1214447144
H   H124      1.0  0.96900  0.66770  0.88130  1.0000 0.1214447144
H   H125      1.0  0.34480  0.48290  0.36370  1.0000 0.1214447144
H   H126      1.0  0.15520  0.51710  0.86370  1.0000 0.1214447144
H   H127      1.0  0.84480  0.01710  0.63630  1.0000 0.1214447144
H   H128      1.0  0.65520  0.98290  0.13630  1.0000 0.1214447144
H   H129      1.0  0.38040  0.47190  0.21110  1.0000 0.1376762665
H   H130      1.0  0.11960  0.52810  0.71110  1.0000 0.1376762665
H   H131      1.0  0.88040  0.02810  0.78890  1.0000 0.1376762665
H   H132      1.0  0.61960  0.97190  0.28890  1.0000 0.1376762665
H   H133      1.0  0.24690  0.45660  0.22450  1.0000 0.1214447144
H   H134      1.0  0.25310  0.54340  0.72450  1.0000 0.1214447144
H   H135      1.0  0.74690  0.04340  0.77550  1.0000 0.1214447144
H   H136      1.0  0.75310  0.95660  0.27550  1.0000 0.1214447144
H   H137      1.0  0.46120  0.75960  0.26950  1.0000 0.1214447144
H   H138      1.0  0.03880  0.24040  0.76950  1.0000 0.1214447144
H   H139      1.0  0.96120  0.74040  0.73050  1.0000 0.1214447144
H   H140      1.0  0.53880  0.25960  0.23050  1.0000 0.1214447144
H   H141      1.0  0.42780  0.92450  0.37240  1.0000 0.1376762665
H   H142      1.0  0.07220  0.07550  0.87240  1.0000 0.1376762665
H   H143      1.0  0.92780  0.57550  0.62760  1.0000 0.1376762665
H   H144      1.0  0.57220  0.42450  0.12760  1.0000 0.1376762665
H   H145      1.0  0.44290  0.71760  0.42360  1.0000 0.1376762665
H   H146      1.0  0.05710  0.28240  0.92360  1.0000 0.1376762665
H   H147      1.0  0.94290  0.78240  0.57640  1.0000 0.1376762665
H   H148      1.0  0.55710  0.21760  0.07640  1.0000 0.1376762665
H   H149      1.0  0.87080  0.58210  0.36440  1.0000 0.1292936836
H   H150      1.0  0.62920  0.41790  0.86440  1.0000 0.1292936836
H   H151      1.0  0.37080  0.91790  0.63560  1.0000 0.1292936836
H   H152      1.0  0.12920  0.08210  0.13560  1.0000 0.1292936836
H   H153      1.0  0.97860  0.53690  0.39780  1.0000 0.1292936836
H   H154      1.0  0.52140  0.46310  0.89780  1.0000 0.1292936836
H   H155      1.0  0.47860  0.96310  0.60220  1.0000 0.1292936836
H   H156      1.0  0.02140  0.03690  0.10220  1.0000 0.1292936836
H   H157      1.0  0.89320  0.33710  0.39880  1.0000 0.111906001
H   H158      1.0  0.60680  0.66290  0.89880  1.0000 0.111906001
H   H159      1.0  0.39320  0.16290  0.60120  1.0000 0.111906001
H   H160      1.0  0.10680  0.83710  0.10120  1.0000 0.111906001
H   H161      1.0  0.78640  0.38050  0.36140  1.0000 0.1214447144
H   H162      1.0  0.71360  0.61950  0.86140  1.0000 0.1214447144
H   H163      1.0  0.28640  0.11950  0.63860  1.0000 0.1214447144
H   H164      1.0  0.21360  0.88050  0.13860  1.0000 0.1214447144
H   H165      1.0  0.05270  0.36230  0.32930  1.0000 0.1214447144
H   H166      1.0  0.44730  0.63770  0.82930  1.0000 0.1214447144
H   H167      1.0  0.55270  0.13770  0.67070  1.0000 0.1214447144
H   H168      1.0  0.94730  0.86230  0.17070  1.0000 0.1214447144
H   H169      1.0  0.15760  0.38890  0.27620  1.0000 0.1214447144
H   H170      1.0  0.34240  0.61110  0.77620  1.0000 0.1214447144
H   H171      1.0  0.65760  0.11110  0.72380  1.0000 0.1214447144
H   H172      1.0  0.84240  0.88890  0.22380  1.0000 0.1214447144
H   H173      1.0  0.23130  0.51430  0.39760  1.0000 0.1292936836
H   H174      1.0  0.26870  0.48570  0.89760  1.0000 0.1292936836
H   H175      1.0  0.73130  0.98570  0.60240  1.0000 0.1292936836
H   H176      1.0  0.76870  0.01430  0.10240  1.0000 0.1292936836
H   H177      1.0  0.12220  0.49250  0.44270  1.0000 0.1292936836
H   H178      1.0  0.37780  0.50750  0.94270  1.0000 0.1292936836
H   H179      1.0  0.62220  0.00750  0.55730  1.0000 0.1292936836
H   H180      1.0  0.87780  0.99250  0.05730  1.0000 0.1292936836
H   H181      1.0  0.96760  0.38470  0.51300  1.0000 0.1292936836
H   H182      1.0  0.53240  0.61530  0.01300  1.0000 0.1292936836
H   H183      1.0  0.46760  0.11530  0.48700  1.0000 0.1292936836
H   H184      1.0  0.03240  0.88470  0.98700  1.0000 0.1292936836
H   H185      1.0  0.96640  0.28360  0.57240  1.0000 0.1214447144
H   H186      1.0  0.53360  0.71640  0.07240  1.0000 0.1214447144
H   H187      1.0  0.46640  0.21640  0.42760  1.0000 0.1214447144
H   H188      1.0  0.03360  0.78360  0.92760  1.0000 0.1214447144
H   H189      1.0  0.06460  0.17010  0.45290  1.0000 0.1292936836
H   H190      1.0  0.43540  0.82990  0.95290  1.0000 0.1292936836
H   H191      1.0  0.56460  0.32990  0.54710  1.0000 0.1292936836
H   H192      1.0  0.93540  0.67010  0.04710  1.0000 0.1292936836
H   H193      1.0  0.06420  0.27310  0.39940  1.0000 0.1214447144
H   H194      1.0  0.43580  0.72690  0.89940  1.0000 0.1214447144
H   H195      1.0  0.56420  0.22690  0.60060  1.0000 0.1214447144
H   H196      1.0  0.93580  0.77310  0.10060  1.0000 0.1214447144
H   H197      1.0  0.41870  0.81530  0.48120  1.0000 0.350349208
H   H198      1.0  0.08130  0.18470  0.98120  1.0000 0.350349208
H   H199      1.0  0.91870  0.68470  0.51880  1.0000 0.350349208
H   H200      1.0  0.58130  0.31530  0.01880  1.0000 0.350349208
C   C1        1.0  0.66630  0.65240  0.43580  1.0000 0.0328952117
C   C2        1.0  0.83370  0.34760  0.93580  1.0000 0.0328952117
C   C3        1.0  0.16630  0.84760  0.56420  1.0000 0.0328952117
C   C4        1.0  0.33370  0.15240  0.06420  1.0000 0.0328952117
C   C5        1.0  0.65180  0.58050  0.45370  1.0000 -0.1030525898
C   C6        1.0  0.84820  0.41950  0.95370  1.0000 -0.1030525898
C   C7        1.0  0.15180  0.91950  0.54630  1.0000 -0.1030525898
C   C8        1.0  0.34820  0.08050  0.04630  1.0000 -0.1030525898
C   C9        1.0  0.76480  0.61200  0.46659  1.0000 0.1214447144
C   C10       1.0  0.73520  0.38800  0.96659  1.0000 0.1214447144
C   C11       1.0  0.26480  0.88800  0.53341  1.0000 0.1214447144
C   C12       1.0  0.23520  0.11200  0.03341  1.0000 0.1214447144
C   C13       1.0  0.84760  0.20020  0.84151  1.0000 -0.0095252801
C   C14       1.0  0.65240  0.79980  0.34151  1.0000 -0.0095252801
C   C15       1.0  0.34760  0.29980  0.15849  1.0000 -0.0095252801
C   C16       1.0  0.15240  0.70020  0.65849  1.0000 -0.0095252801
C   C17       1.0  0.86840  0.20730  0.79000  1.0000 -0.1334560796
C   C18       1.0  0.63160  0.79270  0.29000  1.0000 -0.1334560796
C   C19       1.0  0.36840  0.29270  0.21000  1.0000 -0.1334560796
C   C20       1.0  0.13160  0.70730  0.71000  1.0000 -0.1334560796
C   C21       1.0  0.74860  0.22890  0.80156  1.0000 0.0591242729
C   C22       1.0  0.75140  0.77110  0.30156  1.0000 0.0591242729
C   C23       1.0  0.24860  0.27110  0.19844  1.0000 0.0591242729
C   C24       1.0  0.25140  0.72890  0.69844  1.0000 0.0591242729
C   C25       1.0  0.84780  0.93250  0.37070  1.0000 -0.0284990779
C   C26       1.0  0.65220  0.06750  0.87070  1.0000 -0.0284990779
C   C27       1.0  0.34780  0.56750  0.62930  1.0000 -0.0284990779
C   C28       1.0  0.15220  0.43250  0.12930  1.0000 -0.0284990779
C   C29       1.0  0.84290  0.00760  0.37703  1.0000 -0.1030525898
C   C30       1.0  0.65710  0.99240  0.87703  1.0000 -0.1030525898
C   C31       1.0  0.34290  0.49240  0.62297  1.0000 -0.1030525898
C   C32       1.0  0.15710  0.50760  0.12297  1.0000 -0.1030525898
C   C33       1.0  0.80740  0.95410  0.44725  1.0000 0.0842745394
C   C34       1.0  0.69260  0.04590  0.94725  1.0000 0.0842745394
C   C35       1.0  0.30740  0.54590  0.55275  1.0000 0.0842745394
C   C36       1.0  0.19260  0.45410  0.05275  1.0000 0.0842745394
C   C37       1.0  0.92970  0.72630  0.41528  1.0000 0.5322400644
C   C38       1.0  0.57030  0.27370  0.91528  1.0000 0.5322400644
C   C39       1.0  0.42970  0.77370  0.58472  1.0000 0.5322400644
C   C40       1.0  0.07030  0.22630  0.08472  1.0000 0.5322400644
C   C41       1.0  0.00840  0.70510  0.40847  1.0000 -0.0095252801
C   C42       1.0  0.49160  0.29490  0.90847  1.0000 -0.0095252801
C   C43       1.0  0.50840  0.79490  0.59153  1.0000 -0.0095252801
C   C44       1.0  0.99160  0.20510  0.09153  1.0000 -0.0095252801
C   C45       1.0  0.03450  0.68230  0.35979  1.0000 -0.1893029675
C   C46       1.0  0.46550  0.31770  0.85979  1.0000 -0.1893029675
C   C47       1.0  0.53450  0.81770  0.64021  1.0000 -0.1893029675
C   C48       1.0  0.96550  0.18230  0.14021  1.0000 -0.1893029675
C   C49       1.0  0.10500  0.66540  0.35395  1.0000 0.2672184423
C   C50       1.0  0.39500  0.33460  0.85395  1.0000 0.2672184423
C   C51       1.0  0.60500  0.83460  0.64605  1.0000 0.2672184423
C   C52       1.0  0.89500  0.16540  0.14605  1.0000 0.2672184423
C   C53       1.0  0.15650  0.67040  0.39568  1.0000 -0.2381670013
C   C54       1.0  0.34350  0.32960  0.89568  1.0000 -0.2381670013
C   C55       1.0  0.65650  0.82960  0.60432  1.0000 -0.2381670013
C   C56       1.0  0.84350  0.17040  0.10432  1.0000 -0.2381670013
C   C57       1.0  0.13000  0.68500  0.44524  1.0000 0.0095933452
C   C58       1.0  0.37000  0.31500  0.94524  1.0000 0.0095933452
C   C59       1.0  0.63000  0.81500  0.55476  1.0000 0.0095933452
C   C60       1.0  0.87000  0.18500  0.05476  1.0000 0.0095933452
C   C61       1.0  0.05600  0.70250  0.45180  1.0000 -0.150901624
C   C62       1.0  0.44400  0.29750  0.95180  1.0000 -0.150901624
C   C63       1.0  0.55600  0.79750  0.54820  1.0000 -0.150901624
C   C64       1.0  0.94400  0.20250  0.04820  1.0000 -0.150901624
C   C65       1.0  0.18110  0.68230  0.49183  1.0000 0.5322400644
C   C66       1.0  0.31890  0.31770  0.99183  1.0000 0.5322400644
C   C67       1.0  0.68110  0.81770  0.50817  1.0000 0.5322400644
C   C68       1.0  0.81890  0.18230  0.00817  1.0000 0.5322400644
C   C69       1.0  0.73330  0.48180  0.48857  1.0000 0.1494412087
C   C70       1.0  0.76670  0.51820  0.98857  1.0000 0.1494412087
C   C71       1.0  0.23330  0.01820  0.51143  1.0000 0.1494412087
C   C72       1.0  0.26670  0.98180  0.01143  1.0000 0.1494412087
C   C73       1.0  0.69400  0.42540  0.46870  1.0000 -0.1815556491
C   C74       1.0  0.80600  0.57460  0.96870  1.0000 -0.1815556491
C   C75       1.0  0.19400  0.07460  0.53130  1.0000 -0.1815556491
C   C76       1.0  0.30600  0.92540  0.03130  1.0000 -0.1815556491
C   C77       1.0  0.70950  0.35590  0.48762  1.0000 -0.1815556491
C   C78       1.0  0.79050  0.64410  0.98762  1.0000 -0.1815556491
C   C79       1.0  0.20950  0.14410  0.51238  1.0000 -0.1815556491
C   C80       1.0  0.29050  0.85590  0.01238  1.0000 -0.1815556491
C   C81       1.0  0.76260  0.34470  0.52535  1.0000 0.1494412087
C   C82       1.0  0.73740  0.65530  0.02535  1.0000 0.1494412087
C   C83       1.0  0.26260  0.15530  0.47465  1.0000 0.1494412087
C   C84       1.0  0.23740  0.84470  0.97465  1.0000 0.1494412087
C   C85       1.0  0.80380  0.40080  0.54552  1.0000 -0.1815556491
C   C86       1.0  0.69620  0.59920  0.04552  1.0000 -0.1815556491
C   C87       1.0  0.30380  0.09920  0.45448  1.0000 -0.1815556491
C   C88       1.0  0.19620  0.90080  0.95448  1.0000 -0.1815556491
C   C89       1.0  0.78720  0.47310  0.52860  1.0000 -0.1815556491
C   C90       1.0  0.71280  0.52690  0.02860  1.0000 -0.1815556491
C   C91       1.0  0.28720  0.02690  0.47140  1.0000 -0.1815556491
C   C92       1.0  0.21280  0.97310  0.97140  1.0000 -0.1815556491
C   C93       1.0  0.78330  0.26150  0.59950  1.0000 0.1682733449
C   C94       1.0  0.71670  0.73850  0.09950  1.0000 0.1682733449
C   C95       1.0  0.28330  0.23850  0.40050  1.0000 0.1682733449
C   C96       1.0  0.21670  0.76150  0.90050  1.0000 0.1682733449
C   C97       1.0  0.83290  0.21240  0.61918  1.0000 -0.1815556491
C   C98       1.0  0.66710  0.78760  0.11918  1.0000 -0.1815556491
C   C99       1.0  0.33290  0.28760  0.38082  1.0000 -0.1893029675
C   C100      1.0  0.16710  0.71240  0.88082  1.0000 -0.1893029675
C   C101      1.0  0.83890  0.19790  0.67247  1.0000 -0.1708437979
C   C102      1.0  0.66110  0.80210  0.17247  1.0000 -0.1708437979
C   C103      1.0  0.33890  0.30210  0.32753  1.0000 -0.1708437979
C   C104      1.0  0.16110  0.69790  0.82753  1.0000 -0.1708437979
C   C105      1.0  0.79310  0.23560  0.70966  1.0000 0.1591253296
C   C106      1.0  0.70690  0.76440  0.20966  1.0000 0.1591253296
C   C107      1.0  0.29310  0.26440  0.29034  1.0000 0.1591253296
C   C108      1.0  0.20690  0.73560  0.79034  1.0000 0.1591253296
C   C109      1.0  0.74440  0.28690  0.69080  1.0000 -0.1893029675
C   C110      1.0  0.75560  0.71310  0.19080  1.0000 -0.1893029675
C   C111      1.0  0.24440  0.21310  0.30920  1.0000 -0.1893029675
C   C112      1.0  0.25560  0.78690  0.80920  1.0000 -0.1893029675
C   C113      1.0  0.73590  0.29730  0.63410  1.0000 -0.1893029675
C   C114      1.0  0.76410  0.70270  0.13410  1.0000 -0.1893029675
C   C115      1.0  0.23590  0.20270  0.36590  1.0000 -0.1893029675
C   C116      1.0  0.26410  0.79730  0.86590  1.0000 -0.1893029675
C   C117      1.0  0.78280  0.21120  0.51087  1.0000 0.180646123
C   C118      1.0  0.71720  0.78880  0.01087  1.0000 0.180646123
C   C119      1.0  0.28280  0.28880  0.48913  1.0000 0.180646123
C   C120      1.0  0.21720  0.71120  0.98913  1.0000 0.180646123
C   C121      1.0  0.82470  0.21280  0.46581  1.0000 -0.1708437979
C   C122      1.0  0.67530  0.78720  0.96581  1.0000 -0.1708437979
C   C123      1.0  0.32470  0.28720  0.53419  1.0000 -0.1708437979
C   C124      1.0  0.17530  0.71280  0.03419  1.0000 -0.1708437979
C   C125      1.0  0.83630  0.15030  0.43816  1.0000 -0.1708437979
C   C126      1.0  0.66370  0.84970  0.93816  1.0000 -0.1708437979
C   C127      1.0  0.33630  0.34970  0.56184  1.0000 -0.1708437979
C   C128      1.0  0.16370  0.65030  0.06184  1.0000 -0.1708437979
C   C129      1.0  0.80340  0.08470  0.45277  1.0000 0.1376762665
C   C130      1.0  0.69660  0.91530  0.95277  1.0000 0.1376762665
C   C131      1.0  0.30340  0.41530  0.54723  1.0000 0.1376762665
C   C132      1.0  0.19660  0.58470  0.04723  1.0000 0.1376762665
C   C133      1.0  0.75530  0.08340  0.49614  1.0000 -0.1708437979
C   C134      1.0  0.74470  0.91660  0.99614  1.0000 -0.1708437979
C   C135      1.0  0.25530  0.41660  0.50386  1.0000 -0.1708437979
C   C136      1.0  0.24470  0.58340  0.00386  1.0000 -0.1708437979
C   C137      1.0  0.75010  0.14460  0.52710  1.0000 -0.1708437979
C   C138      1.0  0.74990  0.85540  0.02710  1.0000 -0.1708437979
C   C139      1.0  0.25010  0.35540  0.47290  1.0000 -0.1708437979
C   C140      1.0  0.24990  0.64460  0.97290  1.0000 -0.1708437979
C   C141      1.0  0.68400  0.48440  0.33654  1.0000 0.0995568499
C   C142      1.0  0.81600  0.51560  0.83654  1.0000 0.0995568499
C   C143      1.0  0.18400  0.01560  0.66346  1.0000 0.0995568499
C   C144      1.0  0.31600  0.98440  0.16346  1.0000 0.0995568499
C   C145      1.0  0.66760  0.59360  0.30730  1.0000 -0.0208019832
C   C146      1.0  0.83240  0.40640  0.80730  1.0000 -0.0208019832
C   C147      1.0  0.16760  0.90640  0.69270  1.0000 -0.0208019832
C   C148      1.0  0.33240  0.09360  0.19270  1.0000 -0.0208019832
C   C149      1.0  0.74200  0.58730  0.32050  1.0000 -0.110225987
C   C150      1.0  0.75800  0.41270  0.82050  1.0000 -0.110225987
C   C151      1.0  0.24200  0.91270  0.67950  1.0000 -0.110225987
C   C152      1.0  0.25800  0.08730  0.17950  1.0000 -0.110225987
C   C153      1.0  0.98240  0.03350  0.56126  1.0000 -0.0208019832
C   C154      1.0  0.51760  0.96650  0.06126  1.0000 -0.0208019832
C   C155      1.0  0.48240  0.46650  0.43874  1.0000 -0.0208019832
C   C156      1.0  0.01760  0.53350  0.93874  1.0000 -0.0208019832
C   C157      1.0  0.98210  0.08250  0.51898  1.0000 -0.1370021276
C   C158      1.0  0.51790  0.91750  0.01898  1.0000 -0.1370021276
C   C159      1.0  0.48210  0.41750  0.48102  1.0000 -0.1370021276
C   C160      1.0  0.01790  0.58250  0.98102  1.0000 -0.1370021276
C   C161      1.0  0.01580  0.13270  0.59435  1.0000 0.0900382833
C   C162      1.0  0.48420  0.86730  0.09435  1.0000 0.0900382833
C   C163      1.0  0.51580  0.36730  0.40565  1.0000 0.0900382833
C   C164      1.0  0.98420  0.63270  0.90565  1.0000 0.0900382833
C   C165      1.0  0.33740  0.48040  0.32727  1.0000 0.0900382833
C   C166      1.0  0.16260  0.51960  0.82727  1.0000 0.0900382833
C   C167      1.0  0.83740  0.01960  0.67273  1.0000 0.0900382833
C   C168      1.0  0.66260  0.98040  0.17273  1.0000 0.0900382833
C   C169      1.0  0.35620  0.47400  0.24350  1.0000 -0.0284990779
C   C170      1.0  0.14380  0.52600  0.74350  1.0000 -0.0284990779
C   C171      1.0  0.85620  0.02600  0.75650  1.0000 -0.0284990779
C   C172      1.0  0.64380  0.97400  0.25650  1.0000 -0.0284990779
C   C173      1.0  0.28210  0.46450  0.25061  1.0000 -0.1030525898
C   C174      1.0  0.21790  0.53550  0.75061  1.0000 -0.1030525898
C   C175      1.0  0.78210  0.03550  0.74939  1.0000 -0.1030525898
C   C176      1.0  0.71790  0.96450  0.24939  1.0000 -0.1030525898
C   C177      1.0  0.47570  0.65200  0.33503  1.0000 0.5512287036
C   C178      1.0  0.02430  0.34800  0.83503  1.0000 0.5512287036
C   C179      1.0  0.97570  0.84800  0.66497  1.0000 0.5512287036
C   C180      1.0  0.52430  0.15200  0.16497  1.0000 0.5512287036
C   C181      1.0  0.45720  0.72770  0.34758  1.0000 -0.0208019832
C   C182      1.0  0.04280  0.27230  0.84758  1.0000 -0.0208019832
C   C183      1.0  0.95720  0.77230  0.65242  1.0000 -0.0208019832
C   C184      1.0  0.54280  0.22770  0.15242  1.0000 -0.0208019832
C   C185      1.0  0.45640  0.77660  0.30405  1.0000 -0.1611354008
C   C186      1.0  0.04360  0.22340  0.80405  1.0000 -0.1611354008
C   C187      1.0  0.95640  0.72340  0.69595  1.0000 -0.1611354008
C   C188      1.0  0.54360  0.27660  0.19595  1.0000 -0.1611354008
C   C189      1.0  0.44780  0.85350  0.31470  1.0000 -0.0208019832
C   C190      1.0  0.05220  0.14650  0.81470  1.0000 -0.0208019832
C   C191      1.0  0.94780  0.64650  0.68530  1.0000 -0.0208019832
C   C192      1.0  0.55220  0.35350  0.18530  1.0000 -0.0208019832
C   C193      1.0  0.43500  0.87500  0.36571  1.0000 -0.2082336099
C   C194      1.0  0.06500  0.12500  0.86571  1.0000 -0.2082336099
C   C195      1.0  0.93500  0.62500  0.63429  1.0000 -0.2082336099
C   C196      1.0  0.56500  0.37500  0.13429  1.0000 -0.2082336099
C   C197      1.0  0.43210  0.82490  0.40974  1.0000 0.350349208
C   C198      1.0  0.06790  0.17510  0.90974  1.0000 0.350349208
C   C199      1.0  0.93210  0.67510  0.59026  1.0000 0.350349208
C   C200      1.0  0.56790  0.32490  0.09026  1.0000 0.350349208
C   C201      1.0  0.44410  0.75190  0.39642  1.0000 -0.234542264
C   C202      1.0  0.05590  0.24810  0.89642  1.0000 -0.234542264
C   C203      1.0  0.94410  0.74810  0.60358  1.0000 -0.234542264
C   C204      1.0  0.55590  0.25190  0.10358  1.0000 -0.234542264
C   C205      1.0  0.45780  0.90500  0.27018  1.0000 0.5188313142
C   C206      1.0  0.04220  0.09500  0.77018  1.0000 0.5188313142
C   C207      1.0  0.95780  0.59500  0.72982  1.0000 0.5188313142
C   C208      1.0  0.54220  0.40500  0.22982  1.0000 0.5188313142
C   C209      1.0  0.81640  0.48760  0.35786  1.0000 0.1494412087
C   C210      1.0  0.68360  0.51240  0.85786  1.0000 0.1494412087
C   C211      1.0  0.31640  0.01240  0.64214  1.0000 0.1494412087
C   C212      1.0  0.18360  0.98760  0.14214  1.0000 0.1494412087
C   C213      1.0  0.87490  0.53220  0.37033  1.0000 -0.1815556491
C   C214      1.0  0.62510  0.46780  0.87033  1.0000 -0.1815556491
C   C215      1.0  0.37490  0.96780  0.62967  1.0000 -0.1815556491
C   C216      1.0  0.12510  0.03220  0.12967  1.0000 -0.1815556491
C   C217      1.0  0.93970  0.50500  0.39140  1.0000 -0.150901624
C   C218      1.0  0.56030  0.49500  0.89140  1.0000 -0.1611354008
C   C219      1.0  0.43970  0.99500  0.60860  1.0000 -0.1611354008
C   C220      1.0  0.06030  0.00500  0.10860  1.0000 -0.1611354008
C   C221      1.0  0.94790  0.43320  0.40290  1.0000 0.1682733449
C   C222      1.0  0.55210  0.56680  0.90290  1.0000 0.1682733449
C   C223      1.0  0.44790  0.06680  0.59710  1.0000 0.1682733449
C   C224      1.0  0.05210  0.93320  0.09710  1.0000 0.1682733449
C   C225      1.0  0.88890  0.38670  0.39140  1.0000 -0.1815556491
C   C226      1.0  0.61110  0.61330  0.89140  1.0000 -0.1815556491
C   C227      1.0  0.38890  0.11330  0.60860  1.0000 -0.1815556491
C   C228      1.0  0.11110  0.88670  0.10860  1.0000 -0.1815556491
C   C229      1.0  0.82460  0.41270  0.36907  1.0000 -0.1893029675
C   C230      1.0  0.67540  0.58730  0.86907  1.0000 -0.1893029675
C   C231      1.0  0.32460  0.08730  0.63093  1.0000 -0.1893029675
C   C232      1.0  0.17540  0.91270  0.13093  1.0000 -0.1893029675
C   C233      1.0  0.08150  0.42310  0.39017  1.0000 0.1494412087
C   C234      1.0  0.41850  0.57690  0.89017  1.0000 0.1494412087
C   C235      1.0  0.58150  0.07690  0.60983  1.0000 0.1494412087
C   C236      1.0  0.91850  0.92310  0.10983  1.0000 0.1494412087
C   C237      1.0  0.08900  0.39340  0.34200  1.0000 -0.1611354008
C   C238      1.0  0.41100  0.60660  0.84200  1.0000 -0.1611354008
C   C239      1.0  0.58900  0.10660  0.65800  1.0000 -0.1611354008
C   C240      1.0  0.91100  0.89340  0.15800  1.0000 -0.1611354008
C   C241      1.0  0.15210  0.40860  0.30990  1.0000 -0.1893029675
C   C242      1.0  0.34790  0.59140  0.80990  1.0000 -0.1893029675
C   C243      1.0  0.65210  0.09140  0.69010  1.0000 -0.1893029675
C   C244      1.0  0.84790  0.90860  0.19010  1.0000 -0.1893029675
C   C245      1.0  0.20330  0.45350  0.33147  1.0000 0.1591253296
C   C246      1.0  0.29670  0.54650  0.83147  1.0000 0.1591253296
C   C247      1.0  0.70330  0.04650  0.66853  1.0000 0.1591253296
C   C248      1.0  0.79670  0.95350  0.16853  1.0000 0.1591253296
C   C249      1.0  0.19480  0.48490  0.38304  1.0000 -0.1893029675
C   C250      1.0  0.30520  0.51510  0.88304  1.0000 -0.1893029675
C   C251      1.0  0.69480  0.01510  0.61696  1.0000 -0.1893029675
C   C252      1.0  0.80520  0.98490  0.11696  1.0000 -0.1893029675
C   C253      1.0  0.13100  0.47000  0.41031  1.0000 -0.150901624
C   C254      1.0  0.36900  0.53000  0.91031  1.0000 -0.150901624
C   C255      1.0  0.63100  0.03000  0.58969  1.0000 -0.150901624
C   C256      1.0  0.86900  0.97000  0.08969  1.0000 -0.150901624
C   C257      1.0  0.01680  0.33960  0.45096  1.0000 0.1682733449
C   C258      1.0  0.48320  0.66040  0.95096  1.0000 0.1682733449
C   C259      1.0  0.51680  0.16040  0.54904  1.0000 0.1682733449
C   C260      1.0  0.98320  0.83960  0.04904  1.0000 0.1682733449
C   C261      1.0  0.98740  0.34060  0.50149  1.0000 -0.1815556491
C   C262      1.0  0.51260  0.65940  0.00149  1.0000 -0.1815556491
C   C263      1.0  0.48740  0.15940  0.49851  1.0000 -0.1815556491
C   C264      1.0  0.01260  0.84060  0.99851  1.0000 -0.1893029675
C   C265      1.0  0.98440  0.28060  0.53800  1.0000 -0.2082336099
C   C266      1.0  0.51560  0.71940  0.03800  1.0000 -0.2082336099
C   C267      1.0  0.48440  0.21940  0.46200  1.0000 -0.2082336099
C   C268      1.0  0.01560  0.78060  0.96200  1.0000 -0.2082336099
C   C269      1.0  0.01310  0.21470  0.51381  1.0000 0.1376762665
C   C270      1.0  0.48690  0.78530  0.01381  1.0000 0.1376762665
C   C271      1.0  0.51310  0.28530  0.48619  1.0000 0.1376762665
C   C272      1.0  0.98690  0.71470  0.98619  1.0000 0.1376762665
C   C273      1.0  0.04370  0.21320  0.46533  1.0000 -0.1893029675
C   C274      1.0  0.45630  0.78680  0.96533  1.0000 -0.1893029675
C   C275      1.0  0.54370  0.28680  0.53467  1.0000 -0.1893029675
C   C276      1.0  0.95630  0.71320  0.03467  1.0000 -0.1893029675
C   C277      1.0  0.04440  0.27570  0.43340  1.0000 -0.1893029675
C   C278      1.0  0.45560  0.72430  0.93340  1.0000 -0.1893029675
C   C279      1.0  0.54440  0.22430  0.56660  1.0000 -0.1815556491
C   C280      1.0  0.95560  0.77570  0.06660  1.0000 -0.1893029675
N   N1        1.0  0.73290  0.66770  0.44723  1.0000 -0.2164149368
N   N2        1.0  0.76710  0.33230  0.94723  1.0000 -0.2164149368
N   N3        1.0  0.23290  0.83230  0.55277  1.0000 -0.2164149368
N   N4        1.0  0.26710  0.16770  0.05277  1.0000 -0.2082336099
N   N5        1.0  0.71880  0.55490  0.47010  1.0000 -0.0004002712
N   N6        1.0  0.78120  0.44510  0.97010  1.0000 -0.0004002712
N   N7        1.0  0.21880  0.94510  0.52990  1.0000 -0.0004002712
N   N8        1.0  0.28120  0.05490  0.02990  1.0000 -0.0004002712
N   N9        1.0  0.77780  0.26890  0.54500  1.0000 -0.1611354008
N   N10       1.0  0.72220  0.73110  0.04500  1.0000 -0.1611354008
N   N11       1.0  0.27780  0.23110  0.45500  1.0000 -0.1611354008
N   N12       1.0  0.22220  0.76890  0.95500  1.0000 -0.1611354008
N   N13       1.0  0.77630  0.21360  0.84853  1.0000 -0.2711466983
N   N14       1.0  0.72370  0.78640  0.34853  1.0000 -0.2711466983
N   N15       1.0  0.27630  0.28640  0.15147  1.0000 -0.2711466983
N   N16       1.0  0.22370  0.71360  0.65147  1.0000 -0.2711466983
N   N17       1.0  0.80160  0.22590  0.76427  1.0000 0.0021159302
N   N18       1.0  0.69840  0.77410  0.26427  1.0000 0.0021159302
N   N19       1.0  0.30160  0.27410  0.23573  1.0000 0.0021159302
N   N20       1.0  0.19840  0.72590  0.73573  1.0000 0.0021159302
N   N21       1.0  0.82210  0.89680  0.41363  1.0000 -0.2813410372
N   N22       1.0  0.67790  0.10320  0.91363  1.0000 -0.2813410372
N   N23       1.0  0.32210  0.60320  0.58637  1.0000 -0.2813410372
N   N24       1.0  0.17790  0.39680  0.08637  1.0000 -0.2813410372
N   N25       1.0  0.81750  0.01833  0.42516  1.0000 0.0246533245
N   N26       1.0  0.68250  0.98167  0.92516  1.0000 0.0246533245
N   N27       1.0  0.31750  0.48167  0.57484  1.0000 0.0246533245
N   N28       1.0  0.18250  0.51833  0.07484  1.0000 0.0246533245
N   N29       1.0  0.63460  0.52660  0.31757  1.0000 -0.2641504318
N   N30       1.0  0.86540  0.47340  0.81757  1.0000 -0.2641504318
N   N31       1.0  0.13460  0.97340  0.68243  1.0000 -0.2641504318
N   N32       1.0  0.36540  0.02660  0.18243  1.0000 -0.2641504318
N   N33       1.0  0.75070  0.51730  0.33895  1.0000 0.0095933452
N   N34       1.0  0.74930  0.48270  0.83895  1.0000 0.0095933452
N   N35       1.0  0.25070  0.98270  0.66105  1.0000 0.0095933452
N   N36       1.0  0.24930  0.01730  0.16105  1.0000 0.0095933452
N   N37       1.0  0.01580  0.40370  0.42098  1.0000 -0.1969489142
N   N38       1.0  0.48420  0.59630  0.92098  1.0000 -0.1969489142
N   N39       1.0  0.51580  0.09630  0.57902  1.0000 -0.1969489142
N   N40       1.0  0.98420  0.90370  0.07902  1.0000 -0.1969489142
N   N41       1.0  0.00140  0.06490  0.60580  1.0000 -0.2813410372
N   N42       1.0  0.49860  0.93510  0.10580  1.0000 -0.2813410372
N   N43       1.0  0.50140  0.43510  0.39420  1.0000 -0.2813410372
N   N44       1.0  0.99860  0.56490  0.89420  1.0000 -0.2813410372
N   N45       1.0  0.00560  0.14470  0.54289  1.0000 0.0021159302
N   N46       1.0  0.49440  0.85530  0.04289  1.0000 0.0021159302
N   N47       1.0  0.50560  0.35530  0.45711  1.0000 0.0021159302
N   N48       1.0  0.99440  0.64470  0.95711  1.0000 0.0021159302
N   N49       1.0  0.39020  0.48740  0.29211  1.0000 -0.2711466983
N   N50       1.0  0.10980  0.51260  0.79211  1.0000 -0.2711466983
N   N51       1.0  0.89020  0.01260  0.70789  1.0000 -0.2711466983
N   N52       1.0  0.60980  0.98740  0.20789  1.0000 -0.2711466983
N   N53       1.0  0.27060  0.46920  0.30431  1.0000 0.0021159302
N   N54       1.0  0.22940  0.53080  0.80431  1.0000 0.0021159302
N   N55       1.0  0.77060  0.03080  0.69569  1.0000 0.0021159302
N   N56       1.0  0.72940  0.96920  0.19569  1.0000 0.0021159302
O   O1        1.0  0.89145  0.73710  0.37575  1.0000 -0.5412784353
O   O2        1.0  0.60855  0.26290  0.87575  1.0000 -0.5412784353
O   O3        1.0  0.39145  0.76290  0.62425  1.0000 -0.5412784353
O   O4        1.0  0.10855  0.23710  0.12425  1.0000 -0.5412784353
O   O5        1.0  0.90331  0.73732  0.45998  1.0000 -0.5321122468
O   O6        1.0  0.59669  0.26268  0.95998  1.0000 -0.5321122468
O   O7        1.0  0.40331  0.76268  0.54002  1.0000 -0.5321122468
O   O8        1.0  0.09669  0.23732  0.04002  1.0000 -0.5321122468
O   O9        1.0  0.15454  0.67959  0.53646  1.0000 -0.550295724
O   O10       1.0  0.34546  0.32041  0.03646  1.0000 -0.550295724
O   O11       1.0  0.65454  0.82041  0.46354  1.0000 -0.550295724
O   O12       1.0  0.84546  0.17959  0.96354  1.0000 -0.550295724
O   O13       1.0  0.25054  0.69158  0.48103  1.0000 -0.5814360961
O   O14       1.0  0.24946  0.30842  0.98103  1.0000 -0.5814360961
O   O15       1.0  0.75054  0.80842  0.51897  1.0000 -0.5814360961
O   O16       1.0  0.74946  0.19158  0.01897  1.0000 -0.5814360961
O   O17       1.0  0.13510  0.65160  0.30136  1.0000 -0.4825042769
O   O18       1.0  0.36490  0.34840  0.80136  1.0000 -0.4825042769
O   O19       1.0  0.63510  0.84840  0.69864  1.0000 -0.4825042769
O   O20       1.0  0.86490  0.15160  0.19864  1.0000 -0.4825042769
O   O21       1.0  0.49800  0.63043  0.28937  1.0000 -0.550295724
O   O22       1.0  0.00200  0.36957  0.78937  1.0000 -0.550295724
O   O23       1.0  0.99800  0.86957  0.71063  1.0000 -0.550295724
O   O24       1.0  0.50200  0.13043  0.21063  1.0000 -0.550295724
O   O25       1.0  0.47104  0.60456  0.37340  1.0000 -0.6079899058
O   O26       1.0  0.02896  0.39544  0.87340  1.0000 -0.6079899058
O   O27       1.0  0.97104  0.89544  0.62660  1.0000 -0.6079899058
O   O28       1.0  0.52896  0.10456  0.12660  1.0000 -0.6079899058
O   O29       1.0  0.46313  0.97124  0.27889  1.0000 -0.5102661535
O   O30       1.0  0.03687  0.02876  0.77889  1.0000 -0.5102661535
O   O31       1.0  0.96313  0.52876  0.72111  1.0000 -0.5102661535
O   O32       1.0  0.53687  0.47124  0.22111  1.0000 -0.5102661535
O   O33       1.0  0.45860  0.88173  0.22556  1.0000 -0.5321122468
O   O34       1.0  0.04140  0.11827  0.72556  1.0000 -0.5321122468
O   O35       1.0  0.95860  0.61827  0.77444  1.0000 -0.5321122468
O   O36       1.0  0.54140  0.38173  0.27444  1.0000 -0.5321122468
O   O37       1.0  0.41930  0.85386  0.45549  1.0000 -0.4279856816
O   O38       1.0  0.08070  0.14614  0.95549  1.0000 -0.4279856816
O   O39       1.0  0.91930  0.64614  0.54451  1.0000 -0.4279856816
O   O40       1.0  0.58070  0.35386  0.04451  1.0000 -0.4279856816
