# DDEC6 charges by PACMAN v1.1 (https://github.com/mtap-research/PACMAN-charge/)
data_2010[Eu][mog]3[ASR]1
_chemical_formula_sum              "Eu2 H8 C14 N4 O14"
_cell_length_a       6.0915
_cell_length_b       9.961
_cell_length_c       13.361
_cell_angle_alpha    68.87
_cell_angle_beta     81.01
_cell_angle_gamma    76.72

_symmetry_space_group_name_H-M    "P 1"
_symmetry_Int_Tables_number       1

loop_
  _symmetry_equiv_pos_as_xyz
  'x, y, z'

loop_
  _atom_site_type_symbol
  _atom_site_label
  _atom_site_symmetry_multiplicity
  _atom_site_fract_x
  _atom_site_fract_y
  _atom_site_fract_z
  _atom_site_occupancy
  _atom_site_charge
Eu  Eu1       1.0  0.33172  0.61438  0.19609  1.0000 1.9145674463
Eu  Eu2       1.0  0.66828  0.38562  0.80391  1.0000 1.9145674463
H   H1        1.0  0.17230  0.95480  0.97320  1.0000 0.1318878215
H   H2        1.0  0.82770  0.04520  0.02680  1.0000 0.1318878215
H   H3        1.0  0.79810  0.67350  0.36920  1.0000 0.1318878215
H   H4        1.0  0.20190  0.32650  0.63080  1.0000 0.1318878215
H   H5        1.0  0.98980  0.50110  0.23120  1.0000 0.3647251781
H   H6        1.0  0.01020  0.49890  0.76880  1.0000 0.3647251781
H   H7        1.0  0.08200  0.42090  0.16320  1.0000 0.3895509746
H   H8        1.0  0.91800  0.57910  0.83680  1.0000 0.3895509746
C   C1        1.0  0.78930  0.76720  0.14180  1.0000 0.5877794977
C   C2        1.0  0.21070  0.23280  0.85820  1.0000 0.5877794977
C   C3        1.0  0.63310  0.89550  0.06860  1.0000 0.0470125564
C   C4        1.0  0.36690  0.10450  0.93140  1.0000 0.0470125564
C   C5        1.0  0.30880  0.97110  0.98510  1.0000 0.0721935369
C   C6        1.0  0.69120  0.02890  0.01490  1.0000 0.0721935369
C   C7        1.0  0.44980  0.38270  0.43960  1.0000 0.5599868055
C   C8        1.0  0.55020  0.61730  0.56040  1.0000 0.5599868055
C   C9        1.0  0.21140  0.44480  0.47260  1.0000 0.0721935369
C   C10       1.0  0.78860  0.55520  0.52740  1.0000 0.0721935369
C   C11       1.0  0.88500  0.60140  0.42170  1.0000 0.0826737862
C   C12       1.0  0.11500  0.39860  0.57830  1.0000 0.0826737862
C   C13       1.0  0.59110  0.43950  0.03350  1.0000 0.4915434476
C   C14       1.0  0.40890  0.56050  0.96650  1.0000 0.4915434476
N   N1        1.0  0.43910  0.86480  0.05320  1.0000 -0.2847076599
N   N2        1.0  0.56090  0.13520  0.94680  1.0000 -0.2847076599
N   N3        1.0  0.09380  0.54670  0.39350  1.0000 -0.3021021429
N   N4        1.0  0.90620  0.45330  0.60650  1.0000 -0.3021021429
O   O1        1.0  0.71480  0.64840  0.18490  1.0000 -0.6382283661
O   O2        1.0  0.28520  0.35160  0.81510  1.0000 -0.6382283661
O   O3        1.0  0.97950  0.78440  0.15230  1.0000 -0.6382283661
O   O4        1.0  0.02050  0.21560  0.84770  1.0000 -0.6382283661
O   O5        1.0  0.51360  0.43100  0.34270  1.0000 -0.6007721964
O   O6        1.0  0.48640  0.56900  0.65730  1.0000 -0.6007721964
O   O7        1.0  0.56790  0.29010  0.51020  1.0000 -0.5157045368
O   O8        1.0  0.43210  0.70990  0.48980  1.0000 -0.5157045368
O   O9        1.0  0.72450  0.36270  0.98650  1.0000 -0.5878119711
O   O10       1.0  0.27550  0.63730  0.01350  1.0000 -0.5878119711
O   O11       1.0  0.58490  0.43070  0.12930  1.0000 -0.5565117541
O   O12       1.0  0.41510  0.56930  0.87070  1.0000 -0.5565117541
O   O13       1.0  0.09290  0.43410  0.22090  1.0000 -0.7219354156
O   O14       1.0  0.90710  0.56590  0.77910  1.0000 -0.7219354156
