# DDEC6 charges by PACMAN v1.1 (https://github.com/mtap-research/PACMAN-charge/)
data_2010[Cd][tsa]3[ASR]1
_chemical_formula_sum              "Cd16 H48 C48 N72"
_cell_length_a       8.0222
_cell_length_b       18.1099
_cell_length_c       21.954
_cell_angle_alpha    90
_cell_angle_beta     90
_cell_angle_gamma    90

_symmetry_space_group_name_H-M    "P 1"
_symmetry_Int_Tables_number       1

loop_
  _symmetry_equiv_pos_as_xyz
  'x, y, z'

loop_
  _atom_site_type_symbol
  _atom_site_label
  _atom_site_symmetry_multiplicity
  _atom_site_fract_x
  _atom_site_fract_y
  _atom_site_fract_z
  _atom_site_occupancy
  _atom_site_charge
Cd  Cd1       1.0  0.76819  0.09132  0.86022  1.0000 0.7531437926
Cd  Cd2       1.0  0.23181  0.40868  0.36022  1.0000 0.7531437926
Cd  Cd3       1.0  0.26819  0.90868  0.63978  1.0000 0.7531437926
Cd  Cd4       1.0  0.73181  0.59132  0.13978  1.0000 0.7531437926
Cd  Cd5       1.0  0.23181  0.90868  0.13978  1.0000 0.7531437926
Cd  Cd6       1.0  0.76819  0.59132  0.63978  1.0000 0.7531437926
Cd  Cd7       1.0  0.73181  0.09132  0.36022  1.0000 0.7531437926
Cd  Cd8       1.0  0.26819  0.40868  0.86022  1.0000 0.7531437926
Cd  Cd9       1.0  0.96011  0.25271  0.10996  1.0000 0.618119841
Cd  Cd10      1.0  0.03989  0.24729  0.60996  1.0000 0.618119841
Cd  Cd11      1.0  0.46011  0.74729  0.39004  1.0000 0.618119841
Cd  Cd12      1.0  0.53989  0.75271  0.89004  1.0000 0.618119841
Cd  Cd13      1.0  0.03989  0.74729  0.89004  1.0000 0.618119841
Cd  Cd14      1.0  0.96011  0.75271  0.39004  1.0000 0.618119841
Cd  Cd15      1.0  0.53989  0.25271  0.60996  1.0000 0.618119841
Cd  Cd16      1.0  0.46011  0.24729  0.10996  1.0000 0.618119841
H   H1        1.0  0.48270  0.16360  0.96340  1.0000 0.0868989088
H   H2        1.0  0.51730  0.33640  0.46340  1.0000 0.0868989088
H   H3        1.0  0.98270  0.83640  0.53660  1.0000 0.0868989088
H   H4        1.0  0.01730  0.66360  0.03660  1.0000 0.0868989088
H   H5        1.0  0.51730  0.83640  0.03660  1.0000 0.0868989088
H   H6        1.0  0.48270  0.66360  0.53660  1.0000 0.0868989088
H   H7        1.0  0.01730  0.16360  0.46340  1.0000 0.0868989088
H   H8        1.0  0.98270  0.33640  0.96340  1.0000 0.0868989088
H   H9        1.0  0.95760  0.14610  0.98450  1.0000 0.0868989088
H   H10       1.0  0.04240  0.35390  0.48450  1.0000 0.0868989088
H   H11       1.0  0.45760  0.85390  0.51550  1.0000 0.0868989088
H   H12       1.0  0.54240  0.64610  0.01550  1.0000 0.0868989088
H   H13       1.0  0.04240  0.85390  0.01550  1.0000 0.0868989088
H   H14       1.0  0.95760  0.64610  0.51550  1.0000 0.0868989088
H   H15       1.0  0.54240  0.14610  0.48450  1.0000 0.0868989088
H   H16       1.0  0.45760  0.35390  0.98450  1.0000 0.0868989088
H   H17       1.0  0.55760  0.94230  0.89390  1.0000 0.0868989088
H   H18       1.0  0.44240  0.55770  0.39390  1.0000 0.0868989088
H   H19       1.0  0.05760  0.05770  0.60610  1.0000 0.0868989088
H   H20       1.0  0.94240  0.44230  0.10610  1.0000 0.0868989088
H   H21       1.0  0.44240  0.05770  0.10610  1.0000 0.0868989088
H   H22       1.0  0.55760  0.44230  0.60610  1.0000 0.0868989088
H   H23       1.0  0.94240  0.94230  0.39390  1.0000 0.0868989088
H   H24       1.0  0.05760  0.55770  0.89390  1.0000 0.0868989088
H   H25       1.0  0.03180  0.93940  0.86710  1.0000 0.0868989088
H   H26       1.0  0.96820  0.56060  0.36710  1.0000 0.0868989088
H   H27       1.0  0.53180  0.06060  0.63290  1.0000 0.0868989088
H   H28       1.0  0.46820  0.43940  0.13290  1.0000 0.0868989088
H   H29       1.0  0.96820  0.06060  0.13290  1.0000 0.0868989088
H   H30       1.0  0.03180  0.43940  0.63290  1.0000 0.0868989088
H   H31       1.0  0.46820  0.93940  0.36710  1.0000 0.0868989088
H   H32       1.0  0.53180  0.56060  0.86710  1.0000 0.0868989088
H   H33       1.0  0.01640  0.13900  0.74300  1.0000 0.0868989088
H   H34       1.0  0.98360  0.36100  0.24300  1.0000 0.0868989088
H   H35       1.0  0.51640  0.86100  0.75700  1.0000 0.0868989088
H   H36       1.0  0.48360  0.63900  0.25700  1.0000 0.0868989088
H   H37       1.0  0.98360  0.86100  0.25700  1.0000 0.0868989088
H   H38       1.0  0.01640  0.63900  0.75700  1.0000 0.0868989088
H   H39       1.0  0.48360  0.13900  0.24300  1.0000 0.0868989088
H   H40       1.0  0.51640  0.36100  0.74300  1.0000 0.0868989088
H   H41       1.0  0.54780  0.18230  0.75600  1.0000 0.0868989088
H   H42       1.0  0.45220  0.31770  0.25600  1.0000 0.0868989088
H   H43       1.0  0.04780  0.81770  0.74400  1.0000 0.0868989088
H   H44       1.0  0.95220  0.68230  0.24400  1.0000 0.0868989088
H   H45       1.0  0.45220  0.81770  0.24400  1.0000 0.0868989088
H   H46       1.0  0.54780  0.68230  0.74400  1.0000 0.0868989088
H   H47       1.0  0.95220  0.18230  0.25600  1.0000 0.0868989088
H   H48       1.0  0.04780  0.31770  0.75600  1.0000 0.0868989088
C   C1        1.0  0.58980  0.16670  0.97950  1.0000 0.0868989088
C   C2        1.0  0.41020  0.33333  0.47950  1.0000 0.0868989088
C   C3        1.0  0.08980  0.83330  0.52050  1.0000 0.0868989088
C   C4        1.0  0.91020  0.66667  0.02050  1.0000 0.0868989088
C   C5        1.0  0.41020  0.83330  0.02050  1.0000 0.0868989088
C   C6        1.0  0.58980  0.66667  0.52050  1.0000 0.0868989088
C   C7        1.0  0.91020  0.16670  0.47950  1.0000 0.0868989088
C   C8        1.0  0.08980  0.33333  0.97950  1.0000 0.0868989088
C   C9        1.0  0.84590  0.15750  0.99090  1.0000 0.1076403312
C   C10       1.0  0.15410  0.34250  0.49090  1.0000 0.1076403312
C   C11       1.0  0.34590  0.84250  0.50910  1.0000 0.1076403312
C   C12       1.0  0.65410  0.65750  0.00910  1.0000 0.1076403312
C   C13       1.0  0.15410  0.84250  0.00910  1.0000 0.1076403312
C   C14       1.0  0.84590  0.65750  0.50910  1.0000 0.1076403312
C   C15       1.0  0.65410  0.15750  0.49090  1.0000 0.1076403312
C   C16       1.0  0.34590  0.34250  0.99090  1.0000 0.1076403312
C   C17       1.0  0.66710  0.92640  0.88910  1.0000 0.1076403312
C   C18       1.0  0.33290  0.57360  0.38910  1.0000 0.1076403312
C   C19       1.0  0.16710  0.07360  0.61090  1.0000 0.1076403312
C   C20       1.0  0.83290  0.42640  0.11090  1.0000 0.1076403312
C   C21       1.0  0.33290  0.07360  0.11090  1.0000 0.1076403312
C   C22       1.0  0.66710  0.42640  0.61090  1.0000 0.1076403312
C   C23       1.0  0.83290  0.92640  0.38910  1.0000 0.1076403312
C   C24       1.0  0.16710  0.57360  0.88910  1.0000 0.1076403312
C   C25       1.0  0.92270  0.92440  0.87430  1.0000 0.0793591492
C   C26       1.0  0.07730  0.57560  0.37430  1.0000 0.0793591492
C   C27       1.0  0.42270  0.07560  0.62570  1.0000 0.0793591492
C   C28       1.0  0.57730  0.42440  0.12570  1.0000 0.0793591492
C   C29       1.0  0.07730  0.07560  0.12570  1.0000 0.0793591492
C   C30       1.0  0.92270  0.42440  0.62570  1.0000 0.0793591492
C   C31       1.0  0.57730  0.92440  0.37430  1.0000 0.0793591492
C   C32       1.0  0.42270  0.57560  0.87430  1.0000 0.0793591492
C   C33       1.0  0.90940  0.15600  0.73450  1.0000 0.0868989088
C   C34       1.0  0.09060  0.34400  0.23450  1.0000 0.0868989088
C   C35       1.0  0.40940  0.84400  0.76550  1.0000 0.0868989088
C   C36       1.0  0.59060  0.65600  0.26550  1.0000 0.0868989088
C   C37       1.0  0.09060  0.84400  0.26550  1.0000 0.0868989088
C   C38       1.0  0.90940  0.65600  0.76550  1.0000 0.0868989088
C   C39       1.0  0.59060  0.15600  0.23450  1.0000 0.0868989088
C   C40       1.0  0.40940  0.34400  0.73450  1.0000 0.0868989088
C   C41       1.0  0.65660  0.17910  0.74160  1.0000 0.1011175714
C   C42       1.0  0.34340  0.32090  0.24160  1.0000 0.1011175714
C   C43       1.0  0.15660  0.82090  0.75840  1.0000 0.1011175714
C   C44       1.0  0.84340  0.67910  0.25840  1.0000 0.1011175714
C   C45       1.0  0.34340  0.82090  0.25840  1.0000 0.1011175714
C   C46       1.0  0.65660  0.67910  0.75840  1.0000 0.1011175714
C   C47       1.0  0.84340  0.17910  0.24160  1.0000 0.1011175714
C   C48       1.0  0.15660  0.32090  0.74160  1.0000 0.1011175714
N   N1        1.0  0.72720  0.13940  0.95120  1.0000 -0.3969784141
N   N2        1.0  0.27280  0.36060  0.45120  1.0000 -0.3969784141
N   N3        1.0  0.22720  0.86060  0.54880  1.0000 -0.3969784141
N   N4        1.0  0.77280  0.63940  0.04880  1.0000 -0.3969784141
N   N5        1.0  0.27280  0.86060  0.04880  1.0000 -0.3969784141
N   N6        1.0  0.72720  0.63940  0.54880  1.0000 -0.3969784141
N   N7        1.0  0.77280  0.13940  0.45120  1.0000 -0.3969784141
N   N8        1.0  0.22720  0.36060  0.95120  1.0000 -0.3969784141
N   N9        1.0  0.79510  0.19190  0.03860  1.0000 -0.220171913
N   N10       1.0  0.20490  0.30810  0.53860  1.0000 -0.220171913
N   N11       1.0  0.29510  0.80810  0.46140  1.0000 -0.220171913
N   N12       1.0  0.70490  0.69190  0.96140  1.0000 -0.220171913
N   N13       1.0  0.20490  0.80810  0.96140  1.0000 -0.220171913
N   N14       1.0  0.79510  0.69190  0.46140  1.0000 -0.220171913
N   N15       1.0  0.70490  0.19190  0.53860  1.0000 -0.220171913
N   N16       1.0  0.29510  0.30810  0.03860  1.0000 -0.220171913
N   N17       1.0  0.62520  0.19810  0.03220  1.0000 -0.220171913
N   N18       1.0  0.37480  0.30190  0.53220  1.0000 -0.220171913
N   N19       1.0  0.12520  0.80190  0.46780  1.0000 -0.220171913
N   N20       1.0  0.87480  0.69810  0.96780  1.0000 -0.220171913
N   N21       1.0  0.37480  0.80190  0.96780  1.0000 -0.220171913
N   N22       1.0  0.62520  0.69810  0.46780  1.0000 -0.220171913
N   N23       1.0  0.87480  0.19810  0.53220  1.0000 -0.220171913
N   N24       1.0  0.12520  0.30190  0.03220  1.0000 -0.220171913
N   N25       1.0  0.77840  0.14650  0.77200  1.0000 -0.3812257745
N   N26       1.0  0.22160  0.35350  0.27200  1.0000 -0.3812257745
N   N27       1.0  0.27840  0.85350  0.72800  1.0000 -0.3812257745
N   N28       1.0  0.72160  0.64650  0.22800  1.0000 -0.3812257745
N   N29       1.0  0.22160  0.85350  0.22800  1.0000 -0.3812257745
N   N30       1.0  0.77840  0.64650  0.72800  1.0000 -0.3812257745
N   N31       1.0  0.72160  0.14650  0.27200  1.0000 -0.3812257745
N   N32       1.0  0.27840  0.35350  0.77200  1.0000 -0.3812257745
N   N33       1.0  0.70410  0.20640  0.68940  1.0000 -0.2110473359
N   N34       1.0  0.29590  0.29360  0.18940  1.0000 -0.2110473359
N   N35       1.0  0.20410  0.79360  0.81060  1.0000 -0.2110473359
N   N36       1.0  0.79590  0.70640  0.31060  1.0000 -0.2110473359
N   N37       1.0  0.29590  0.79360  0.31060  1.0000 -0.2110473359
N   N38       1.0  0.70410  0.70640  0.81060  1.0000 -0.2110473359
N   N39       1.0  0.79590  0.20640  0.18940  1.0000 -0.2110473359
N   N40       1.0  0.20410  0.29360  0.68940  1.0000 -0.2110473359
N   N41       1.0  0.86940  0.19180  0.68450  1.0000 -0.220171913
N   N42       1.0  0.13060  0.30820  0.18450  1.0000 -0.220171913
N   N43       1.0  0.36940  0.80820  0.81550  1.0000 -0.220171913
N   N44       1.0  0.63060  0.69180  0.31550  1.0000 -0.220171913
N   N45       1.0  0.13060  0.80820  0.31550  1.0000 -0.220171913
N   N46       1.0  0.86940  0.69180  0.81550  1.0000 -0.220171913
N   N47       1.0  0.63060  0.19180  0.18450  1.0000 -0.220171913
N   N48       1.0  0.36940  0.30820  0.68450  1.0000 -0.220171913
N   N49       1.0  0.78870  0.97140  0.87690  1.0000 -0.3812257745
N   N50       1.0  0.21130  0.52860  0.37690  1.0000 -0.3812257745
N   N51       1.0  0.28870  0.02860  0.62310  1.0000 -0.3812257745
N   N52       1.0  0.71130  0.47140  0.12310  1.0000 -0.3812257745
N   N53       1.0  0.21130  0.02860  0.12310  1.0000 -0.3812257745
N   N54       1.0  0.78870  0.47140  0.62310  1.0000 -0.3812257745
N   N55       1.0  0.71130  0.97140  0.37690  1.0000 -0.3812257745
N   N56       1.0  0.28870  0.52860  0.87690  1.0000 -0.3812257745
N   N57       1.0  0.71100  0.85680  0.89420  1.0000 -0.220171913
N   N58       1.0  0.28900  0.64320  0.39420  1.0000 -0.220171913
N   N59       1.0  0.21100  0.14320  0.60580  1.0000 -0.220171913
N   N60       1.0  0.78900  0.35680  0.10580  1.0000 -0.220171913
N   N61       1.0  0.28900  0.14320  0.10580  1.0000 -0.220171913
N   N62       1.0  0.71100  0.35680  0.60580  1.0000 -0.220171913
N   N63       1.0  0.78900  0.85680  0.39420  1.0000 -0.220171913
N   N64       1.0  0.21100  0.64320  0.89420  1.0000 -0.220171913
N   N65       1.0  0.87720  0.85570  0.88340  1.0000 -0.2110473359
N   N66       1.0  0.12280  0.64430  0.38340  1.0000 -0.2110473359
N   N67       1.0  0.37720  0.14430  0.61660  1.0000 -0.2110473359
N   N68       1.0  0.62280  0.35570  0.11660  1.0000 -0.2110473359
N   N69       1.0  0.12280  0.14430  0.11660  1.0000 -0.2110473359
N   N70       1.0  0.87720  0.35570  0.61660  1.0000 -0.2110473359
N   N71       1.0  0.62280  0.85570  0.38340  1.0000 -0.2110473359
N   N72       1.0  0.37720  0.64430  0.88340  1.0000 -0.2110473359
