# DDEC6 charges by PACMAN v1.1 (https://github.com/mtap-research/PACMAN-charge/)
data_2010[Cd][nan]3[ASR]5
_chemical_formula_sum              "Cd4 B2 H44 C54 N20 O12"
_cell_length_a       9.3195
_cell_length_b       14.2603
_cell_length_c       18.4982
_cell_angle_alpha    105.307
_cell_angle_beta     99.077
_cell_angle_gamma    95.406

_symmetry_space_group_name_H-M    "P 1"
_symmetry_Int_Tables_number       1

loop_
  _symmetry_equiv_pos_as_xyz
  'x, y, z'

loop_
  _atom_site_type_symbol
  _atom_site_label
  _atom_site_symmetry_multiplicity
  _atom_site_fract_x
  _atom_site_fract_y
  _atom_site_fract_z
  _atom_site_occupancy
  _atom_site_charge
Cd  Cd1       1.0  0.96219  0.71432  0.31556  1.0000 0.7874360426
Cd  Cd2       1.0  0.82355  0.82320  0.74025  1.0000 0.8461830958
Cd  Cd3       1.0  0.03782  0.28567  0.68444  1.0000 0.7874360426
Cd  Cd4       1.0  0.17631  0.17684  0.25980  1.0000 0.8461830958
B   B1        1.0  0.30842  0.93932  0.60626  1.0000 0.5321511968
B   B2        1.0  0.69158  0.06068  0.39375  1.0000 0.5321511968
H   H1        1.0  0.31105  0.66194  0.39699  1.0000 0.1105395546
H   H2        1.0  0.38179  0.98788  0.76961  1.0000 0.1300953782
H   H3        1.0  0.15781  0.08421  0.69262  1.0000 0.0898910767
H   H4        1.0  0.48869  0.82357  0.67677  1.0000 0.1024071521
H   H5        1.0  0.53140  0.52447  0.64140  1.0000 0.1105395546
H   H6        1.0  0.55311  0.09489  0.62378  1.0000 0.1207512307
H   H7        1.0  0.01895  0.82644  0.59742  1.0000 0.1024071521
H   H8        1.0  0.22778  0.22153  0.52042  1.0000 0.1207512307
H   H9        1.0  0.68969  0.67353  0.06438  1.0000 0.1105395546
H   H10       1.0  0.06470  0.88868  0.47728  1.0000 0.0898910767
H   H11       1.0  0.14983  0.93431  0.83695  1.0000 0.1407100726
H   H12       1.0  0.95144  0.37670  0.10628  1.0000 0.2821739956
H   H13       1.0  0.33285  0.04282  0.48991  1.0000 0.1105395546
H   H14       1.0  0.18424  0.36958  0.19962  1.0000 0.1207512307
H   H15       1.0  0.81789  0.06078  0.69900  1.0000 0.1300953782
H   H16       1.0  0.05852  0.90788  0.14592  1.0000 0.1105395546
H   H17       1.0  0.65715  0.70466  0.93360  1.0000 0.1105395546
H   H18       1.0  0.03004  0.93447  0.01573  1.0000 0.1105395546
H   H19       1.0  0.46308  0.78001  0.53565  1.0000 0.1207512307
H   H20       1.0  0.84041  0.53782  0.15392  1.0000 0.1024071521
H   H21       1.0  0.21223  0.53820  0.31917  1.0000 0.1024071521
H   H22       1.0  0.64337  0.61971  0.45180  1.0000 0.1024071521
H   H23       1.0  0.68896  0.33805  0.60301  1.0000 0.1105395546
H   H24       1.0  0.61820  0.01210  0.23039  1.0000 0.1300953782
H   H25       1.0  0.84220  0.91579  0.30738  1.0000 0.0898910767
H   H26       1.0  0.51131  0.17643  0.32324  1.0000 0.1024071521
H   H27       1.0  0.46862  0.47554  0.35863  1.0000 0.1105395546
H   H28       1.0  0.44689  0.90512  0.37622  1.0000 0.1207512307
H   H29       1.0  0.98106  0.17356  0.40258  1.0000 0.1024071521
H   H30       1.0  0.77223  0.77847  0.47959  1.0000 0.1207512307
H   H31       1.0  0.31035  0.32641  0.93568  1.0000 0.1105395546
H   H32       1.0  0.93530  0.11131  0.52272  1.0000 0.0898910767
H   H33       1.0  0.85018  0.06567  0.16305  1.0000 0.1407100726
H   H34       1.0  0.04857  0.62331  0.89372  1.0000 0.2821739956
H   H35       1.0  0.66715  0.95718  0.51009  1.0000 0.1105395546
H   H36       1.0  0.81575  0.63038  0.80036  1.0000 0.1207512307
H   H37       1.0  0.18212  0.93921  0.30100  1.0000 0.1300953782
H   H38       1.0  0.94144  0.09210  0.85399  1.0000 0.1105395546
H   H39       1.0  0.34267  0.29528  0.06644  1.0000 0.1105395546
H   H40       1.0  0.96981  0.06547  0.98421  1.0000 0.1105395546
H   H41       1.0  0.53693  0.21999  0.46435  1.0000 0.1207512307
H   H42       1.0  0.15961  0.46218  0.84608  1.0000 0.1024071521
H   H43       1.0  0.78778  0.46180  0.68083  1.0000 0.1024071521
H   H44       1.0  0.35665  0.38030  0.54821  1.0000 0.1024071521
C   C1        1.0  0.08737  0.86299  0.65329  1.0000 0.1407100726
C   C2        1.0  0.27336  0.94672  0.74446  1.0000 -0.08091193
C   C3        1.0  0.15964  0.92013  0.77736  1.0000 -0.021058506
C   C4        1.0  0.54361  0.89225  0.67216  1.0000 0.1300953782
C   C5        1.0  0.71099  0.01537  0.68222  1.0000 -0.0260193782
C   C6        1.0  0.58042  0.03342  0.64514  1.0000 -0.0615781502
C   C7        1.0  0.15095  0.84223  0.47422  1.0000 0.1300953782
C   C8        1.0  0.27985  0.72583  0.43439  1.0000 -0.0260193782
C   C9        1.0  0.35722  0.78462  0.50364  1.0000 -0.0615781502
C   C10       1.0  0.93728  0.51576  0.18289  1.0000 0.1544148966
C   C11       1.0  0.11862  0.42986  0.20799  1.0000 -0.0260193782
C   C12       1.0  0.13030  0.51409  0.26695  1.0000 -0.0412572982
C   C13       1.0  0.19395  0.09976  0.64317  1.0000 0.1407100726
C   C14       1.0  0.23024  0.16822  0.55331  1.0000 -0.0412572982
C   C15       1.0  0.28249  0.07897  0.53695  1.0000 -0.0615781502
C   C16       1.0  0.83126  0.83099  0.88916  1.0000 0.5400460406
C   C17       1.0  0.84347  0.81952  0.96783  1.0000 -0.0260193782
C   C18       1.0  0.95583  0.87787  0.02691  1.0000 -0.0931318322
C   C19       1.0  0.97187  0.86262  0.09909  1.0000 -0.0931318322
C   C20       1.0  0.87677  0.78784  0.11132  1.0000 -0.0412572982
C   C21       1.0  0.76264  0.73049  0.05239  1.0000 -0.1016532636
C   C22       1.0  0.74521  0.74703  0.98072  1.0000 -0.1090391235
C   C23       1.0  0.89662  0.76607  0.18641  1.0000 0.5400460406
C   C24       1.0  0.69812  0.66667  0.60512  1.0000 0.5505286797
C   C25       1.0  0.59763  0.57910  0.55093  1.0000 -0.0260193782
C   C26       1.0  0.51783  0.51230  0.57935  1.0000 -0.1016532636
C   C27       1.0  0.57938  0.56641  0.47172  1.0000 -0.1016532636
C   C28       1.0  0.91262  0.13701  0.34671  1.0000 0.1407100726
C   C29       1.0  0.72663  0.05328  0.25554  1.0000 -0.08091193
C   C30       1.0  0.84034  0.07986  0.22264  1.0000 -0.021058506
C   C31       1.0  0.45639  0.10775  0.32784  1.0000 0.1300953782
C   C32       1.0  0.28901  0.98463  0.31778  1.0000 -0.0260193782
C   C33       1.0  0.41958  0.96658  0.35486  1.0000 -0.0615781502
C   C34       1.0  0.84906  0.15776  0.52578  1.0000 0.1300953782
C   C35       1.0  0.72015  0.27417  0.56561  1.0000 -0.021058506
C   C36       1.0  0.64279  0.21538  0.49636  1.0000 -0.0615781502
C   C37       1.0  0.06273  0.48424  0.81712  1.0000 0.1544148966
C   C38       1.0  0.88140  0.57012  0.79201  1.0000 -0.0260193782
C   C39       1.0  0.86971  0.48590  0.73305  1.0000 -0.0412572982
C   C40       1.0  0.80605  0.90024  0.35683  1.0000 0.1407100726
C   C41       1.0  0.76977  0.83177  0.44669  1.0000 -0.0412572982
C   C42       1.0  0.71752  0.92103  0.46305  1.0000 -0.0615781502
C   C43       1.0  0.16790  0.16905  0.11080  1.0000 0.5400460406
C   C44       1.0  0.15624  0.18047  0.03216  1.0000 -0.0260193782
C   C45       1.0  0.04404  0.12206  0.97303  1.0000 -0.0931318322
C   C46       1.0  0.02811  0.13733  0.90084  1.0000 -0.0931318322
C   C47       1.0  0.12323  0.21212  0.88865  1.0000 -0.0412572982
C   C48       1.0  0.23733  0.26942  0.94762  1.0000 -0.1016532636
C   C49       1.0  0.25461  0.25291  0.01931  1.0000 -0.1090391235
C   C50       1.0  0.10340  0.23394  0.81360  1.0000 0.5400460406
C   C51       1.0  0.30193  0.33333  0.39491  1.0000 0.5505286797
C   C52       1.0  0.40240  0.42093  0.44911  1.0000 -0.0260193782
C   C53       1.0  0.48220  0.48772  0.42068  1.0000 -0.1016532636
C   C54       1.0  0.42065  0.43361  0.52831  1.0000 -0.1016532636
N   N1        1.0  0.22758  0.90990  0.66520  1.0000 -0.2261065648
N   N2        1.0  0.04411  0.86728  0.71970  1.0000 -0.2932797776
N   N3        1.0  0.68594  0.92658  0.69912  1.0000 -0.2993338959
N   N4        1.0  0.47368  0.95455  0.63874  1.0000 -0.218822717
N   N5        1.0  0.27443  0.85912  0.52893  1.0000 -0.2120861144
N   N6        1.0  0.14986  0.76220  0.41623  1.0000 -0.3065737145
N   N7        1.0  0.99608  0.43229  0.15511  1.0000 -0.2120861144
N   N8        1.0  0.01701  0.56749  0.25143  1.0000 -0.3207686053
N   N9        1.0  0.17539  0.18079  0.62062  1.0000 -0.3065737145
N   N10       1.0  0.25902  0.03551  0.59432  1.0000 -0.218822717
N   N11       1.0  0.77241  0.09009  0.33481  1.0000 -0.2261065648
N   N12       1.0  0.95587  0.13272  0.28030  1.0000 -0.2932797776
N   N13       1.0  0.31405  0.07342  0.30087  1.0000 -0.2993338959
N   N14       1.0  0.52632  0.04546  0.36126  1.0000 -0.218822717
N   N15       1.0  0.72558  0.14088  0.47107  1.0000 -0.2120861144
N   N16       1.0  0.85015  0.23780  0.58377  1.0000 -0.3065737145
N   N17       1.0  0.00393  0.56771  0.84489  1.0000 -0.218822717
N   N18       1.0  0.98300  0.43251  0.74857  1.0000 -0.3207686053
N   N19       1.0  0.82461  0.81921  0.37939  1.0000 -0.3065737145
N   N20       1.0  0.74099  0.96449  0.40568  1.0000 -0.2120861144
O   O1        1.0  0.93815  0.88133  0.87397  1.0000 -0.5586783445
O   O2        1.0  0.00809  0.81322  0.23870  1.0000 -0.5586783445
O   O3        1.0  0.80401  0.70000  0.19601  1.0000 -0.5655055301
O   O4        1.0  0.69352  0.67843  0.67688  1.0000 -0.5586783445
O   O5        1.0  0.77542  0.72429  0.58002  1.0000 -0.5809466497
O   O6        1.0  0.71723  0.78610  0.83895  1.0000 -0.5487944738
O   O7        1.0  0.06146  0.11802  0.12567  1.0000 -0.5586783445
O   O8        1.0  0.28117  0.21469  0.16132  1.0000 -0.5487944738
O   O9        1.0  0.99194  0.18681  0.76131  1.0000 -0.5586783445
O   O10       1.0  0.19601  0.30001  0.80402  1.0000 -0.5655055301
O   O11       1.0  0.30658  0.32158  0.32318  1.0000 -0.5586783445
O   O12       1.0  0.22460  0.27573  0.41999  1.0000 -0.5809466497
