# DDEC6 charges by PACMAN v1.1 (https://github.com/mtap-research/PACMAN-charge/)
data_2010[Ni][sqc]3[ASR]1
_chemical_formula_sum              "Ni12 H48 C72 N48 O24"
_cell_length_a       11.908
_cell_length_b       16.3176
_cell_length_c       16.3176
_cell_angle_alpha    114.283
_cell_angle_beta     104.079
_cell_angle_gamma    104.079

_symmetry_space_group_name_H-M    "P 1"
_symmetry_Int_Tables_number       1

loop_
  _symmetry_equiv_pos_as_xyz
  'x, y, z'

loop_
  _atom_site_type_symbol
  _atom_site_label
  _atom_site_symmetry_multiplicity
  _atom_site_fract_x
  _atom_site_fract_y
  _atom_site_fract_z
  _atom_site_occupancy
  _atom_site_charge
Ni  Ni1       1.0  0.11809  0.55594  0.59929  1.0000 0.7718136282
Ni  Ni2       1.0  0.88191  0.44406  0.40071  1.0000 0.7718136282
Ni  Ni3       1.0  0.56215  0.04334  0.44406  1.0000 0.7718136282
Ni  Ni4       1.0  0.43785  0.95666  0.55594  1.0000 0.7718136282
Ni  Ni5       1.0  0.51880  0.40071  0.95666  1.0000 0.7718136282
Ni  Ni6       1.0  0.48120  0.59929  0.04334  1.0000 0.7718136282
Ni  Ni7       1.0  0.89829  0.61119  0.65268  1.0000 0.7087691795
Ni  Ni8       1.0  0.10171  0.38881  0.34732  1.0000 0.7087691795
Ni  Ni9       1.0  0.28710  0.04149  0.38881  1.0000 0.7087691795
Ni  Ni10      1.0  0.71290  0.95851  0.61119  1.0000 0.7087691795
Ni  Ni11      1.0  0.24561  0.34732  0.95851  1.0000 0.7087691795
Ni  Ni12      1.0  0.75439  0.65268  0.04149  1.0000 0.7087691795
H   H1        1.0  0.43681  0.38073  0.51785  1.0000 0.1101376423
H   H2        1.0  0.56319  0.61927  0.48215  1.0000 0.1101376423
H   H3        1.0  0.05608  0.13712  0.61927  1.0000 0.1101376423
H   H4        1.0  0.94392  0.86288  0.38073  1.0000 0.1101376423
H   H5        1.0  0.91896  0.48215  0.86288  1.0000 0.1101376423
H   H6        1.0  0.08104  0.51785  0.13712  1.0000 0.1101376423
H   H7        1.0  0.83561  0.57742  0.80514  1.0000 0.0984501102
H   H8        1.0  0.16439  0.42258  0.19486  1.0000 0.0984501102
H   H9        1.0  0.25819  0.22772  0.42258  1.0000 0.0984501102
H   H10       1.0  0.74181  0.77228  0.57742  1.0000 0.0984501102
H   H11       1.0  0.03046  0.19486  0.77228  1.0000 0.0984501102
H   H12       1.0  0.96954  0.80514  0.22772  1.0000 0.0984501102
H   H13       1.0  0.63025  0.48229  0.51454  1.0000 0.090234915
H   H14       1.0  0.36975  0.51771  0.48546  1.0000 0.090234915
H   H15       1.0  0.14796  0.03225  0.51771  1.0000 0.090234915
H   H16       1.0  0.85204  0.96775  0.48229  1.0000 0.090234915
H   H17       1.0  0.11571  0.48546  0.96775  1.0000 0.090234915
H   H18       1.0  0.88429  0.51454  0.03225  1.0000 0.090234915
H   H19       1.0  0.44713  0.37883  0.67468  1.0000 0.1101376423
H   H20       1.0  0.55287  0.62117  0.32532  1.0000 0.1101376423
H   H21       1.0  0.06831  0.29585  0.62117  1.0000 0.1101376423
H   H22       1.0  0.93169  0.70415  0.37883  1.0000 0.1101376423
H   H23       1.0  0.77245  0.32532  0.70415  1.0000 0.1101376423
H   H24       1.0  0.22755  0.67468  0.29585  1.0000 0.1101376423
H   H25       1.0  0.35158  0.54748  0.70749  1.0000 0.0984501102
H   H26       1.0  0.64842  0.45252  0.29251  1.0000 0.0984501102
H   H27       1.0  0.80410  0.16002  0.45252  1.0000 0.0984501102
H   H28       1.0  0.19590  0.83998  0.54748  1.0000 0.0984501102
H   H29       1.0  0.64409  0.29251  0.83998  1.0000 0.0984501102
H   H30       1.0  0.35591  0.70749  0.16002  1.0000 0.0984501102
H   H31       1.0  0.27626  0.71786  0.58538  1.0000 0.090234915
H   H32       1.0  0.72374  0.28214  0.41462  1.0000 0.090234915
H   H33       1.0  0.55840  0.86751  0.28214  1.0000 0.090234915
H   H34       1.0  0.44160  0.13249  0.71786  1.0000 0.090234915
H   H35       1.0  0.69088  0.41462  0.13249  1.0000 0.090234915
H   H36       1.0  0.30912  0.58538  0.86751  1.0000 0.090234915
H   H37       1.0  0.66178  0.75617  0.70853  1.0000 0.1200813026
H   H38       1.0  0.33822  0.24383  0.29147  1.0000 0.1200813026
H   H39       1.0  0.90562  0.95236  0.24383  1.0000 0.1200813026
H   H40       1.0  0.09438  0.04764  0.75617  1.0000 0.1200813026
H   H41       1.0  0.95325  0.29147  0.04764  1.0000 0.1200813026
H   H42       1.0  0.04675  0.70853  0.95236  1.0000 0.1200813026
H   H43       1.0  0.58468  0.63037  0.75677  1.0000 0.1101376423
H   H44       1.0  0.41532  0.36963  0.24323  1.0000 0.1101376423
H   H45       1.0  0.95431  0.12640  0.36963  1.0000 0.1101376423
H   H46       1.0  0.04569  0.87360  0.63037  1.0000 0.1101376423
H   H47       1.0  0.82791  0.24323  0.87360  1.0000 0.1101376423
H   H48       1.0  0.17209  0.75677  0.12640  1.0000 0.1101376423
C   C1        1.0  0.52429  0.42200  0.58308  1.0000 -0.1304656519
C   C2        1.0  0.47571  0.57800  0.41692  1.0000 -0.1304656519
C   C3        1.0  0.10229  0.16108  0.57800  1.0000 -0.1304656519
C   C4        1.0  0.89771  0.83892  0.42200  1.0000 -0.1304656519
C   C5        1.0  0.94121  0.41692  0.83892  1.0000 -0.1304656519
C   C6        1.0  0.05879  0.58308  0.16108  1.0000 -0.1304656519
C   C7        1.0  0.74612  0.53180  0.74268  1.0000 0.0671960887
C   C8        1.0  0.25388  0.46820  0.25732  1.0000 0.0671960887
C   C9        1.0  0.21432  0.21088  0.46820  1.0000 0.0671960887
C   C10       1.0  0.78568  0.78912  0.53180  1.0000 0.0671960887
C   C11       1.0  0.00344  0.25732  0.78912  1.0000 0.0671960887
C   C12       1.0  0.99656  0.74268  0.21088  1.0000 0.0671960887
C   C13       1.0  0.64315  0.47738  0.75118  1.0000 -0.0775439482
C   C14       1.0  0.35685  0.52262  0.24882  1.0000 -0.0775439482
C   C15       1.0  0.16577  0.27380  0.52262  1.0000 -0.0775439482
C   C16       1.0  0.83423  0.72620  0.47738  1.0000 -0.0775439482
C   C17       1.0  0.89197  0.24882  0.72620  1.0000 -0.0775439482
C   C18       1.0  0.10803  0.75118  0.27380  1.0000 -0.0775439482
C   C19       1.0  0.63092  0.47816  0.57999  1.0000 0.090234915
C   C20       1.0  0.36908  0.52184  0.42001  1.0000 0.090234915
C   C21       1.0  0.15276  0.10184  0.52184  1.0000 0.090234915
C   C22       1.0  0.84724  0.89816  0.47816  1.0000 0.090234915
C   C23       1.0  0.05092  0.42001  0.89816  1.0000 0.090234915
C   C24       1.0  0.94908  0.57999  0.10184  1.0000 0.090234915
C   C25       1.0  0.52934  0.42050  0.66911  1.0000 -0.0319121248
C   C26       1.0  0.47066  0.57950  0.33089  1.0000 -0.0319121248
C   C27       1.0  0.10885  0.24862  0.57950  1.0000 -0.0319121248
C   C28       1.0  0.89115  0.75138  0.42050  1.0000 -0.0319121248
C   C29       1.0  0.86023  0.33089  0.75138  1.0000 -0.0319121248
C   C30       1.0  0.13977  0.66911  0.24862  1.0000 -0.0319121248
C   C31       1.0  0.38970  0.60441  0.69087  1.0000 0.1101376423
C   C32       1.0  0.61030  0.39559  0.30913  1.0000 0.1101376423
C   C33       1.0  0.78530  0.08646  0.39559  1.0000 0.1101376423
C   C34       1.0  0.21470  0.91354  0.60441  1.0000 0.1101376423
C   C35       1.0  0.69884  0.30913  0.91354  1.0000 0.1101376423
C   C36       1.0  0.30116  0.69087  0.08646  1.0000 0.1101376423
C   C37       1.0  0.34663  0.69863  0.62160  1.0000 0.0671960887
C   C38       1.0  0.65337  0.30137  0.37840  1.0000 0.0671960887
C   C39       1.0  0.64799  0.92297  0.30137  1.0000 0.0671960887
C   C40       1.0  0.35201  0.07703  0.69863  1.0000 0.0671960887
C   C41       1.0  0.72503  0.37840  0.07703  1.0000 0.0671960887
C   C42       1.0  0.27497  0.62160  0.92297  1.0000 0.0671960887
C   C43       1.0  0.47379  0.74508  0.64220  1.0000 -0.0714524752
C   C44       1.0  0.52621  0.25492  0.35780  1.0000 -0.0714524752
C   C45       1.0  0.72870  0.89711  0.25492  1.0000 -0.0714524752
C   C46       1.0  0.27130  0.10289  0.74508  1.0000 -0.0714524752
C   C47       1.0  0.83159  0.35780  0.10289  1.0000 -0.0714524752
C   C48       1.0  0.16841  0.64220  0.89711  1.0000 -0.0714524752
C   C49       1.0  0.56170  0.72004  0.69084  1.0000 -0.0319121248
C   C50       1.0  0.43830  0.27996  0.30916  1.0000 -0.0319121248
C   C51       1.0  0.84165  0.97080  0.27996  1.0000 -0.0319121248
C   C52       1.0  0.15835  0.02920  0.72004  1.0000 -0.0319121248
C   C53       1.0  0.87086  0.30916  0.02920  1.0000 -0.0319121248
C   C54       1.0  0.12914  0.69084  0.97080  1.0000 -0.0319121248
C   C55       1.0  0.51851  0.64981  0.71631  1.0000 -0.1304656519
C   C56       1.0  0.48149  0.35019  0.28369  1.0000 -0.1304656519
C   C57       1.0  0.86870  0.06650  0.35019  1.0000 -0.1304656519
C   C58       1.0  0.13130  0.93350  0.64981  1.0000 -0.1304656519
C   C59       1.0  0.80220  0.28369  0.93350  1.0000 -0.1304656519
C   C60       1.0  0.19780  0.71631  0.06650  1.0000 -0.1304656519
C   C61       1.0  0.65365  0.48591  0.84874  1.0000 0.5768094034
C   C62       1.0  0.34635  0.51409  0.15126  1.0000 0.5768094034
C   C63       1.0  0.16774  0.36282  0.51409  1.0000 0.5768094034
C   C64       1.0  0.83226  0.63718  0.48591  1.0000 0.5768094034
C   C65       1.0  0.80491  0.15126  0.63718  1.0000 0.5768094034
C   C66       1.0  0.19509  0.84874  0.36282  1.0000 0.5768094034
C   C67       1.0  0.51017  0.81978  0.61214  1.0000 0.5678276093
C   C68       1.0  0.48983  0.18022  0.38786  1.0000 0.5678276093
C   C69       1.0  0.69039  0.79236  0.18022  1.0000 0.5678276093
C   C70       1.0  0.30961  0.20764  0.81978  1.0000 0.5678276093
C   C71       1.0  0.89803  0.38786  0.20764  1.0000 0.5678276093
C   C72       1.0  0.10197  0.61214  0.79236  1.0000 0.5678276093
N   N1        1.0  0.89927  0.40559  0.55851  1.0000 0.4292531755
N   N2        1.0  0.10073  0.59441  0.44149  1.0000 0.4292531755
N   N3        1.0  0.49369  0.15292  0.59441  1.0000 0.4292531755
N   N4        1.0  0.50631  0.84708  0.40559  1.0000 0.4292531755
N   N5        1.0  0.34076  0.44149  0.84708  1.0000 0.4292531755
N   N6        1.0  0.65924  0.55851  0.15292  1.0000 0.4292531755
N   N7        1.0  0.74263  0.53318  0.65906  1.0000 -0.2286535816
N   N8        1.0  0.25737  0.46682  0.34094  1.0000 -0.2286535816
N   N9        1.0  0.20945  0.12587  0.46682  1.0000 -0.2286535816
N   N10       1.0  0.79055  0.87413  0.53318  1.0000 -0.2286535816
N   N11       1.0  0.08358  0.34094  0.87413  1.0000 -0.2286535816
N   N12       1.0  0.91642  0.65906  0.12587  1.0000 -0.2286535816
N   N13       1.0  0.30380  0.62824  0.64308  1.0000 -0.2286535816
N   N14       1.0  0.69620  0.37176  0.35692  1.0000 -0.2286535816
N   N15       1.0  0.67556  0.01485  0.37176  1.0000 -0.2286535816
N   N16       1.0  0.32444  0.98515  0.62824  1.0000 -0.2286535816
N   N17       1.0  0.66072  0.35692  0.98515  1.0000 -0.2286535816
N   N18       1.0  0.33928  0.64308  0.01485  1.0000 -0.2286535816
N   N19       1.0  0.13881  0.75152  0.70989  1.0000 0.4292531755
N   N20       1.0  0.86119  0.24848  0.29011  1.0000 0.4292531755
N   N21       1.0  0.38729  0.95837  0.24848  1.0000 0.4292531755
N   N22       1.0  0.61271  0.04163  0.75152  1.0000 0.4292531755
N   N23       1.0  0.42893  0.29011  0.04163  1.0000 0.4292531755
N   N24       1.0  0.57107  0.70989  0.95837  1.0000 0.4292531755
N   N25       1.0  0.86847  0.34514  0.57884  1.0000 -0.2495581164
N   N26       1.0  0.13153  0.65486  0.42116  1.0000 -0.2495581164
N   N27       1.0  0.52333  0.23370  0.65486  1.0000 -0.2495581164
N   N28       1.0  0.47667  0.76630  0.34514  1.0000 -0.2495581164
N   N29       1.0  0.28963  0.42116  0.76630  1.0000 -0.2495581164
N   N30       1.0  0.71037  0.57884  0.23370  1.0000 -0.2495581164
N   N31       1.0  0.05633  0.67398  0.63845  1.0000 -0.5585117766
N   N32       1.0  0.94367  0.32602  0.36155  1.0000 -0.5585117766
N   N33       1.0  0.38235  0.96447  0.32602  1.0000 -0.5585117766
N   N34       1.0  0.61765  0.03553  0.67398  1.0000 -0.5585117766
N   N35       1.0  0.41788  0.36155  0.03553  1.0000 -0.5585117766
N   N36       1.0  0.58212  0.63845  0.96447  1.0000 -0.5585117766
N   N37       1.0  0.22152  0.82410  0.77342  1.0000 -0.2758756905
N   N38       1.0  0.77848  0.17590  0.22658  1.0000 -0.2758756905
N   N39       1.0  0.39743  0.94932  0.17590  1.0000 -0.2744612723
N   N40       1.0  0.60257  0.05068  0.82410  1.0000 -0.2758756905
N   N41       1.0  0.44811  0.22658  0.05068  1.0000 -0.2744612723
N   N42       1.0  0.55189  0.77342  0.94932  1.0000 -0.2758756905
N   N43       1.0  0.92819  0.47168  0.53917  1.0000 -0.5486872424
N   N44       1.0  0.07181  0.52832  0.46083  1.0000 -0.5486872424
N   N45       1.0  0.45651  0.06749  0.52832  1.0000 -0.5486872424
N   N46       1.0  0.54349  0.93251  0.47168  1.0000 -0.5486872424
N   N47       1.0  0.38902  0.46083  0.93251  1.0000 -0.5486872424
N   N48       1.0  0.61098  0.53917  0.06749  1.0000 -0.5486872424
O   O1        1.0  0.56367  0.42671  0.84882  1.0000 -0.4986813495
O   O2        1.0  0.43633  0.57329  0.15118  1.0000 -0.4986813495
O   O3        1.0  0.13696  0.42212  0.57329  1.0000 -0.4986813495
O   O4        1.0  0.86304  0.57788  0.42671  1.0000 -0.4986813495
O   O5        1.0  0.71484  0.15118  0.57788  1.0000 -0.4986813495
O   O6        1.0  0.28516  0.84882  0.42212  1.0000 -0.4986813495
O   O7        1.0  0.75526  0.55505  0.92256  1.0000 -0.5486872424
O   O8        1.0  0.24474  0.44495  0.07744  1.0000 -0.5486872424
O   O9        1.0  0.20021  0.36751  0.44495  1.0000 -0.5486872424
O   O10       1.0  0.79979  0.63249  0.55505  1.0000 -0.5486872424
O   O11       1.0  0.83270  0.07744  0.63249  1.0000 -0.5486872424
O   O12       1.0  0.16730  0.92256  0.36751  1.0000 -0.5486872424
O   O13       1.0  0.42287  0.84181  0.57641  1.0000 -0.5065706997
O   O14       1.0  0.57713  0.15819  0.42359  1.0000 -0.5065706997
O   O15       1.0  0.58106  0.73459  0.15819  1.0000 -0.5065706997
O   O16       1.0  0.41894  0.26541  0.84181  1.0000 -0.5065706997
O   O17       1.0  0.84647  0.42359  0.26541  1.0000 -0.5065706997
O   O18       1.0  0.15353  0.57641  0.73459  1.0000 -0.5065706997
O   O19       1.0  0.62745  0.85332  0.62606  1.0000 -0.529195401
O   O20       1.0  0.37255  0.14668  0.37394  1.0000 -0.529195401
O   O21       1.0  0.77413  0.77274  0.14668  1.0000 -0.529195401
O   O22       1.0  0.22587  0.22726  0.85332  1.0000 -0.529195401
O   O23       1.0  0.00139  0.37394  0.22726  1.0000 -0.529195401
O   O24       1.0  0.99861  0.62606  0.77274  1.0000 -0.529195401
