# DDEC6 charges by PACMAN v1.1 (https://github.com/mtap-research/PACMAN-charge/)
data_2010[Gd][llj]3[ASR]1
_chemical_formula_sum              "Gd8 H40 C56 S8 O48"
_cell_length_a       17.1743
_cell_length_b       17.1743
_cell_length_c       8.5106
_cell_angle_alpha    90
_cell_angle_beta     90
_cell_angle_gamma    90

_symmetry_space_group_name_H-M    "P 1"
_symmetry_Int_Tables_number       1

loop_
  _symmetry_equiv_pos_as_xyz
  'x, y, z'

loop_
  _atom_site_type_symbol
  _atom_site_label
  _atom_site_symmetry_multiplicity
  _atom_site_fract_x
  _atom_site_fract_y
  _atom_site_fract_z
  _atom_site_occupancy
  _atom_site_charge
Gd  Gd1       1.0  0.11029  0.96313  0.15031  1.0000 2.1557289331
Gd  Gd2       1.0  0.88971  0.03687  0.15031  1.0000 2.1557289331
Gd  Gd3       1.0  0.03687  0.11029  0.84969  1.0000 2.1557289331
Gd  Gd4       1.0  0.96313  0.88971  0.84969  1.0000 2.1557289331
Gd  Gd5       1.0  0.61029  0.53687  0.34969  1.0000 2.1557289331
Gd  Gd6       1.0  0.38971  0.46313  0.34969  1.0000 2.1557289331
Gd  Gd7       1.0  0.53687  0.38971  0.65031  1.0000 2.1557289331
Gd  Gd8       1.0  0.46313  0.61029  0.65031  1.0000 2.1557289331
H   H1        1.0  0.24740  0.23620  0.44580  1.0000 0.1367759153
H   H2        1.0  0.75260  0.76380  0.44580  1.0000 0.1367759153
H   H3        1.0  0.76380  0.24740  0.55420  1.0000 0.1367759153
H   H4        1.0  0.23620  0.75260  0.55420  1.0000 0.1367759153
H   H5        1.0  0.74740  0.26380  0.05420  1.0000 0.1367759153
H   H6        1.0  0.25260  0.73620  0.05420  1.0000 0.1367759153
H   H7        1.0  0.26380  0.25260  0.94580  1.0000 0.1367759153
H   H8        1.0  0.73620  0.74740  0.94580  1.0000 0.1367759153
H   H9        1.0  0.43920  0.16670  0.67550  1.0000 0.1214688669
H   H10       1.0  0.56080  0.83330  0.67550  1.0000 0.1214688669
H   H11       1.0  0.83330  0.43920  0.32450  1.0000 0.1214688669
H   H12       1.0  0.16670  0.56080  0.32450  1.0000 0.1214688669
H   H13       1.0  0.93920  0.33333  0.82450  1.0000 0.1214688669
H   H14       1.0  0.06080  0.66667  0.82450  1.0000 0.1214688669
H   H15       1.0  0.33333  0.06080  0.17550  1.0000 0.1214688669
H   H16       1.0  0.66667  0.93920  0.17550  1.0000 0.1214688669
H   H17       1.0  0.37850  0.05120  0.74050  1.0000 0.1214688669
H   H18       1.0  0.62150  0.94880  0.74050  1.0000 0.1214688669
H   H19       1.0  0.94880  0.37850  0.25950  1.0000 0.1214688669
H   H20       1.0  0.05120  0.62150  0.25950  1.0000 0.1214688669
H   H21       1.0  0.87850  0.44880  0.75950  1.0000 0.1214688669
H   H22       1.0  0.12150  0.55120  0.75950  1.0000 0.1214688669
H   H23       1.0  0.44880  0.12150  0.24050  1.0000 0.1214688669
H   H24       1.0  0.55120  0.87850  0.24050  1.0000 0.1214688669
H   H25       1.0  0.25340  0.02520  0.64850  1.0000 0.1367759153
H   H26       1.0  0.74660  0.97480  0.64850  1.0000 0.1367759153
H   H27       1.0  0.97480  0.25340  0.35150  1.0000 0.1367759153
H   H28       1.0  0.02520  0.74660  0.35150  1.0000 0.1367759153
H   H29       1.0  0.75340  0.47480  0.85150  1.0000 0.1367759153
H   H30       1.0  0.24660  0.52520  0.85150  1.0000 0.1367759153
H   H31       1.0  0.47480  0.24660  0.14850  1.0000 0.1367759153
H   H32       1.0  0.52520  0.75340  0.14850  1.0000 0.1367759153
H   H33       1.0  0.03900  0.10900  0.20300  1.0000 0.4145471274
H   H34       1.0  0.96100  0.89100  0.20300  1.0000 0.4145471274
H   H35       1.0  0.89100  0.03900  0.79700  1.0000 0.4145471274
H   H36       1.0  0.10900  0.96100  0.79700  1.0000 0.4145471274
H   H37       1.0  0.53900  0.39100  0.29700  1.0000 0.4145471274
H   H38       1.0  0.46100  0.60900  0.29700  1.0000 0.4145471274
H   H39       1.0  0.39100  0.46100  0.70300  1.0000 0.4145471274
H   H40       1.0  0.60900  0.53900  0.70300  1.0000 0.4145471274
C   C1        1.0  0.23890  0.12860  0.54170  1.0000 -0.0991029124
C   C2        1.0  0.76110  0.87140  0.54170  1.0000 -0.0991029124
C   C3        1.0  0.87140  0.23890  0.45830  1.0000 -0.0991029124
C   C4        1.0  0.12860  0.76110  0.45830  1.0000 -0.0991029124
C   C5        1.0  0.73890  0.37140  0.95830  1.0000 -0.0991029124
C   C6        1.0  0.26110  0.62860  0.95830  1.0000 -0.0991029124
C   C7        1.0  0.37140  0.26110  0.04170  1.0000 -0.0991029124
C   C8        1.0  0.62860  0.73890  0.04170  1.0000 -0.0991029124
C   C9        1.0  0.27420  0.19890  0.50380  1.0000 -0.0991029124
C   C10       1.0  0.72580  0.80110  0.50380  1.0000 -0.0991029124
C   C11       1.0  0.80110  0.27420  0.49620  1.0000 -0.0991029124
C   C12       1.0  0.19890  0.72580  0.49620  1.0000 -0.0991029124
C   C13       1.0  0.77420  0.30110  0.99620  1.0000 -0.0991029124
C   C14       1.0  0.22580  0.69890  0.99620  1.0000 -0.0991029124
C   C15       1.0  0.30110  0.22580  0.00380  1.0000 -0.0991029124
C   C16       1.0  0.69890  0.77420  0.00380  1.0000 -0.0991029124
C   C17       1.0  0.34990  0.21290  0.55350  1.0000 -0.0335892553
C   C18       1.0  0.65010  0.78710  0.55350  1.0000 -0.0335892553
C   C19       1.0  0.78710  0.34990  0.44650  1.0000 -0.0335892553
C   C20       1.0  0.21290  0.65010  0.44650  1.0000 -0.0335892553
C   C21       1.0  0.84990  0.28710  0.94650  1.0000 -0.0335892553
C   C22       1.0  0.15010  0.71290  0.94650  1.0000 -0.0335892553
C   C23       1.0  0.28710  0.15010  0.05350  1.0000 -0.0335892553
C   C24       1.0  0.71290  0.84990  0.05350  1.0000 -0.0335892553
C   C25       1.0  0.38990  0.28720  0.51060  1.0000 0.6279949516
C   C26       1.0  0.61010  0.71280  0.51060  1.0000 0.6279949516
C   C27       1.0  0.71280  0.38990  0.48940  1.0000 0.6279949516
C   C28       1.0  0.28720  0.61010  0.48940  1.0000 0.6279949516
C   C29       1.0  0.88990  0.21280  0.98940  1.0000 0.6279949516
C   C30       1.0  0.11010  0.78720  0.98940  1.0000 0.6279949516
C   C31       1.0  0.21280  0.11010  0.01060  1.0000 0.6279949516
C   C32       1.0  0.78720  0.88990  0.01060  1.0000 0.6279949516
C   C33       1.0  0.38860  0.15730  0.64160  1.0000 -0.0896727045
C   C34       1.0  0.61140  0.84270  0.64160  1.0000 -0.0896727045
C   C35       1.0  0.84270  0.38860  0.35840  1.0000 -0.0896727045
C   C36       1.0  0.15730  0.61140  0.35840  1.0000 -0.0896727045
C   C37       1.0  0.88860  0.34270  0.85840  1.0000 -0.0896727045
C   C38       1.0  0.11140  0.65730  0.85840  1.0000 -0.0896727045
C   C39       1.0  0.34270  0.11140  0.14160  1.0000 -0.0896727045
C   C40       1.0  0.65730  0.88860  0.14160  1.0000 -0.0896727045
C   C41       1.0  0.35250  0.08780  0.67950  1.0000 -0.0991029124
C   C42       1.0  0.64750  0.91220  0.67950  1.0000 -0.0991029124
C   C43       1.0  0.91220  0.35250  0.32050  1.0000 -0.0991029124
C   C44       1.0  0.08780  0.64750  0.32050  1.0000 -0.0991029124
C   C45       1.0  0.85250  0.41220  0.82050  1.0000 -0.0991029124
C   C46       1.0  0.14750  0.58780  0.82050  1.0000 -0.0991029124
C   C47       1.0  0.41220  0.14750  0.17950  1.0000 -0.0991029124
C   C48       1.0  0.58780  0.85250  0.17950  1.0000 -0.0991029124
C   C49       1.0  0.27730  0.07260  0.62660  1.0000 -0.0800632716
C   C50       1.0  0.72270  0.92740  0.62660  1.0000 -0.0800632716
C   C51       1.0  0.92740  0.27730  0.37340  1.0000 -0.0800632716
C   C52       1.0  0.07260  0.72270  0.37340  1.0000 -0.0800632716
C   C53       1.0  0.77730  0.42740  0.87340  1.0000 -0.0800632716
C   C54       1.0  0.22270  0.57260  0.87340  1.0000 -0.0800632716
C   C55       1.0  0.42740  0.22270  0.12660  1.0000 -0.0800632716
C   C56       1.0  0.57260  0.77730  0.12660  1.0000 -0.0800632716
S   S1        1.0  0.14314  0.10823  0.47634  1.0000 1.2568488687
S   S2        1.0  0.85686  0.89177  0.47634  1.0000 1.2568488687
S   S3        1.0  0.89177  0.14314  0.52366  1.0000 1.2568488687
S   S4        1.0  0.10823  0.85686  0.52366  1.0000 1.2568488687
S   S5        1.0  0.64314  0.39177  0.02366  1.0000 1.2568488687
S   S6        1.0  0.35686  0.60823  0.02366  1.0000 1.2568488687
S   S7        1.0  0.39177  0.35686  0.97634  1.0000 1.2568488687
S   S8        1.0  0.60823  0.64314  0.97634  1.0000 1.2568488687
O   O1        1.0  0.15102  0.05046  0.35300  1.0000 -0.7005506486
O   O2        1.0  0.84898  0.94954  0.35300  1.0000 -0.7005506486
O   O3        1.0  0.94954  0.15102  0.64700  1.0000 -0.7005506486
O   O4        1.0  0.05046  0.84898  0.64700  1.0000 -0.7005506486
O   O5        1.0  0.65102  0.44954  0.14700  1.0000 -0.7005506486
O   O6        1.0  0.34898  0.55046  0.14700  1.0000 -0.7005506486
O   O7        1.0  0.44954  0.34898  0.85300  1.0000 -0.7005506486
O   O8        1.0  0.55046  0.65102  0.85300  1.0000 -0.7005506486
O   O9        1.0  0.10363  0.07553  0.61350  1.0000 -0.7005506486
O   O10       1.0  0.89637  0.92447  0.61350  1.0000 -0.7005506486
O   O11       1.0  0.92447  0.10363  0.38650  1.0000 -0.7005506486
O   O12       1.0  0.07553  0.89637  0.38650  1.0000 -0.7005506486
O   O13       1.0  0.60363  0.42447  0.88650  1.0000 -0.7005506486
O   O14       1.0  0.39637  0.57553  0.88650  1.0000 -0.7005506486
O   O15       1.0  0.42447  0.39637  0.11350  1.0000 -0.7005506486
O   O16       1.0  0.57553  0.60363  0.11350  1.0000 -0.7005506486
O   O17       1.0  0.10829  0.17972  0.41830  1.0000 -0.5874489874
O   O18       1.0  0.89171  0.82028  0.41830  1.0000 -0.5874489874
O   O19       1.0  0.82028  0.10829  0.58170  1.0000 -0.5874489874
O   O20       1.0  0.17972  0.89171  0.58170  1.0000 -0.5874489874
O   O21       1.0  0.60829  0.32028  0.08170  1.0000 -0.5874489874
O   O22       1.0  0.39171  0.67972  0.08170  1.0000 -0.5874489874
O   O23       1.0  0.32028  0.39171  0.91830  1.0000 -0.5874489874
O   O24       1.0  0.67972  0.60829  0.91830  1.0000 -0.5874489874
O   O25       1.0  0.35081  0.34215  0.45710  1.0000 -0.6417088837
O   O26       1.0  0.64919  0.65785  0.45710  1.0000 -0.6417088837
O   O27       1.0  0.65785  0.35081  0.54290  1.0000 -0.6417088837
O   O28       1.0  0.34215  0.64919  0.54290  1.0000 -0.6417088837
O   O29       1.0  0.85081  0.15785  0.04290  1.0000 -0.6417088837
O   O30       1.0  0.14919  0.84215  0.04290  1.0000 -0.6417088837
O   O31       1.0  0.15785  0.14919  0.95710  1.0000 -0.6417088837
O   O32       1.0  0.84215  0.85081  0.95710  1.0000 -0.6417088837
O   O33       1.0  0.46397  0.28987  0.53080  1.0000 -0.6848939091
O   O34       1.0  0.53603  0.71013  0.53080  1.0000 -0.6848939091
O   O35       1.0  0.71013  0.46397  0.46920  1.0000 -0.6848939091
O   O36       1.0  0.28987  0.53603  0.46920  1.0000 -0.6848939091
O   O37       1.0  0.96397  0.21013  0.96920  1.0000 -0.6848939091
O   O38       1.0  0.03603  0.78987  0.96920  1.0000 -0.6848939091
O   O39       1.0  0.21013  0.03603  0.03080  1.0000 -0.6848939091
O   O40       1.0  0.78987  0.96397  0.03080  1.0000 -0.6848939091
O   O41       1.0  0.02599  0.07367  0.12190  1.0000 -1.1558223993
O   O42       1.0  0.97401  0.92633  0.12190  1.0000 -1.1558223993
O   O43       1.0  0.92633  0.02599  0.87810  1.0000 -1.1558223993
O   O44       1.0  0.07367  0.97401  0.87810  1.0000 -1.1558223993
O   O45       1.0  0.52599  0.42633  0.37810  1.0000 -1.1558223993
O   O46       1.0  0.47401  0.57367  0.37810  1.0000 -1.1558223993
O   O47       1.0  0.42633  0.47401  0.62190  1.0000 -1.1558223993
O   O48       1.0  0.57367  0.52599  0.62190  1.0000 -1.1558223993
