# DDEC6 charges by PACMAN v1.1 (https://github.com/mtap-research/PACMAN-charge/)
data_2010[Co][nts]3[ASR]1
_chemical_formula_sum              "Co24 H120 C264 N24 O120"
_cell_length_a       29.9154
_cell_length_b       29.9154
_cell_length_c       29.9154
_cell_angle_alpha    60
_cell_angle_beta     60
_cell_angle_gamma    60

_symmetry_space_group_name_H-M    "P 1"
_symmetry_Int_Tables_number       1

loop_
  _symmetry_equiv_pos_as_xyz
  'x, y, z'

loop_
  _atom_site_type_symbol
  _atom_site_label
  _atom_site_symmetry_multiplicity
  _atom_site_fract_x
  _atom_site_fract_y
  _atom_site_fract_z
  _atom_site_occupancy
  _atom_site_charge
Co  Co1       1.0  0.36171  0.98725  0.01275  1.0000 0.980830135
Co  Co2       1.0  0.98725  0.36171  0.63829  1.0000 0.980830135
Co  Co3       1.0  0.01275  0.63829  0.36171  1.0000 0.980830135
Co  Co4       1.0  0.63829  0.01275  0.98725  1.0000 0.980830135
Co  Co5       1.0  0.01275  0.36171  0.98725  1.0000 0.980830135
Co  Co6       1.0  0.63829  0.98725  0.36171  1.0000 0.980830135
Co  Co7       1.0  0.36171  0.01275  0.63829  1.0000 0.980830135
Co  Co8       1.0  0.98725  0.63829  0.01275  1.0000 0.980830135
Co  Co9       1.0  0.98725  0.01275  0.36171  1.0000 0.980830135
Co  Co10      1.0  0.36171  0.63829  0.98725  1.0000 0.980830135
Co  Co11      1.0  0.63829  0.36171  0.01275  1.0000 0.980830135
Co  Co12      1.0  0.01275  0.98725  0.63829  1.0000 0.980830135
Co  Co13      1.0  0.26519  0.98851  0.01149  1.0000 0.988938145
Co  Co14      1.0  0.98851  0.26519  0.73481  1.0000 0.988938145
Co  Co15      1.0  0.01149  0.73481  0.26519  1.0000 0.988938145
Co  Co16      1.0  0.73481  0.01149  0.98851  1.0000 0.988938145
Co  Co17      1.0  0.01149  0.26519  0.98851  1.0000 0.988938145
Co  Co18      1.0  0.73481  0.98851  0.26519  1.0000 0.988938145
Co  Co19      1.0  0.26519  0.01149  0.73481  1.0000 0.988938145
Co  Co20      1.0  0.98851  0.73481  0.01149  1.0000 0.988938145
Co  Co21      1.0  0.98851  0.01149  0.26519  1.0000 0.988938145
Co  Co22      1.0  0.26519  0.73481  0.98851  1.0000 0.988938145
Co  Co23      1.0  0.73481  0.26519  0.01149  1.0000 0.988938145
Co  Co24      1.0  0.01149  0.98851  0.73481  1.0000 0.988938145
H   H1        1.0  0.17850  0.15950  0.98490  1.0000 0.1391582293
H   H2        1.0  0.15950  0.17850  0.67710  1.0000 0.1391582293
H   H3        1.0  0.98490  0.67710  0.17850  1.0000 0.1391582293
H   H4        1.0  0.67710  0.98490  0.15950  1.0000 0.1391582293
H   H5        1.0  0.98490  0.17850  0.15950  1.0000 0.1391582293
H   H6        1.0  0.67710  0.15950  0.17850  1.0000 0.1391582293
H   H7        1.0  0.17850  0.98490  0.67710  1.0000 0.1391582293
H   H8        1.0  0.15950  0.67710  0.98490  1.0000 0.1391582293
H   H9        1.0  0.15950  0.98490  0.17850  1.0000 0.1391582293
H   H10       1.0  0.17850  0.67710  0.15950  1.0000 0.1391582293
H   H11       1.0  0.67710  0.17850  0.98490  1.0000 0.1391582293
H   H12       1.0  0.98490  0.15950  0.67710  1.0000 0.1391582293
H   H13       1.0  0.82150  0.84050  0.01510  1.0000 0.1391582293
H   H14       1.0  0.84050  0.82150  0.32290  1.0000 0.1391582293
H   H15       1.0  0.01510  0.32290  0.82150  1.0000 0.1391582293
H   H16       1.0  0.32290  0.01510  0.84050  1.0000 0.1391582293
H   H17       1.0  0.01510  0.82150  0.84050  1.0000 0.1391582293
H   H18       1.0  0.32290  0.84050  0.82150  1.0000 0.1391582293
H   H19       1.0  0.82150  0.01510  0.32290  1.0000 0.1391582293
H   H20       1.0  0.84050  0.32290  0.01510  1.0000 0.1391582293
H   H21       1.0  0.84050  0.01510  0.82150  1.0000 0.1391582293
H   H22       1.0  0.82150  0.32290  0.84050  1.0000 0.1391582293
H   H23       1.0  0.32290  0.82150  0.01510  1.0000 0.1391582293
H   H24       1.0  0.01510  0.84050  0.32290  1.0000 0.1391582293
H   H25       1.0  0.18450  0.30070  0.96450  1.0000 0.1391582293
H   H26       1.0  0.30070  0.18450  0.55030  1.0000 0.1391582293
H   H27       1.0  0.96450  0.55030  0.18450  1.0000 0.1391582293
H   H28       1.0  0.55030  0.96450  0.30070  1.0000 0.1391582293
H   H29       1.0  0.96450  0.18450  0.30070  1.0000 0.1391582293
H   H30       1.0  0.55030  0.30070  0.18450  1.0000 0.1391582293
H   H31       1.0  0.18450  0.96450  0.55030  1.0000 0.1391582293
H   H32       1.0  0.30070  0.55030  0.96450  1.0000 0.1391582293
H   H33       1.0  0.30070  0.96450  0.18450  1.0000 0.1391582293
H   H34       1.0  0.18450  0.55030  0.30070  1.0000 0.1391582293
H   H35       1.0  0.55030  0.18450  0.96450  1.0000 0.1391582293
H   H36       1.0  0.96450  0.30070  0.55030  1.0000 0.1391582293
H   H37       1.0  0.81550  0.69930  0.03550  1.0000 0.1391582293
H   H38       1.0  0.69930  0.81550  0.44970  1.0000 0.1391582293
H   H39       1.0  0.03550  0.44970  0.81550  1.0000 0.1391582293
H   H40       1.0  0.44970  0.03550  0.69930  1.0000 0.1391582293
H   H41       1.0  0.03550  0.81550  0.69930  1.0000 0.1391582293
H   H42       1.0  0.44970  0.69930  0.81550  1.0000 0.1391582293
H   H43       1.0  0.81550  0.03550  0.44970  1.0000 0.1391582293
H   H44       1.0  0.69930  0.44970  0.03550  1.0000 0.1391582293
H   H45       1.0  0.69930  0.03550  0.81550  1.0000 0.1391582293
H   H46       1.0  0.81550  0.44970  0.69930  1.0000 0.1391582293
H   H47       1.0  0.44970  0.81550  0.03550  1.0000 0.1391582293
H   H48       1.0  0.03550  0.69930  0.44970  1.0000 0.1391582293
H   H49       1.0  0.31160  0.16280  0.98420  1.0000 0.1391582293
H   H50       1.0  0.16280  0.31160  0.54140  1.0000 0.1344233077
H   H51       1.0  0.98420  0.54140  0.31160  1.0000 0.1391582293
H   H52       1.0  0.54140  0.98420  0.16280  1.0000 0.1391582293
H   H53       1.0  0.98420  0.31160  0.16280  1.0000 0.1344233077
H   H54       1.0  0.54140  0.16280  0.31160  1.0000 0.1344233077
H   H55       1.0  0.31160  0.98420  0.54140  1.0000 0.1391582293
H   H56       1.0  0.16280  0.54140  0.98420  1.0000 0.1344233077
H   H57       1.0  0.16280  0.98420  0.31160  1.0000 0.1344233077
H   H58       1.0  0.31160  0.54140  0.16280  1.0000 0.1344233077
H   H59       1.0  0.54140  0.31160  0.98420  1.0000 0.1391582293
H   H60       1.0  0.98420  0.16280  0.54140  1.0000 0.1344233077
H   H61       1.0  0.68840  0.83720  0.01580  1.0000 0.1391582293
H   H62       1.0  0.83720  0.68840  0.45860  1.0000 0.1391582293
H   H63       1.0  0.01580  0.45860  0.68840  1.0000 0.1391582293
H   H64       1.0  0.45860  0.01580  0.83720  1.0000 0.1344233077
H   H65       1.0  0.01580  0.68840  0.83720  1.0000 0.1391582293
H   H66       1.0  0.45860  0.83720  0.68840  1.0000 0.1344233077
H   H67       1.0  0.68840  0.01580  0.45860  1.0000 0.1344233077
H   H68       1.0  0.83720  0.45860  0.01580  1.0000 0.1344233077
H   H69       1.0  0.83720  0.01580  0.68840  1.0000 0.1344233077
H   H70       1.0  0.68840  0.45860  0.83720  1.0000 0.1344233077
H   H71       1.0  0.45860  0.68840  0.01580  1.0000 0.1344233077
H   H72       1.0  0.01580  0.83720  0.45860  1.0000 0.1344233077
H   H73       1.0  0.30970  0.24290  0.97970  1.0000 0.2760098674
H   H74       1.0  0.24290  0.30970  0.46770  1.0000 0.2760098674
H   H75       1.0  0.97970  0.46770  0.30970  1.0000 0.2760098674
H   H76       1.0  0.46770  0.97970  0.24290  1.0000 0.2760098674
H   H77       1.0  0.97970  0.30970  0.24290  1.0000 0.2760098674
H   H78       1.0  0.46770  0.24290  0.30970  1.0000 0.2760098674
H   H79       1.0  0.30970  0.97970  0.46770  1.0000 0.2760098674
H   H80       1.0  0.24290  0.46770  0.97970  1.0000 0.2760098674
H   H81       1.0  0.24290  0.97970  0.30970  1.0000 0.2760098674
H   H82       1.0  0.30970  0.46770  0.24290  1.0000 0.2760098674
H   H83       1.0  0.46770  0.30970  0.97970  1.0000 0.2760098674
H   H84       1.0  0.97970  0.24290  0.46770  1.0000 0.2744083773
H   H85       1.0  0.69030  0.75710  0.02030  1.0000 0.2760098674
H   H86       1.0  0.75710  0.69030  0.53230  1.0000 0.2760098674
H   H87       1.0  0.02030  0.53230  0.69030  1.0000 0.2760098674
H   H88       1.0  0.53230  0.02030  0.75710  1.0000 0.2760098674
H   H89       1.0  0.02030  0.69030  0.75710  1.0000 0.2760098674
H   H90       1.0  0.53230  0.75710  0.69030  1.0000 0.2760098674
H   H91       1.0  0.69030  0.02030  0.53230  1.0000 0.2760098674
H   H92       1.0  0.75710  0.53230  0.02030  1.0000 0.2760098674
H   H93       1.0  0.75710  0.02030  0.69030  1.0000 0.2744083773
H   H94       1.0  0.69030  0.53230  0.75710  1.0000 0.2760098674
H   H95       1.0  0.53230  0.69030  0.02030  1.0000 0.2760098674
H   H96       1.0  0.02030  0.75710  0.53230  1.0000 0.2760098674
H   H97       1.0  0.38350  0.26330  0.94810  1.0000 0.1218768466
H   H98       1.0  0.26330  0.38350  0.40510  1.0000 0.1218768466
H   H99       1.0  0.94810  0.40510  0.38350  1.0000 0.1218768466
H   H100      1.0  0.40510  0.94810  0.26330  1.0000 0.1218768466
H   H101      1.0  0.94810  0.38350  0.26330  1.0000 0.1218768466
H   H102      1.0  0.40510  0.26330  0.38350  1.0000 0.1218768466
H   H103      1.0  0.38350  0.94810  0.40510  1.0000 0.1218768466
H   H104      1.0  0.26330  0.40510  0.94810  1.0000 0.1218768466
H   H105      1.0  0.26330  0.94810  0.38350  1.0000 0.1218768466
H   H106      1.0  0.38350  0.40510  0.26330  1.0000 0.1218768466
H   H107      1.0  0.40510  0.38350  0.94810  1.0000 0.1218768466
H   H108      1.0  0.94810  0.26330  0.40510  1.0000 0.1218768466
H   H109      1.0  0.61650  0.73670  0.05190  1.0000 0.1218768466
H   H110      1.0  0.73670  0.61650  0.59490  1.0000 0.1218768466
H   H111      1.0  0.05190  0.59490  0.61650  1.0000 0.1218768466
H   H112      1.0  0.59490  0.05190  0.73670  1.0000 0.1218768466
H   H113      1.0  0.05190  0.61650  0.73670  1.0000 0.1218768466
H   H114      1.0  0.59490  0.73670  0.61650  1.0000 0.1218768466
H   H115      1.0  0.61650  0.05190  0.59490  1.0000 0.1218768466
H   H116      1.0  0.73670  0.59490  0.05190  1.0000 0.1218768466
H   H117      1.0  0.73670  0.05190  0.61650  1.0000 0.1218768466
H   H118      1.0  0.61650  0.59490  0.73670  1.0000 0.1218768466
H   H119      1.0  0.59490  0.61650  0.05190  1.0000 0.1218768466
H   H120      1.0  0.05190  0.73670  0.59490  1.0000 0.1218768466
C   C1        1.0  0.11390  0.26370  0.97490  1.0000 0.5956325899
C   C2        1.0  0.26370  0.11390  0.64750  1.0000 0.5956325899
C   C3        1.0  0.97490  0.64750  0.11390  1.0000 0.5956325899
C   C4        1.0  0.64750  0.97490  0.26370  1.0000 0.5933467909
C   C5        1.0  0.97490  0.11390  0.26370  1.0000 0.5956325899
C   C6        1.0  0.64750  0.26370  0.11390  1.0000 0.5956325899
C   C7        1.0  0.11390  0.97490  0.64750  1.0000 0.5956325899
C   C8        1.0  0.26370  0.64750  0.97490  1.0000 0.5956325899
C   C9        1.0  0.26370  0.97490  0.11390  1.0000 0.5956325899
C   C10       1.0  0.11390  0.64750  0.26370  1.0000 0.5956325899
C   C11       1.0  0.64750  0.11390  0.97490  1.0000 0.5933467909
C   C12       1.0  0.97490  0.26370  0.64750  1.0000 0.5956325899
C   C13       1.0  0.88610  0.73630  0.02510  1.0000 0.5956325899
C   C14       1.0  0.73630  0.88610  0.35250  1.0000 0.5956325899
C   C15       1.0  0.02510  0.35250  0.88610  1.0000 0.5956325899
C   C16       1.0  0.35250  0.02510  0.73630  1.0000 0.5956325899
C   C17       1.0  0.02510  0.88610  0.73630  1.0000 0.5956325899
C   C18       1.0  0.35250  0.73630  0.88610  1.0000 0.5956325899
C   C19       1.0  0.88610  0.02510  0.35250  1.0000 0.5933467909
C   C20       1.0  0.73630  0.35250  0.02510  1.0000 0.5933467909
C   C21       1.0  0.73630  0.02510  0.88610  1.0000 0.5956325899
C   C22       1.0  0.88610  0.35250  0.73630  1.0000 0.5956325899
C   C23       1.0  0.35250  0.88610  0.02510  1.0000 0.5956325899
C   C24       1.0  0.02510  0.73630  0.35250  1.0000 0.5933467909
C   C25       1.0  0.27671  0.09089  0.99529  1.0000 0.5933467909
C   C26       1.0  0.09089  0.27671  0.63711  1.0000 0.5933467909
C   C27       1.0  0.99529  0.63711  0.27671  1.0000 0.5933467909
C   C28       1.0  0.63711  0.99529  0.09089  1.0000 0.5933467909
C   C29       1.0  0.99529  0.27671  0.09089  1.0000 0.5933467909
C   C30       1.0  0.63711  0.09089  0.27671  1.0000 0.5933467909
C   C31       1.0  0.27671  0.99529  0.63711  1.0000 0.5933467909
C   C32       1.0  0.09089  0.63711  0.99529  1.0000 0.5933467909
C   C33       1.0  0.09089  0.99529  0.27671  1.0000 0.5933467909
C   C34       1.0  0.27671  0.63711  0.09089  1.0000 0.5933467909
C   C35       1.0  0.63711  0.27671  0.99529  1.0000 0.5933467909
C   C36       1.0  0.99529  0.09089  0.63711  1.0000 0.5933467909
C   C37       1.0  0.72329  0.90911  0.00471  1.0000 0.5933467909
C   C38       1.0  0.90911  0.72329  0.36289  1.0000 0.5933467909
C   C39       1.0  0.00471  0.36289  0.72329  1.0000 0.5933467909
C   C40       1.0  0.36289  0.00471  0.90911  1.0000 0.5933467909
C   C41       1.0  0.00471  0.72329  0.90911  1.0000 0.5933467909
C   C42       1.0  0.36289  0.90911  0.72329  1.0000 0.5933467909
C   C43       1.0  0.72329  0.00471  0.36289  1.0000 0.5933467909
C   C44       1.0  0.90911  0.36289  0.00471  1.0000 0.5933467909
C   C45       1.0  0.90911  0.00471  0.72329  1.0000 0.5933467909
C   C46       1.0  0.72329  0.36289  0.90911  1.0000 0.5933467909
C   C47       1.0  0.36289  0.72329  0.00471  1.0000 0.5933467909
C   C48       1.0  0.00471  0.90911  0.36289  1.0000 0.5933467909
C   C49       1.0  0.24995  0.15175  0.98465  1.0000 -0.00351451
C   C50       1.0  0.15175  0.24995  0.61365  1.0000 -0.00351451
C   C51       1.0  0.98465  0.61365  0.24995  1.0000 -0.00351451
C   C52       1.0  0.61365  0.98465  0.15175  1.0000 -0.00351451
C   C53       1.0  0.98465  0.24995  0.15175  1.0000 -0.00351451
C   C54       1.0  0.61365  0.15175  0.24995  1.0000 -0.00351451
C   C55       1.0  0.24995  0.98465  0.61365  1.0000 -0.00351451
C   C56       1.0  0.15175  0.61365  0.98465  1.0000 -0.00351451
C   C57       1.0  0.15175  0.98465  0.24995  1.0000 -0.00351451
C   C58       1.0  0.24995  0.61365  0.15175  1.0000 -0.00351451
C   C59       1.0  0.61365  0.24995  0.98465  1.0000 -0.00351451
C   C60       1.0  0.98465  0.15175  0.61365  1.0000 -0.00351451
C   C61       1.0  0.75005  0.84825  0.01535  1.0000 -0.00351451
C   C62       1.0  0.84825  0.75005  0.38635  1.0000 -0.00351451
C   C63       1.0  0.01535  0.38635  0.75005  1.0000 -0.00351451
C   C64       1.0  0.38635  0.01535  0.84825  1.0000 -0.00351451
C   C65       1.0  0.01535  0.75005  0.84825  1.0000 -0.00351451
C   C66       1.0  0.38635  0.84825  0.75005  1.0000 -0.00351451
C   C67       1.0  0.75005  0.01535  0.38635  1.0000 -0.00351451
C   C68       1.0  0.84825  0.38635  0.01535  1.0000 -0.00351451
C   C69       1.0  0.84825  0.01535  0.75005  1.0000 -0.00351451
C   C70       1.0  0.75005  0.38635  0.84825  1.0000 -0.00351451
C   C71       1.0  0.38635  0.75005  0.01535  1.0000 -0.00351451
C   C72       1.0  0.01535  0.84825  0.38635  1.0000 -0.00351451
C   C73       1.0  0.19710  0.17870  0.98190  1.0000 -0.1076884057
C   C74       1.0  0.17870  0.19710  0.64230  1.0000 -0.1076884057
C   C75       1.0  0.98190  0.64230  0.19710  1.0000 -0.1076884057
C   C76       1.0  0.64230  0.98190  0.17870  1.0000 -0.1076884057
C   C77       1.0  0.98190  0.19710  0.17870  1.0000 -0.1076884057
C   C78       1.0  0.64230  0.17870  0.19710  1.0000 -0.1076884057
C   C79       1.0  0.19710  0.98190  0.64230  1.0000 -0.1076884057
C   C80       1.0  0.17870  0.64230  0.98190  1.0000 -0.1076884057
C   C81       1.0  0.17870  0.98190  0.19710  1.0000 -0.1076884057
C   C82       1.0  0.19710  0.64230  0.17870  1.0000 -0.1076884057
C   C83       1.0  0.64230  0.19710  0.98190  1.0000 -0.1076884057
C   C84       1.0  0.98190  0.17870  0.64230  1.0000 -0.1076884057
C   C85       1.0  0.80290  0.82130  0.01810  1.0000 -0.1076884057
C   C86       1.0  0.82130  0.80290  0.35770  1.0000 -0.1076884057
C   C87       1.0  0.01810  0.35770  0.80290  1.0000 -0.1076884057
C   C88       1.0  0.35770  0.01810  0.82130  1.0000 -0.1076884057
C   C89       1.0  0.01810  0.80290  0.82130  1.0000 -0.1076884057
C   C90       1.0  0.35770  0.82130  0.80290  1.0000 -0.1076884057
C   C91       1.0  0.80290  0.01810  0.35770  1.0000 -0.1076884057
C   C92       1.0  0.82130  0.35770  0.01810  1.0000 -0.1076884057
C   C93       1.0  0.82130  0.01810  0.80290  1.0000 -0.1076884057
C   C94       1.0  0.80290  0.35770  0.82130  1.0000 -0.1076884057
C   C95       1.0  0.35770  0.80290  0.01810  1.0000 -0.1076884057
C   C96       1.0  0.01810  0.82130  0.35770  1.0000 -0.1076884057
C   C97       1.0  0.17227  0.23473  0.97483  1.0000 0.0021676123
C   C98       1.0  0.23473  0.17227  0.61817  1.0000 0.0021676123
C   C99       1.0  0.97483  0.61817  0.17227  1.0000 0.0021676123
C   C100      1.0  0.61817  0.97483  0.23473  1.0000 0.0021676123
C   C101      1.0  0.97483  0.17227  0.23473  1.0000 0.0021676123
C   C102      1.0  0.61817  0.23473  0.17227  1.0000 0.0021676123
C   C103      1.0  0.17227  0.97483  0.61817  1.0000 0.0021676123
C   C104      1.0  0.23473  0.61817  0.97483  1.0000 0.0021676123
C   C105      1.0  0.23473  0.97483  0.17227  1.0000 0.0021676123
C   C106      1.0  0.17227  0.61817  0.23473  1.0000 0.0021676123
C   C107      1.0  0.61817  0.17227  0.97483  1.0000 0.0021676123
C   C108      1.0  0.97483  0.23473  0.61817  1.0000 0.0021676123
C   C109      1.0  0.82773  0.76527  0.02517  1.0000 0.0021676123
C   C110      1.0  0.76527  0.82773  0.38183  1.0000 0.0021676123
C   C111      1.0  0.02517  0.38183  0.82773  1.0000 0.0021676123
C   C112      1.0  0.38183  0.02517  0.76527  1.0000 0.0021676123
C   C113      1.0  0.02517  0.82773  0.76527  1.0000 0.0021676123
C   C114      1.0  0.38183  0.76527  0.82773  1.0000 0.0021676123
C   C115      1.0  0.82773  0.02517  0.38183  1.0000 0.0021676123
C   C116      1.0  0.76527  0.38183  0.02517  1.0000 0.0021676123
C   C117      1.0  0.76527  0.02517  0.82773  1.0000 0.0021676123
C   C118      1.0  0.82773  0.38183  0.76527  1.0000 0.0021676123
C   C119      1.0  0.38183  0.82773  0.02517  1.0000 0.0021676123
C   C120      1.0  0.02517  0.76527  0.38183  1.0000 0.0021676123
C   C121      1.0  0.20090  0.26350  0.96930  1.0000 -0.1700530702
C   C122      1.0  0.26350  0.20090  0.56630  1.0000 -0.1700530702
C   C123      1.0  0.96930  0.56630  0.20090  1.0000 -0.1700530702
C   C124      1.0  0.56630  0.96930  0.26350  1.0000 -0.1700530702
C   C125      1.0  0.96930  0.20090  0.26350  1.0000 -0.1700530702
C   C126      1.0  0.56630  0.26350  0.20090  1.0000 -0.1700530702
C   C127      1.0  0.20090  0.96930  0.56630  1.0000 -0.1700530702
C   C128      1.0  0.26350  0.56630  0.96930  1.0000 -0.1700530702
C   C129      1.0  0.26350  0.96930  0.20090  1.0000 -0.1700530702
C   C130      1.0  0.20090  0.56630  0.26350  1.0000 -0.1700530702
C   C131      1.0  0.56630  0.20090  0.96930  1.0000 -0.1700530702
C   C132      1.0  0.96930  0.26350  0.56630  1.0000 -0.1700530702
C   C133      1.0  0.79910  0.73650  0.03070  1.0000 -0.1700530702
C   C134      1.0  0.73650  0.79910  0.43370  1.0000 -0.1700530702
C   C135      1.0  0.03070  0.43370  0.79910  1.0000 -0.1700530702
C   C136      1.0  0.43370  0.03070  0.73650  1.0000 -0.1700530702
C   C137      1.0  0.03070  0.79910  0.73650  1.0000 -0.1700530702
C   C138      1.0  0.43370  0.73650  0.79910  1.0000 -0.1700530702
C   C139      1.0  0.79910  0.03070  0.43370  1.0000 -0.1700530702
C   C140      1.0  0.73650  0.43370  0.03070  1.0000 -0.1700530702
C   C141      1.0  0.73650  0.03070  0.79910  1.0000 -0.1700530702
C   C142      1.0  0.79910  0.43370  0.73650  1.0000 -0.1700530702
C   C143      1.0  0.43370  0.79910  0.03070  1.0000 -0.1700530702
C   C144      1.0  0.03070  0.73650  0.43370  1.0000 -0.1700530702
C   C145      1.0  0.25270  0.23670  0.97110  1.0000 0.1982574912
C   C146      1.0  0.23670  0.25270  0.53950  1.0000 0.1982574912
C   C147      1.0  0.97110  0.53950  0.25270  1.0000 0.1982574912
C   C148      1.0  0.53950  0.97110  0.23670  1.0000 0.1982574912
C   C149      1.0  0.97110  0.25270  0.23670  1.0000 0.1982574912
C   C150      1.0  0.53950  0.23670  0.25270  1.0000 0.1982574912
C   C151      1.0  0.25270  0.97110  0.53950  1.0000 0.1982574912
C   C152      1.0  0.23670  0.53950  0.97110  1.0000 0.1982574912
C   C153      1.0  0.23670  0.97110  0.25270  1.0000 0.1982574912
C   C154      1.0  0.25270  0.53950  0.23670  1.0000 0.1982574912
C   C155      1.0  0.53950  0.25270  0.97110  1.0000 0.1982574912
C   C156      1.0  0.97110  0.23670  0.53950  1.0000 0.1982574912
C   C157      1.0  0.74730  0.76330  0.02890  1.0000 0.1982574912
C   C158      1.0  0.76330  0.74730  0.46050  1.0000 0.1982574912
C   C159      1.0  0.02890  0.46050  0.74730  1.0000 0.1982574912
C   C160      1.0  0.46050  0.02890  0.76330  1.0000 0.1982574912
C   C161      1.0  0.02890  0.74730  0.76330  1.0000 0.1982574912
C   C162      1.0  0.46050  0.76330  0.74730  1.0000 0.1982574912
C   C163      1.0  0.74730  0.02890  0.46050  1.0000 0.1982574912
C   C164      1.0  0.76330  0.46050  0.02890  1.0000 0.1982574912
C   C165      1.0  0.76330  0.02890  0.74730  1.0000 0.1982574912
C   C166      1.0  0.74730  0.46050  0.76330  1.0000 0.1982574912
C   C167      1.0  0.46050  0.74730  0.02890  1.0000 0.1982574912
C   C168      1.0  0.02890  0.76330  0.46050  1.0000 0.1982574912
C   C169      1.0  0.27700  0.18080  0.98060  1.0000 -0.2002059219
C   C170      1.0  0.18080  0.27700  0.56160  1.0000 -0.2002059219
C   C171      1.0  0.98060  0.56160  0.27700  1.0000 -0.2002059219
C   C172      1.0  0.56160  0.98060  0.18080  1.0000 -0.2002059219
C   C173      1.0  0.98060  0.27700  0.18080  1.0000 -0.2002059219
C   C174      1.0  0.56160  0.18080  0.27700  1.0000 -0.2002059219
C   C175      1.0  0.27700  0.98060  0.56160  1.0000 -0.2002059219
C   C176      1.0  0.18080  0.56160  0.98060  1.0000 -0.2002059219
C   C177      1.0  0.18080  0.98060  0.27700  1.0000 -0.2002059219
C   C178      1.0  0.27700  0.56160  0.18080  1.0000 -0.2002059219
C   C179      1.0  0.56160  0.27700  0.98060  1.0000 -0.2002059219
C   C180      1.0  0.98060  0.18080  0.56160  1.0000 -0.2002059219
C   C181      1.0  0.72300  0.81920  0.01940  1.0000 -0.2002059219
C   C182      1.0  0.81920  0.72300  0.43840  1.0000 -0.2002059219
C   C183      1.0  0.01940  0.43840  0.72300  1.0000 -0.2002059219
C   C184      1.0  0.43840  0.01940  0.81920  1.0000 -0.2002059219
C   C185      1.0  0.01940  0.72300  0.81920  1.0000 -0.2002059219
C   C186      1.0  0.43840  0.81920  0.72300  1.0000 -0.2002059219
C   C187      1.0  0.72300  0.01940  0.43840  1.0000 -0.2002059219
C   C188      1.0  0.81920  0.43840  0.01940  1.0000 -0.2002059219
C   C189      1.0  0.81920  0.01940  0.72300  1.0000 -0.2002059219
C   C190      1.0  0.72300  0.43840  0.81920  1.0000 -0.2002059219
C   C191      1.0  0.43840  0.72300  0.01940  1.0000 -0.2002059219
C   C192      1.0  0.01940  0.81920  0.43840  1.0000 -0.2002059219
C   C193      1.0  0.27510  0.31710  0.94870  1.0000 0.4535793757
C   C194      1.0  0.31710  0.27510  0.45910  1.0000 0.4535793757
C   C195      1.0  0.94870  0.45910  0.27510  1.0000 0.4535793757
C   C196      1.0  0.45910  0.94870  0.31710  1.0000 0.4535793757
C   C197      1.0  0.94870  0.27510  0.31710  1.0000 0.4535793757
C   C198      1.0  0.45910  0.31710  0.27510  1.0000 0.4535793757
C   C199      1.0  0.27510  0.94870  0.45910  1.0000 0.4535793757
C   C200      1.0  0.31710  0.45910  0.94870  1.0000 0.4535793757
C   C201      1.0  0.31710  0.94870  0.27510  1.0000 0.4535793757
C   C202      1.0  0.27510  0.45910  0.31710  1.0000 0.4535793757
C   C203      1.0  0.45910  0.27510  0.94870  1.0000 0.4535793757
C   C204      1.0  0.94870  0.31710  0.45910  1.0000 0.4535793757
C   C205      1.0  0.72490  0.68290  0.05130  1.0000 0.4535793757
C   C206      1.0  0.68290  0.72490  0.54090  1.0000 0.4535793757
C   C207      1.0  0.05130  0.54090  0.72490  1.0000 0.4535793757
C   C208      1.0  0.54090  0.05130  0.68290  1.0000 0.4535793757
C   C209      1.0  0.05130  0.72490  0.68290  1.0000 0.4535793757
C   C210      1.0  0.54090  0.68290  0.72490  1.0000 0.4535793757
C   C211      1.0  0.72490  0.05130  0.54090  1.0000 0.4535793757
C   C212      1.0  0.68290  0.54090  0.05130  1.0000 0.4535793757
C   C213      1.0  0.68290  0.05130  0.72490  1.0000 0.4535793757
C   C214      1.0  0.72490  0.54090  0.68290  1.0000 0.4535793757
C   C215      1.0  0.54090  0.72490  0.05130  1.0000 0.4535793757
C   C216      1.0  0.05130  0.68290  0.54090  1.0000 0.4535793757
C   C217      1.0  0.31510  0.33010  0.95230  1.0000 -0.0244542306
C   C218      1.0  0.33010  0.31510  0.40250  1.0000 -0.0260616731
C   C219      1.0  0.95230  0.40250  0.31510  1.0000 -0.0260616731
C   C220      1.0  0.40250  0.95230  0.33010  1.0000 -0.0244542306
C   C221      1.0  0.95230  0.31510  0.33010  1.0000 -0.0244542306
C   C222      1.0  0.40250  0.33010  0.31510  1.0000 -0.0244542306
C   C223      1.0  0.31510  0.95230  0.40250  1.0000 -0.0244542306
C   C224      1.0  0.33010  0.40250  0.95230  1.0000 -0.0260616731
C   C225      1.0  0.33010  0.95230  0.31510  1.0000 -0.0260616731
C   C226      1.0  0.31510  0.40250  0.33010  1.0000 -0.0260616731
C   C227      1.0  0.40250  0.31510  0.95230  1.0000 -0.0244542306
C   C228      1.0  0.95230  0.33010  0.40250  1.0000 -0.0244542306
C   C229      1.0  0.68490  0.66990  0.04770  1.0000 -0.0260616731
C   C230      1.0  0.66990  0.68490  0.59750  1.0000 -0.0244542306
C   C231      1.0  0.04770  0.59750  0.68490  1.0000 -0.0260616731
C   C232      1.0  0.59750  0.04770  0.66990  1.0000 -0.0244542306
C   C233      1.0  0.04770  0.68490  0.66990  1.0000 -0.0244542306
C   C234      1.0  0.59750  0.66990  0.68490  1.0000 -0.0244542306
C   C235      1.0  0.68490  0.04770  0.59750  1.0000 -0.0244542306
C   C236      1.0  0.66990  0.59750  0.04770  1.0000 -0.0244542306
C   C237      1.0  0.66990  0.04770  0.68490  1.0000 -0.0260616731
C   C238      1.0  0.68490  0.59750  0.66990  1.0000 -0.0244542306
C   C239      1.0  0.59750  0.68490  0.04770  1.0000 -0.0260616731
C   C240      1.0  0.04770  0.66990  0.59750  1.0000 -0.0244542306
C   C241      1.0  0.36960  0.29800  0.95060  1.0000 -0.1700530702
C   C242      1.0  0.29800  0.36960  0.38180  1.0000 -0.1700530702
C   C243      1.0  0.95060  0.38180  0.36960  1.0000 -0.1700530702
C   C244      1.0  0.38180  0.95060  0.29800  1.0000 -0.1700530702
C   C245      1.0  0.95060  0.36960  0.29800  1.0000 -0.1700530702
C   C246      1.0  0.38180  0.29800  0.36960  1.0000 -0.1700530702
C   C247      1.0  0.36960  0.95060  0.38180  1.0000 -0.1700530702
C   C248      1.0  0.29800  0.38180  0.95060  1.0000 -0.1700530702
C   C249      1.0  0.29800  0.95060  0.36960  1.0000 -0.1700530702
C   C250      1.0  0.36960  0.38180  0.29800  1.0000 -0.1700530702
C   C251      1.0  0.38180  0.36960  0.95060  1.0000 -0.1700530702
C   C252      1.0  0.95060  0.29800  0.38180  1.0000 -0.1700530702
C   C253      1.0  0.63040  0.70200  0.04940  1.0000 -0.1700530702
C   C254      1.0  0.70200  0.63040  0.61820  1.0000 -0.1700530702
C   C255      1.0  0.04940  0.61820  0.63040  1.0000 -0.1700530702
C   C256      1.0  0.61820  0.04940  0.70200  1.0000 -0.1700530702
C   C257      1.0  0.04940  0.63040  0.70200  1.0000 -0.1700530702
C   C258      1.0  0.61820  0.70200  0.63040  1.0000 -0.1700530702
C   C259      1.0  0.63040  0.04940  0.61820  1.0000 -0.1700530702
C   C260      1.0  0.70200  0.61820  0.04940  1.0000 -0.1700530702
C   C261      1.0  0.70200  0.04940  0.63040  1.0000 -0.1700530702
C   C262      1.0  0.63040  0.61820  0.70200  1.0000 -0.1700530702
C   C263      1.0  0.61820  0.63040  0.04940  1.0000 -0.1700530702
C   C264      1.0  0.04940  0.70200  0.61820  1.0000 -0.1700530702
N   N1        1.0  0.28250  0.26410  0.96770  1.0000 -0.3514695271
N   N2        1.0  0.26410  0.28250  0.48570  1.0000 -0.3514695271
N   N3        1.0  0.96770  0.48570  0.28250  1.0000 -0.3514695271
N   N4        1.0  0.48570  0.96770  0.26410  1.0000 -0.3514695271
N   N5        1.0  0.96770  0.28250  0.26410  1.0000 -0.3514695271
N   N6        1.0  0.48570  0.26410  0.28250  1.0000 -0.3514695271
N   N7        1.0  0.28250  0.96770  0.48570  1.0000 -0.3514695271
N   N8        1.0  0.26410  0.48570  0.96770  1.0000 -0.3514695271
N   N9        1.0  0.26410  0.96770  0.28250  1.0000 -0.3514695271
N   N10       1.0  0.28250  0.48570  0.26410  1.0000 -0.3514695271
N   N11       1.0  0.48570  0.28250  0.96770  1.0000 -0.3514695271
N   N12       1.0  0.96770  0.26410  0.48570  1.0000 -0.3514695271
N   N13       1.0  0.71750  0.73590  0.03230  1.0000 -0.3514695271
N   N14       1.0  0.73590  0.71750  0.51430  1.0000 -0.3514695271
N   N15       1.0  0.03230  0.51430  0.71750  1.0000 -0.3514695271
N   N16       1.0  0.51430  0.03230  0.73590  1.0000 -0.3514695271
N   N17       1.0  0.03230  0.71750  0.73590  1.0000 -0.3514695271
N   N18       1.0  0.51430  0.73590  0.71750  1.0000 -0.3514695271
N   N19       1.0  0.71750  0.03230  0.51430  1.0000 -0.3514695271
N   N20       1.0  0.73590  0.51430  0.03230  1.0000 -0.3514695271
N   N21       1.0  0.73590  0.03230  0.71750  1.0000 -0.3514695271
N   N22       1.0  0.71750  0.51430  0.73590  1.0000 -0.3514695271
N   N23       1.0  0.51430  0.71750  0.03230  1.0000 -0.3514695271
N   N24       1.0  0.03230  0.73590  0.51430  1.0000 -0.3514695271
O   O1        1.0  0.24933  0.06805  0.99831  1.0000 -0.5612067262
O   O2        1.0  0.06805  0.24933  0.68431  1.0000 -0.5612067262
O   O3        1.0  0.99831  0.68431  0.24933  1.0000 -0.5612067262
O   O4        1.0  0.68431  0.99831  0.06805  1.0000 -0.5612067262
O   O5        1.0  0.99831  0.24933  0.06805  1.0000 -0.5612067262
O   O6        1.0  0.68431  0.06805  0.24933  1.0000 -0.5612067262
O   O7        1.0  0.24933  0.99831  0.68431  1.0000 -0.5612067262
O   O8        1.0  0.06805  0.68431  0.99831  1.0000 -0.5612067262
O   O9        1.0  0.06805  0.99831  0.24933  1.0000 -0.5612067262
O   O10       1.0  0.24933  0.68431  0.06805  1.0000 -0.5612067262
O   O11       1.0  0.68431  0.24933  0.99831  1.0000 -0.5612067262
O   O12       1.0  0.99831  0.06805  0.68431  1.0000 -0.5612067262
O   O13       1.0  0.75067  0.93195  0.00169  1.0000 -0.5612067262
O   O14       1.0  0.93195  0.75067  0.31569  1.0000 -0.5612067262
O   O15       1.0  0.00169  0.31569  0.75067  1.0000 -0.5612067262
O   O16       1.0  0.31569  0.00169  0.93195  1.0000 -0.5612067262
O   O17       1.0  0.00169  0.75067  0.93195  1.0000 -0.5612067262
O   O18       1.0  0.31569  0.93195  0.75067  1.0000 -0.5612067262
O   O19       1.0  0.75067  0.00169  0.31569  1.0000 -0.5612067262
O   O20       1.0  0.93195  0.31569  0.00169  1.0000 -0.5612067262
O   O21       1.0  0.93195  0.00169  0.75067  1.0000 -0.5612067262
O   O22       1.0  0.75067  0.31569  0.93195  1.0000 -0.5612067262
O   O23       1.0  0.31569  0.75067  0.00169  1.0000 -0.5612067262
O   O24       1.0  0.00169  0.93195  0.31569  1.0000 -0.5612067262
O   O25       1.0  0.32279  0.06917  0.99841  1.0000 -0.5244250153
O   O26       1.0  0.06917  0.32279  0.60963  1.0000 -0.5244250153
O   O27       1.0  0.99841  0.60963  0.32279  1.0000 -0.5244250153
O   O28       1.0  0.60963  0.99841  0.06917  1.0000 -0.5244250153
O   O29       1.0  0.99841  0.32279  0.06917  1.0000 -0.5258579035
O   O30       1.0  0.60963  0.06917  0.32279  1.0000 -0.5244250153
O   O31       1.0  0.32279  0.99841  0.60963  1.0000 -0.5244250153
O   O32       1.0  0.06917  0.60963  0.99841  1.0000 -0.5258579035
O   O33       1.0  0.06917  0.99841  0.32279  1.0000 -0.5244250153
O   O34       1.0  0.32279  0.60963  0.06917  1.0000 -0.5244250153
O   O35       1.0  0.60963  0.32279  0.99841  1.0000 -0.5244250153
O   O36       1.0  0.99841  0.06917  0.60963  1.0000 -0.5244250153
O   O37       1.0  0.67721  0.93083  0.00159  1.0000 -0.5244250153
O   O38       1.0  0.93083  0.67721  0.39037  1.0000 -0.5258579035
O   O39       1.0  0.00159  0.39037  0.67721  1.0000 -0.5244250153
O   O40       1.0  0.39037  0.00159  0.93083  1.0000 -0.5258579035
O   O41       1.0  0.00159  0.67721  0.93083  1.0000 -0.5258579035
O   O42       1.0  0.39037  0.93083  0.67721  1.0000 -0.5244250153
O   O43       1.0  0.67721  0.00159  0.39037  1.0000 -0.5258579035
O   O44       1.0  0.93083  0.39037  0.00159  1.0000 -0.5244250153
O   O45       1.0  0.93083  0.00159  0.67721  1.0000 -0.5244250153
O   O46       1.0  0.67721  0.39037  0.93083  1.0000 -0.5258579035
O   O47       1.0  0.39037  0.67721  0.00159  1.0000 -0.5258579035
O   O48       1.0  0.00159  0.93083  0.39037  1.0000 -0.5244250153
O   O49       1.0  0.23900  0.35000  0.93180  1.0000 -0.4225776001
O   O50       1.0  0.35000  0.23900  0.47920  1.0000 -0.4225776001
O   O51       1.0  0.93180  0.47920  0.23900  1.0000 -0.4225776001
O   O52       1.0  0.47920  0.93180  0.35000  1.0000 -0.4225776001
O   O53       1.0  0.93180  0.23900  0.35000  1.0000 -0.4225776001
O   O54       1.0  0.47920  0.35000  0.23900  1.0000 -0.4225776001
O   O55       1.0  0.23900  0.93180  0.47920  1.0000 -0.4225776001
O   O56       1.0  0.35000  0.47920  0.93180  1.0000 -0.4225776001
O   O57       1.0  0.35000  0.93180  0.23900  1.0000 -0.4225776001
O   O58       1.0  0.23900  0.47920  0.35000  1.0000 -0.4225776001
O   O59       1.0  0.47920  0.23900  0.93180  1.0000 -0.4225776001
O   O60       1.0  0.93180  0.35000  0.47920  1.0000 -0.4225776001
O   O61       1.0  0.76100  0.65000  0.06820  1.0000 -0.4225776001
O   O62       1.0  0.65000  0.76100  0.52080  1.0000 -0.4225776001
O   O63       1.0  0.06820  0.52080  0.76100  1.0000 -0.4225776001
O   O64       1.0  0.52080  0.06820  0.65000  1.0000 -0.4225776001
O   O65       1.0  0.06820  0.76100  0.65000  1.0000 -0.4225776001
O   O66       1.0  0.52080  0.65000  0.76100  1.0000 -0.4225776001
O   O67       1.0  0.76100  0.06820  0.52080  1.0000 -0.4225776001
O   O68       1.0  0.65000  0.52080  0.06820  1.0000 -0.4225776001
O   O69       1.0  0.65000  0.06820  0.76100  1.0000 -0.4225776001
O   O70       1.0  0.76100  0.52080  0.65000  1.0000 -0.4225776001
O   O71       1.0  0.52080  0.76100  0.06820  1.0000 -0.4225776001
O   O72       1.0  0.06820  0.65000  0.52080  1.0000 -0.4225776001
O   O73       1.0  0.09182  0.31208  0.97492  1.0000 -0.5612067262
O   O74       1.0  0.31208  0.09182  0.62118  1.0000 -0.5612067262
O   O75       1.0  0.97492  0.62118  0.09182  1.0000 -0.5612067262
O   O76       1.0  0.62118  0.97492  0.31208  1.0000 -0.5612067262
O   O77       1.0  0.97492  0.09182  0.31208  1.0000 -0.5612067262
O   O78       1.0  0.62118  0.31208  0.09182  1.0000 -0.5612067262
O   O79       1.0  0.09182  0.97492  0.62118  1.0000 -0.5612067262
O   O80       1.0  0.31208  0.62118  0.97492  1.0000 -0.5612067262
O   O81       1.0  0.31208  0.97492  0.09182  1.0000 -0.5612067262
O   O82       1.0  0.09182  0.62118  0.31208  1.0000 -0.5612067262
O   O83       1.0  0.62118  0.09182  0.97492  1.0000 -0.5612067262
O   O84       1.0  0.97492  0.31208  0.62118  1.0000 -0.5612067262
O   O85       1.0  0.90818  0.68792  0.02508  1.0000 -0.5612067262
O   O86       1.0  0.68792  0.90818  0.37882  1.0000 -0.5612067262
O   O87       1.0  0.02508  0.37882  0.90818  1.0000 -0.5612067262
O   O88       1.0  0.37882  0.02508  0.68792  1.0000 -0.5612067262
O   O89       1.0  0.02508  0.90818  0.68792  1.0000 -0.5612067262
O   O90       1.0  0.37882  0.68792  0.90818  1.0000 -0.5612067262
O   O91       1.0  0.90818  0.02508  0.37882  1.0000 -0.5612067262
O   O92       1.0  0.68792  0.37882  0.02508  1.0000 -0.5612067262
O   O93       1.0  0.68792  0.02508  0.90818  1.0000 -0.5612067262
O   O94       1.0  0.90818  0.37882  0.68792  1.0000 -0.5612067262
O   O95       1.0  0.37882  0.90818  0.02508  1.0000 -0.5612067262
O   O96       1.0  0.02508  0.68792  0.37882  1.0000 -0.5612067262
O   O97       1.0  0.09260  0.23610  0.97604  1.0000 -0.5417251864
O   O98       1.0  0.23610  0.09260  0.69526  1.0000 -0.5417251864
O   O99       1.0  0.97604  0.69526  0.09260  1.0000 -0.5417251864
O   O100      1.0  0.69526  0.97604  0.23610  1.0000 -0.5417251864
O   O101      1.0  0.97604  0.09260  0.23610  1.0000 -0.5417251864
O   O102      1.0  0.69526  0.23610  0.09260  1.0000 -0.5417251864
O   O103      1.0  0.09260  0.97604  0.69526  1.0000 -0.5417251864
O   O104      1.0  0.23610  0.69526  0.97604  1.0000 -0.5417251864
O   O105      1.0  0.23610  0.97604  0.09260  1.0000 -0.5417251864
O   O106      1.0  0.09260  0.69526  0.23610  1.0000 -0.5417251864
O   O107      1.0  0.69526  0.09260  0.97604  1.0000 -0.5417251864
O   O108      1.0  0.97604  0.23610  0.69526  1.0000 -0.5417251864
O   O109      1.0  0.90740  0.76390  0.02396  1.0000 -0.5417251864
O   O110      1.0  0.76390  0.90740  0.30474  1.0000 -0.5417251864
O   O111      1.0  0.02396  0.30474  0.90740  1.0000 -0.5417251864
O   O112      1.0  0.30474  0.02396  0.76390  1.0000 -0.5417251864
O   O113      1.0  0.02396  0.90740  0.76390  1.0000 -0.5417251864
O   O114      1.0  0.30474  0.76390  0.90740  1.0000 -0.5417251864
O   O115      1.0  0.90740  0.02396  0.30474  1.0000 -0.5417251864
O   O116      1.0  0.76390  0.30474  0.02396  1.0000 -0.5417251864
O   O117      1.0  0.76390  0.02396  0.90740  1.0000 -0.5417251864
O   O118      1.0  0.90740  0.30474  0.76390  1.0000 -0.5417251864
O   O119      1.0  0.30474  0.90740  0.02396  1.0000 -0.5417251864
O   O120      1.0  0.02396  0.76390  0.30474  1.0000 -0.5417251864
