# DDEC6 charges by PACMAN v1.1 (https://github.com/mtap-research/PACMAN-charge/)
data_2010[Cu][tbo]3[ASR]2
_chemical_formula_sum              "Cu12 H24 C72 O48"
_cell_length_a       18.6626
_cell_length_b       18.6626
_cell_length_c       18.6626
_cell_angle_alpha    60
_cell_angle_beta     60
_cell_angle_gamma    60

_symmetry_space_group_name_H-M    "P 1"
_symmetry_Int_Tables_number       1

loop_
  _symmetry_equiv_pos_as_xyz
  'x, y, z'

loop_
  _atom_site_type_symbol
  _atom_site_label
  _atom_site_symmetry_multiplicity
  _atom_site_fract_x
  _atom_site_fract_y
  _atom_site_fract_z
  _atom_site_occupancy
  _atom_site_charge
Cu  Cu1       1.0  0.50000  0.06986  0.93014  1.0000 0.8529100234
Cu  Cu2       1.0  0.06986  0.50000  0.50000  1.0000 0.8529100234
Cu  Cu3       1.0  0.93014  0.50000  0.50000  1.0000 0.8529100234
Cu  Cu4       1.0  0.50000  0.93014  0.06986  1.0000 0.8529100234
Cu  Cu5       1.0  0.50000  0.93014  0.50000  1.0000 0.8529100234
Cu  Cu6       1.0  0.06986  0.50000  0.93014  1.0000 0.8529100234
Cu  Cu7       1.0  0.93014  0.50000  0.06986  1.0000 0.8529100234
Cu  Cu8       1.0  0.50000  0.06986  0.50000  1.0000 0.8529100234
Cu  Cu9       1.0  0.50000  0.50000  0.06986  1.0000 0.8529100234
Cu  Cu10      1.0  0.06986  0.93014  0.50000  1.0000 0.8529100234
Cu  Cu11      1.0  0.93014  0.06986  0.50000  1.0000 0.8529100234
Cu  Cu12      1.0  0.50000  0.50000  0.93014  1.0000 0.8529100234
H   H1        1.0  0.46820  0.98820  0.77180  1.0000 0.1361823984
H   H2        1.0  0.98820  0.46820  0.77180  1.0000 0.1361823984
H   H3        1.0  0.77180  0.77180  0.46820  1.0000 0.1361823984
H   H4        1.0  0.77180  0.77180  0.98820  1.0000 0.1361823984
H   H5        1.0  0.46820  0.77180  0.77180  1.0000 0.1361823984
H   H6        1.0  0.98820  0.77180  0.77180  1.0000 0.1361823984
H   H7        1.0  0.77180  0.46820  0.98820  1.0000 0.1361823984
H   H8        1.0  0.77180  0.98820  0.46820  1.0000 0.1361823984
H   H9        1.0  0.46820  0.77180  0.98820  1.0000 0.1361823984
H   H10       1.0  0.98820  0.77180  0.46820  1.0000 0.1361823984
H   H11       1.0  0.77180  0.98820  0.77180  1.0000 0.1361823984
H   H12       1.0  0.77180  0.46820  0.77180  1.0000 0.1361823984
H   H13       1.0  0.01180  0.53180  0.22820  1.0000 0.1361823984
H   H14       1.0  0.53180  0.01180  0.22820  1.0000 0.1361823984
H   H15       1.0  0.22820  0.22820  0.53180  1.0000 0.1361823984
H   H16       1.0  0.22820  0.22820  0.01180  1.0000 0.1361823984
H   H17       1.0  0.22820  0.53180  0.22820  1.0000 0.1361823984
H   H18       1.0  0.22820  0.01180  0.22820  1.0000 0.1361823984
H   H19       1.0  0.53180  0.22820  0.01180  1.0000 0.1361823984
H   H20       1.0  0.01180  0.22820  0.53180  1.0000 0.1361823984
H   H21       1.0  0.22820  0.53180  0.01180  1.0000 0.1361823984
H   H22       1.0  0.22820  0.01180  0.53180  1.0000 0.1361823984
H   H23       1.0  0.01180  0.22820  0.22820  1.0000 0.1361823984
H   H24       1.0  0.53180  0.22820  0.22820  1.0000 0.1361823984
C   C1        1.0  0.46734  0.93086  0.80090  1.0000 -0.0856971183
C   C2        1.0  0.93086  0.46734  0.80090  1.0000 -0.0856971183
C   C3        1.0  0.80090  0.80090  0.46734  1.0000 -0.0856971183
C   C4        1.0  0.80090  0.80090  0.93086  1.0000 -0.0856971183
C   C5        1.0  0.46734  0.80090  0.80090  1.0000 -0.0856971183
C   C6        1.0  0.93086  0.80090  0.80090  1.0000 -0.0856971183
C   C7        1.0  0.80090  0.46734  0.93086  1.0000 -0.0856971183
C   C8        1.0  0.80090  0.93086  0.46734  1.0000 -0.0856971183
C   C9        1.0  0.46734  0.80090  0.93086  1.0000 -0.0856971183
C   C10       1.0  0.93086  0.80090  0.46734  1.0000 -0.0856971183
C   C11       1.0  0.80090  0.93086  0.80090  1.0000 -0.0856971183
C   C12       1.0  0.80090  0.46734  0.80090  1.0000 -0.0856971183
C   C13       1.0  0.06914  0.53266  0.19910  1.0000 -0.0856971183
C   C14       1.0  0.53266  0.06914  0.19910  1.0000 -0.0856971183
C   C15       1.0  0.19910  0.19910  0.53266  1.0000 -0.0856971183
C   C16       1.0  0.19910  0.19910  0.06914  1.0000 -0.0856971183
C   C17       1.0  0.19910  0.53266  0.19910  1.0000 -0.0856971183
C   C18       1.0  0.19910  0.06914  0.19910  1.0000 -0.0856971183
C   C19       1.0  0.53266  0.19910  0.06914  1.0000 -0.0856971183
C   C20       1.0  0.06914  0.19910  0.53266  1.0000 -0.0856971183
C   C21       1.0  0.19910  0.53266  0.06914  1.0000 -0.0856971183
C   C22       1.0  0.19910  0.06914  0.53266  1.0000 -0.0856971183
C   C23       1.0  0.06914  0.19910  0.19910  1.0000 -0.0856971183
C   C24       1.0  0.53266  0.19910  0.19910  1.0000 -0.0856971183
C   C25       1.0  0.46676  0.88740  0.88740  1.0000 -0.0247420581
C   C26       1.0  0.47428  0.93120  0.93120  1.0000 0.5821361257
C   C27       1.0  0.88740  0.46676  0.75844  1.0000 -0.0247420581
C   C28       1.0  0.93120  0.47428  0.66332  1.0000 0.5821361257
C   C29       1.0  0.88740  0.75844  0.46676  1.0000 -0.0247420581
C   C30       1.0  0.93120  0.66332  0.47428  1.0000 0.5821361257
C   C31       1.0  0.75844  0.88740  0.88740  1.0000 -0.0247420581
C   C32       1.0  0.66332  0.93120  0.93120  1.0000 0.5821361257
C   C33       1.0  0.46676  0.88740  0.75844  1.0000 -0.0260437725
C   C34       1.0  0.47428  0.93120  0.66332  1.0000 0.5821361257
C   C35       1.0  0.88740  0.75844  0.88740  1.0000 -0.0247420581
C   C36       1.0  0.93120  0.66332  0.93120  1.0000 0.5821361257
C   C37       1.0  0.88740  0.46676  0.88740  1.0000 -0.0247420581
C   C38       1.0  0.93120  0.47428  0.93120  1.0000 0.5821361257
C   C39       1.0  0.75844  0.88740  0.46676  1.0000 -0.0247420581
C   C40       1.0  0.66332  0.93120  0.47428  1.0000 0.5821361257
C   C41       1.0  0.46676  0.75844  0.88740  1.0000 -0.0247420581
C   C42       1.0  0.47428  0.66332  0.93120  1.0000 0.5821361257
C   C43       1.0  0.88740  0.88740  0.46676  1.0000 -0.0247420581
C   C44       1.0  0.93120  0.93120  0.47428  1.0000 0.5821361257
C   C45       1.0  0.88740  0.88740  0.75844  1.0000 -0.0260437725
C   C46       1.0  0.93120  0.93120  0.66332  1.0000 0.5821361257
C   C47       1.0  0.75844  0.46676  0.88740  1.0000 -0.0247420581
C   C48       1.0  0.66332  0.47428  0.93120  1.0000 0.5821361257
C   C49       1.0  0.11260  0.53324  0.11260  1.0000 -0.0247420581
C   C50       1.0  0.06880  0.52572  0.06880  1.0000 0.5821361257
C   C51       1.0  0.53324  0.11260  0.24156  1.0000 -0.0247420581
C   C52       1.0  0.52572  0.06880  0.33668  1.0000 0.5821361257
C   C53       1.0  0.24156  0.11260  0.53324  1.0000 -0.0247420581
C   C54       1.0  0.33668  0.06880  0.52572  1.0000 0.5821361257
C   C55       1.0  0.11260  0.24156  0.11260  1.0000 -0.0247420581
C   C56       1.0  0.06880  0.33668  0.06880  1.0000 0.5821361257
C   C57       1.0  0.11260  0.53324  0.24156  1.0000 -0.0247420581
C   C58       1.0  0.06880  0.52572  0.33668  1.0000 0.5821361257
C   C59       1.0  0.24156  0.11260  0.11260  1.0000 -0.0247420581
C   C60       1.0  0.33668  0.06880  0.06880  1.0000 0.5821361257
C   C61       1.0  0.53324  0.11260  0.11260  1.0000 -0.0247420581
C   C62       1.0  0.52572  0.06880  0.06880  1.0000 0.5821361257
C   C63       1.0  0.11260  0.24156  0.53324  1.0000 -0.0247420581
C   C64       1.0  0.06880  0.33668  0.52572  1.0000 0.5821361257
C   C65       1.0  0.24156  0.53324  0.11260  1.0000 -0.0247420581
C   C66       1.0  0.33668  0.52572  0.06880  1.0000 0.5821361257
C   C67       1.0  0.11260  0.11260  0.53324  1.0000 -0.0247420581
C   C68       1.0  0.06880  0.06880  0.52572  1.0000 0.5821361257
C   C69       1.0  0.11260  0.11260  0.24156  1.0000 -0.0247420581
C   C70       1.0  0.06880  0.06880  0.33668  1.0000 0.5821361257
C   C71       1.0  0.53324  0.24156  0.11260  1.0000 -0.0247420581
C   C72       1.0  0.52572  0.33668  0.06880  1.0000 0.5821361257
O   O1        1.0  0.47880  0.00756  0.88758  1.0000 -0.5171129416
O   O2        1.0  0.00756  0.47880  0.62606  1.0000 -0.5171129416
O   O3        1.0  0.88758  0.62606  0.47880  1.0000 -0.5171129416
O   O4        1.0  0.62606  0.88758  0.00756  1.0000 -0.5171129416
O   O5        1.0  0.47880  0.88758  0.62606  1.0000 -0.5171129416
O   O6        1.0  0.00756  0.62606  0.88758  1.0000 -0.5171129416
O   O7        1.0  0.88758  0.47880  0.00756  1.0000 -0.5171129416
O   O8        1.0  0.62606  0.00756  0.47880  1.0000 -0.5171129416
O   O9        1.0  0.47880  0.62606  0.00756  1.0000 -0.5171129416
O   O10       1.0  0.00756  0.88758  0.47880  1.0000 -0.5171129416
O   O11       1.0  0.88758  0.00756  0.62606  1.0000 -0.5171129416
O   O12       1.0  0.62606  0.47880  0.88758  1.0000 -0.5171129416
O   O13       1.0  0.99244  0.52120  0.11242  1.0000 -0.5171129416
O   O14       1.0  0.52120  0.99244  0.37394  1.0000 -0.5171129416
O   O15       1.0  0.37394  0.11242  0.52120  1.0000 -0.5171129416
O   O16       1.0  0.11242  0.37394  0.99244  1.0000 -0.5171129416
O   O17       1.0  0.11242  0.52120  0.37394  1.0000 -0.5171129416
O   O18       1.0  0.37394  0.99244  0.11242  1.0000 -0.5171129416
O   O19       1.0  0.52120  0.11242  0.99244  1.0000 -0.5171129416
O   O20       1.0  0.99244  0.37394  0.52120  1.0000 -0.5171129416
O   O21       1.0  0.37394  0.52120  0.99244  1.0000 -0.5171129416
O   O22       1.0  0.11242  0.99244  0.52120  1.0000 -0.5171129416
O   O23       1.0  0.99244  0.11242  0.37394  1.0000 -0.5171129416
O   O24       1.0  0.52120  0.37394  0.11242  1.0000 -0.5171129416
O   O25       1.0  0.52120  0.99244  0.11242  1.0000 -0.5171129416
O   O26       1.0  0.99244  0.52120  0.37394  1.0000 -0.5171129416
O   O27       1.0  0.11242  0.37394  0.52120  1.0000 -0.5171129416
O   O28       1.0  0.37394  0.11242  0.99244  1.0000 -0.5171129416
O   O29       1.0  0.52120  0.11242  0.37394  1.0000 -0.5171129416
O   O30       1.0  0.99244  0.37394  0.11242  1.0000 -0.5171129416
O   O31       1.0  0.11242  0.52120  0.99244  1.0000 -0.5171129416
O   O32       1.0  0.37394  0.99244  0.52120  1.0000 -0.5171129416
O   O33       1.0  0.52120  0.37394  0.99244  1.0000 -0.5171129416
O   O34       1.0  0.99244  0.11242  0.52120  1.0000 -0.5171129416
O   O35       1.0  0.11242  0.99244  0.37394  1.0000 -0.5171129416
O   O36       1.0  0.37394  0.52120  0.11242  1.0000 -0.5171129416
O   O37       1.0  0.00756  0.47880  0.88758  1.0000 -0.5171129416
O   O38       1.0  0.47880  0.00756  0.62606  1.0000 -0.5171129416
O   O39       1.0  0.62606  0.88758  0.47880  1.0000 -0.5171129416
O   O40       1.0  0.88758  0.62606  0.00756  1.0000 -0.5171129416
O   O41       1.0  0.88758  0.47880  0.62606  1.0000 -0.5171129416
O   O42       1.0  0.62606  0.00756  0.88758  1.0000 -0.5171129416
O   O43       1.0  0.47880  0.88758  0.00756  1.0000 -0.5171129416
O   O44       1.0  0.00756  0.62606  0.47880  1.0000 -0.5171129416
O   O45       1.0  0.62606  0.47880  0.00756  1.0000 -0.5171129416
O   O46       1.0  0.88758  0.00756  0.47880  1.0000 -0.5171129416
O   O47       1.0  0.00756  0.88758  0.62606  1.0000 -0.5171129416
O   O48       1.0  0.47880  0.62606  0.88758  1.0000 -0.5171129416
