# DDEC6 charges by PACMAN v1.1 (https://github.com/mtap-research/PACMAN-charge/)
data_2010[CuEu][nan]3[ASR]1
_chemical_formula_sum              "Eu4 Cu4 H32 C56 N8 O32"
_cell_length_a       9.226
_cell_length_b       21.606
_cell_length_c       9.5587
_cell_angle_alpha    90
_cell_angle_beta     116.142
_cell_angle_gamma    90

_symmetry_space_group_name_H-M    "P 1"
_symmetry_Int_Tables_number       1

loop_
  _symmetry_equiv_pos_as_xyz
  'x, y, z'

loop_
  _atom_site_type_symbol
  _atom_site_label
  _atom_site_symmetry_multiplicity
  _atom_site_fract_x
  _atom_site_fract_y
  _atom_site_fract_z
  _atom_site_occupancy
  _atom_site_charge
Eu  Eu1       1.0  0.35883  0.00859  0.12332  1.0000 2.0644277092
Eu  Eu2       1.0  0.64117  0.50859  0.37668  1.0000 2.0644277092
Eu  Eu3       1.0  0.64117  0.99141  0.87668  1.0000 2.0644277092
Eu  Eu4       1.0  0.35883  0.49141  0.62332  1.0000 2.0644277092
Cu  Cu1       1.0  0.69034  0.64579  0.04122  1.0000 0.3358885255
Cu  Cu2       1.0  0.30966  0.14579  0.45878  1.0000 0.3358885255
Cu  Cu3       1.0  0.30966  0.35421  0.95878  1.0000 0.3358885255
Cu  Cu4       1.0  0.69034  0.85421  0.54122  1.0000 0.3358885255
H   H1        1.0  0.42290  0.65520  0.12240  1.0000 0.1131729876
H   H2        1.0  0.57710  0.15520  0.37760  1.0000 0.1131729876
H   H3        1.0  0.57710  0.34480  0.87760  1.0000 0.1131729876
H   H4        1.0  0.42290  0.84480  0.62240  1.0000 0.1131729876
H   H5        1.0  0.26450  0.73150  0.14290  1.0000 0.1295366157
H   H6        1.0  0.73550  0.23150  0.35710  1.0000 0.1295366157
H   H7        1.0  0.73550  0.26850  0.85710  1.0000 0.1295366157
H   H8        1.0  0.26450  0.76850  0.64290  1.0000 0.1295366157
H   H9        1.0  0.31560  0.83420  0.10900  1.0000 0.1469397061
H   H10       1.0  0.68440  0.33420  0.39100  1.0000 0.1469397061
H   H11       1.0  0.68440  0.16580  0.89100  1.0000 0.1469397061
H   H12       1.0  0.31560  0.66580  0.60900  1.0000 0.1469397061
H   H13       1.0  0.65540  0.77590  0.99540  1.0000 0.1131729876
H   H14       1.0  0.34460  0.27590  0.50460  1.0000 0.1131729876
H   H15       1.0  0.34460  0.22410  0.00460  1.0000 0.1131729876
H   H16       1.0  0.65540  0.72410  0.49540  1.0000 0.1131729876
H   H17       1.0  0.79680  0.84050  0.30020  1.0000 0.0979998615
H   H18       1.0  0.20320  0.34050  0.19980  1.0000 0.0979998615
H   H19       1.0  0.20320  0.15950  0.69980  1.0000 0.0979998615
H   H20       1.0  0.79680  0.65950  0.80020  1.0000 0.0979998615
H   H21       1.0  0.00240  0.87270  0.24870  1.0000 0.1469397061
H   H22       1.0  0.99760  0.37270  0.25130  1.0000 0.1469397061
H   H23       1.0  0.99760  0.12730  0.75130  1.0000 0.1469397061
H   H24       1.0  0.00240  0.62730  0.74870  1.0000 0.1469397061
H   H25       1.0  0.20610  0.92950  0.43930  1.0000 0.1295366157
H   H26       1.0  0.79390  0.42950  0.06070  1.0000 0.1295366157
H   H27       1.0  0.79390  0.07050  0.56070  1.0000 0.1295366157
H   H28       1.0  0.20610  0.57050  0.93930  1.0000 0.1295366157
H   H29       1.0  0.96890  0.92940  0.70290  1.0000 0.1227135305
H   H30       1.0  0.03110  0.42940  0.79710  1.0000 0.1227135305
H   H31       1.0  0.03110  0.07060  0.29710  1.0000 0.1227135305
H   H32       1.0  0.96890  0.57060  0.20290  1.0000 0.1227135305
C   C1        1.0  0.44050  0.69590  0.10210  1.0000 0.0904013422
C   C2        1.0  0.55950  0.19590  0.39790  1.0000 0.0904013422
C   C3        1.0  0.55950  0.30410  0.89790  1.0000 0.0904013422
C   C4        1.0  0.44050  0.80410  0.60210  1.0000 0.0904013422
C   C5        1.0  0.34750  0.74140  0.11660  1.0000 -0.1488364878
C   C6        1.0  0.65250  0.24140  0.38340  1.0000 -0.1488364878
C   C7        1.0  0.65250  0.25860  0.88340  1.0000 -0.1488364878
C   C8        1.0  0.34750  0.75860  0.61660  1.0000 -0.1488364878
C   C9        1.0  0.37480  0.80260  0.09260  1.0000 -0.0474122464
C   C10       1.0  0.62520  0.30260  0.40740  1.0000 -0.0474122464
C   C11       1.0  0.62520  0.19740  0.90740  1.0000 -0.0474122464
C   C12       1.0  0.37480  0.69740  0.59260  1.0000 -0.0474122464
C   C13       1.0  0.49000  0.81550  0.04470  1.0000 -0.0613584373
C   C14       1.0  0.51000  0.31550  0.45530  1.0000 -0.0613584373
C   C15       1.0  0.51000  0.18450  0.95530  1.0000 -0.0613584373
C   C16       1.0  0.49000  0.68450  0.54470  1.0000 -0.0613584373
C   C17       1.0  0.57710  0.76740  0.02910  1.0000 0.0130245686
C   C18       1.0  0.42290  0.26740  0.47090  1.0000 0.0130245686
C   C19       1.0  0.42290  0.23260  0.97090  1.0000 0.0130245686
C   C20       1.0  0.57710  0.73260  0.52910  1.0000 0.0130245686
C   C21       1.0  0.52590  0.88010  0.01180  1.0000 0.6099262592
C   C22       1.0  0.47410  0.38010  0.48820  1.0000 0.6099262592
C   C23       1.0  0.47410  0.11990  0.98820  1.0000 0.6099262592
C   C24       1.0  0.52590  0.61990  0.51180  1.0000 0.6099262592
C   C25       1.0  0.87710  0.86540  0.37250  1.0000 0.0284941914
C   C26       1.0  0.12290  0.36540  0.12750  1.0000 0.0284941914
C   C27       1.0  0.12290  0.13460  0.62750  1.0000 0.0284941914
C   C28       1.0  0.87710  0.63460  0.87250  1.0000 0.0284941914
C   C29       1.0  0.99880  0.88300  0.34150  1.0000 -0.1066643092
C   C30       1.0  0.00120  0.38300  0.15850  1.0000 -0.1066643092
C   C31       1.0  0.00120  0.11700  0.65850  1.0000 -0.1066643092
C   C32       1.0  0.99880  0.61700  0.84150  1.0000 -0.1066643092
C   C33       1.0  0.11750  0.91710  0.45430  1.0000 -0.0613584373
C   C34       1.0  0.88250  0.41710  0.04570  1.0000 -0.0613584373
C   C35       1.0  0.88250  0.08290  0.54570  1.0000 -0.0613584373
C   C36       1.0  0.11750  0.58290  0.95430  1.0000 -0.0613584373
C   C37       1.0  0.10890  0.93430  0.59560  1.0000 -0.0719179902
C   C38       1.0  0.89110  0.43430  0.90440  1.0000 -0.0719179902
C   C39       1.0  0.89110  0.06570  0.40440  1.0000 -0.0719179902
C   C40       1.0  0.10890  0.56570  0.09560  1.0000 -0.0719179902
C   C41       1.0  0.97930  0.91710  0.61450  1.0000 0.0604620819
C   C42       1.0  0.02070  0.41710  0.88550  1.0000 0.0604620819
C   C43       1.0  0.02070  0.08290  0.38550  1.0000 0.0604620819
C   C44       1.0  0.97930  0.58290  0.11450  1.0000 0.0604620819
C   C45       1.0  0.24110  0.96960  0.72900  1.0000 0.630279338
C   C46       1.0  0.75890  0.46960  0.77100  1.0000 0.630279338
C   C47       1.0  0.75890  0.03040  0.27100  1.0000 0.630279338
C   C48       1.0  0.24110  0.53040  0.22900  1.0000 0.630279338
C   C49       1.0  0.47770  0.03440  0.50270  1.0000 0.4971841332
C   C50       1.0  0.52230  0.53440  0.99730  1.0000 0.4971841332
C   C51       1.0  0.52230  0.96560  0.49730  1.0000 0.4971841332
C   C52       1.0  0.47770  0.46560  0.00270  1.0000 0.4971841332
C   C53       1.0  0.99270  0.03570  0.98870  1.0000 0.4719519672
C   C54       1.0  0.00730  0.53570  0.51130  1.0000 0.4719519672
C   C55       1.0  0.00730  0.96430  0.01130  1.0000 0.4719519672
C   C56       1.0  0.99270  0.46430  0.48870  1.0000 0.4719519672
N   N1        1.0  0.55620  0.70800  0.05970  1.0000 -0.1949285808
N   N2        1.0  0.44380  0.20800  0.44030  1.0000 -0.1949285808
N   N3        1.0  0.44380  0.29200  0.94030  1.0000 -0.1949285808
N   N4        1.0  0.55620  0.79200  0.55970  1.0000 -0.1949285808
N   N5        1.0  0.86420  0.88220  0.50620  1.0000 -0.2073888871
N   N6        1.0  0.13580  0.38220  0.99380  1.0000 -0.2073888871
N   N7        1.0  0.13580  0.11780  0.49380  1.0000 -0.2073888871
N   N8        1.0  0.86420  0.61780  0.00620  1.0000 -0.2073888871
O   O1        1.0  0.46680  0.92470  0.05070  1.0000 -0.6822722945
O   O2        1.0  0.53320  0.42470  0.44930  1.0000 -0.6822722945
O   O3        1.0  0.53320  0.07530  0.94930  1.0000 -0.6822722945
O   O4        1.0  0.46680  0.57530  0.55070  1.0000 -0.6822722945
O   O5        1.0  0.61330  0.88600  0.94350  1.0000 -0.6030147913
O   O6        1.0  0.38670  0.38600  0.55650  1.0000 -0.6030147913
O   O7        1.0  0.38670  0.11400  0.05650  1.0000 -0.6030147913
O   O8        1.0  0.61330  0.61400  0.44350  1.0000 -0.6030147913
O   O9        1.0  0.21240  0.99510  0.83620  1.0000 -0.6822722945
O   O10       1.0  0.78760  0.49510  0.66380  1.0000 -0.6822722945
O   O11       1.0  0.78760  0.00490  0.16380  1.0000 -0.6822722945
O   O12       1.0  0.21240  0.50490  0.33620  1.0000 -0.6822722945
O   O13       1.0  0.36720  0.96970  0.71820  1.0000 -0.6205892358
O   O14       1.0  0.63280  0.46970  0.78180  1.0000 -0.6205892358
O   O15       1.0  0.63280  0.03030  0.28180  1.0000 -0.6205892358
O   O16       1.0  0.36720  0.53030  0.21820  1.0000 -0.6205892358
O   O17       1.0  0.38160  0.05790  0.37180  1.0000 -0.5930236224
O   O18       1.0  0.61840  0.55790  0.12820  1.0000 -0.5930236224
O   O19       1.0  0.61840  0.94210  0.62820  1.0000 -0.5930236224
O   O20       1.0  0.38160  0.44210  0.87180  1.0000 -0.5930236224
O   O21       1.0  0.53890  0.06075  0.63790  1.0000 -0.6119371894
O   O22       1.0  0.46110  0.56075  0.86210  1.0000 -0.6119371894
O   O23       1.0  0.46110  0.93925  0.36210  1.0000 -0.6119371894
O   O24       1.0  0.53890  0.43925  0.13790  1.0000 -0.6119371894
O   O25       1.0  0.11600  0.06640  0.05170  1.0000 -0.5437299255
O   O26       1.0  0.88400  0.56640  0.44830  1.0000 -0.5437299255
O   O27       1.0  0.88400  0.93360  0.94830  1.0000 -0.5437299255
O   O28       1.0  0.11600  0.43360  0.55170  1.0000 -0.5437299255
O   O29       1.0  0.85730  0.05640  0.90980  1.0000 -0.5653473977
O   O30       1.0  0.14270  0.55640  0.59020  1.0000 -0.5653473977
O   O31       1.0  0.14270  0.94360  0.09020  1.0000 -0.5653473977
O   O32       1.0  0.85730  0.44360  0.40980  1.0000 -0.5653473977
