# DDEC6 charges by PACMAN v1.1 (https://github.com/mtap-research/PACMAN-charge/)
data_2011[Nd][mog]3[ASR]1
_chemical_formula_sum              "Nd2 H4 C14 N4 O12"
_cell_length_a       6.1645
_cell_length_b       10.074
_cell_length_c       13.503
_cell_angle_alpha    68.951
_cell_angle_beta     80.872
_cell_angle_gamma    76.667

_symmetry_space_group_name_H-M    "P 1"
_symmetry_Int_Tables_number       1

loop_
  _symmetry_equiv_pos_as_xyz
  'x, y, z'

loop_
  _atom_site_type_symbol
  _atom_site_label
  _atom_site_symmetry_multiplicity
  _atom_site_fract_x
  _atom_site_fract_y
  _atom_site_fract_z
  _atom_site_occupancy
  _atom_site_charge
Nd  Nd1       1.0  0.17122  0.38459  0.80334  1.0000 1.9116164322
Nd  Nd2       1.0  0.82878  0.61541  0.19666  1.0000 1.9180343027
H   H1        1.0  0.67610  0.95310  0.97320  1.0000 0.1316826964
H   H2        1.0  0.32390  0.04690  0.02680  1.0000 0.1316826964
H   H3        1.0  0.29840  0.67290  0.37070  1.0000 0.1355547185
H   H4        1.0  0.70160  0.32710  0.62930  1.0000 0.1355547185
C   C1        1.0  0.71620  0.23050  0.85950  1.0000 0.5948138113
C   C2        1.0  0.28380  0.76950  0.14050  1.0000 0.5948138113
C   C3        1.0  0.86640  0.10500  0.93180  1.0000 0.061772051
C   C4        1.0  0.13360  0.89500  0.06820  1.0000 0.061772051
C   C5        1.0  0.80940  0.97060  0.98550  1.0000 0.0800893182
C   C6        1.0  0.19060  0.02940  0.01450  1.0000 0.0800893182
C   C7        1.0  0.05310  0.61580  0.55910  1.0000 0.5656397815
C   C8        1.0  0.94690  0.38420  0.44090  1.0000 0.5656397815
C   C9        1.0  0.28980  0.55490  0.52700  1.0000 0.0901600594
C   C10       1.0  0.71020  0.44510  0.47300  1.0000 0.0901600594
C   C11       1.0  0.38360  0.60120  0.42250  1.0000 0.0800893182
C   C12       1.0  0.61640  0.39880  0.57750  1.0000 0.0800893182
C   C13       1.0  0.91270  0.55970  0.96620  1.0000 0.5148624058
C   C14       1.0  0.08730  0.44030  0.03380  1.0000 0.515977251
N   N1        1.0  0.05980  0.13410  0.94560  1.0000 -0.2943564182
N   N2        1.0  0.94020  0.86590  0.05440  1.0000 -0.2950191324
N   N3        1.0  0.40760  0.45430  0.60540  1.0000 -0.3216464942
N   N4        1.0  0.59240  0.54570  0.39460  1.0000 -0.3216464942
O   O1        1.0  0.78790  0.34570  0.81540  1.0000 -0.6111904209
O   O2        1.0  0.21210  0.65430  0.18460  1.0000 -0.6111904209
O   O3        1.0  0.52620  0.21240  0.85040  1.0000 -0.6413742726
O   O4        1.0  0.47380  0.78760  0.14960  1.0000 -0.6413742726
O   O5        1.0  0.98820  0.56910  0.65620  1.0000 -0.6111904209
O   O6        1.0  0.01180  0.43090  0.34380  1.0000 -0.6111904209
O   O7        1.0  0.93530  0.70750  0.48860  1.0000 -0.5257879918
O   O8        1.0  0.06470  0.29250  0.51140  1.0000 -0.5257879918
O   O9        1.0  0.91710  0.56920  0.87110  1.0000 -0.5611380463
O   O10       1.0  0.08290  0.43080  0.12890  1.0000 -0.5611380463
O   O11       1.0  0.77940  0.63690  0.01220  1.0000 -0.6030315285
O   O12       1.0  0.22060  0.36310  0.98780  1.0000 -0.6030315285
