# DDEC6 charges by PACMAN v1.1 (https://github.com/mtap-research/PACMAN-charge/)
data_2011[Zn][nan]3[ASR]11
_chemical_formula_sum              "Zn24 H192 C432 N96 O192"
_cell_length_a       31.215
_cell_length_b       31.215
_cell_length_c       31.215
_cell_angle_alpha    109.471
_cell_angle_beta     109.471
_cell_angle_gamma    109.471

_symmetry_space_group_name_H-M    "P 1"
_symmetry_Int_Tables_number       1

loop_
  _symmetry_equiv_pos_as_xyz
  'x, y, z'

loop_
  _atom_site_type_symbol
  _atom_site_label
  _atom_site_symmetry_multiplicity
  _atom_site_fract_x
  _atom_site_fract_y
  _atom_site_fract_z
  _atom_site_occupancy
  _atom_site_charge
Zn  Zn1       1.0  0.75000  0.35928  0.60928  1.0000 0.9296454458
Zn  Zn2       1.0  0.25000  0.14072  0.89072  1.0000 0.9296454458
Zn  Zn3       1.0  0.60928  0.75000  0.35928  1.0000 0.9296454458
Zn  Zn4       1.0  0.35928  0.60928  0.75000  1.0000 0.9296454458
Zn  Zn5       1.0  0.89072  0.25000  0.14072  1.0000 0.9296454458
Zn  Zn6       1.0  0.14072  0.89072  0.25000  1.0000 0.9296454458
Zn  Zn7       1.0  0.14072  0.75000  0.89072  1.0000 0.9296454458
Zn  Zn8       1.0  0.35928  0.25000  0.60928  1.0000 0.9296454458
Zn  Zn9       1.0  0.75000  0.89072  0.14072  1.0000 0.9296454458
Zn  Zn10      1.0  0.89072  0.14072  0.75000  1.0000 0.9296454458
Zn  Zn11      1.0  0.25000  0.60928  0.35928  1.0000 0.9296454458
Zn  Zn12      1.0  0.60928  0.35928  0.25000  1.0000 0.9296454458
Zn  Zn13      1.0  0.99869  0.50131  0.75000  1.0000 0.9296454458
Zn  Zn14      1.0  0.25131  0.24869  0.75000  1.0000 0.9296454458
Zn  Zn15      1.0  0.50131  0.25131  0.50262  1.0000 0.9296454458
Zn  Zn16      1.0  0.24869  0.99869  0.99738  1.0000 0.9296454458
Zn  Zn17      1.0  0.75000  0.99869  0.50131  1.0000 0.9296454458
Zn  Zn18      1.0  0.50131  0.75000  0.99869  1.0000 0.9296454458
Zn  Zn19      1.0  0.99738  0.24869  0.99869  1.0000 0.9296454458
Zn  Zn20      1.0  0.24869  0.75000  0.25131  1.0000 0.9296454458
Zn  Zn21      1.0  0.75000  0.25131  0.24869  1.0000 0.9296454458
Zn  Zn22      1.0  0.25131  0.50262  0.50131  1.0000 0.9296454458
Zn  Zn23      1.0  0.50262  0.50131  0.25131  1.0000 0.9296454458
Zn  Zn24      1.0  0.99869  0.99738  0.24869  1.0000 0.9296454458
H   H1        1.0  0.88620  0.41200  0.88240  1.0000 0.314202236
H   H2        1.0  0.02960  0.00380  0.61760  1.0000 0.314202236
H   H3        1.0  0.61380  0.49620  0.52580  1.0000 0.314202236
H   H4        1.0  0.47040  0.08800  0.97420  1.0000 0.314202236
H   H5        1.0  0.88240  0.88620  0.41200  1.0000 0.314202236
H   H6        1.0  0.41200  0.88240  0.88620  1.0000 0.314202236
H   H7        1.0  0.97420  0.47040  0.08800  1.0000 0.314202236
H   H8        1.0  0.00380  0.61760  0.02960  1.0000 0.314202236
H   H9        1.0  0.61760  0.02960  0.00380  1.0000 0.314202236
H   H10       1.0  0.49620  0.52580  0.61380  1.0000 0.314202236
H   H11       1.0  0.52580  0.61380  0.49620  1.0000 0.314202236
H   H12       1.0  0.08800  0.97420  0.47040  1.0000 0.314202236
H   H13       1.0  0.08800  0.61380  0.61760  1.0000 0.314202236
H   H14       1.0  0.49620  0.47040  0.88240  1.0000 0.314202236
H   H15       1.0  0.00380  0.88620  0.97420  1.0000 0.314202236
H   H16       1.0  0.41200  0.02960  0.52580  1.0000 0.314202236
H   H17       1.0  0.61380  0.61760  0.08800  1.0000 0.314202236
H   H18       1.0  0.61760  0.08800  0.61380  1.0000 0.314202236
H   H19       1.0  0.02960  0.52580  0.41200  1.0000 0.314202236
H   H20       1.0  0.88240  0.49620  0.47040  1.0000 0.314202236
H   H21       1.0  0.47040  0.88240  0.49620  1.0000 0.314202236
H   H22       1.0  0.97420  0.00380  0.88620  1.0000 0.314202236
H   H23       1.0  0.88620  0.97420  0.00380  1.0000 0.314202236
H   H24       1.0  0.52580  0.41200  0.02960  1.0000 0.314202236
H   H25       1.0  0.64450  0.05730  0.49280  1.0000 0.1414408136
H   H26       1.0  0.06450  0.15170  0.00720  1.0000 0.1414408136
H   H27       1.0  0.85550  0.34830  0.41280  1.0000 0.1414408136
H   H28       1.0  0.43550  0.44270  0.08720  1.0000 0.1414408136
H   H29       1.0  0.49280  0.64450  0.05730  1.0000 0.1414408136
H   H30       1.0  0.05730  0.49280  0.64450  1.0000 0.1414408136
H   H31       1.0  0.08720  0.43550  0.44270  1.0000 0.1414408136
H   H32       1.0  0.15170  0.00720  0.06450  1.0000 0.1414408136
H   H33       1.0  0.00720  0.06450  0.15170  1.0000 0.1414408136
H   H34       1.0  0.34830  0.41280  0.85550  1.0000 0.1414408136
H   H35       1.0  0.41280  0.85550  0.34830  1.0000 0.1414408136
H   H36       1.0  0.44270  0.08720  0.43550  1.0000 0.1414408136
H   H37       1.0  0.44270  0.85550  0.00720  1.0000 0.1414408136
H   H38       1.0  0.34830  0.43550  0.49280  1.0000 0.1414408136
H   H39       1.0  0.15170  0.64450  0.08720  1.0000 0.1414408136
H   H40       1.0  0.05730  0.06450  0.41280  1.0000 0.1414408136
H   H41       1.0  0.85550  0.00720  0.44270  1.0000 0.1414408136
H   H42       1.0  0.00720  0.44270  0.85550  1.0000 0.1414408136
H   H43       1.0  0.06450  0.41280  0.05730  1.0000 0.1414408136
H   H44       1.0  0.49280  0.34830  0.43550  1.0000 0.1414408136
H   H45       1.0  0.43550  0.49280  0.34830  1.0000 0.1414408136
H   H46       1.0  0.08720  0.15170  0.64450  1.0000 0.1414408136
H   H47       1.0  0.64450  0.08720  0.15170  1.0000 0.1414408136
H   H48       1.0  0.41280  0.05730  0.06450  1.0000 0.1414408136
H   H49       1.0  0.64340  0.19360  0.53820  1.0000 0.152656649
H   H50       1.0  0.15540  0.10520  0.96180  1.0000 0.152656649
H   H51       1.0  0.85660  0.39480  0.55020  1.0000 0.152656649
H   H52       1.0  0.34460  0.30640  0.94980  1.0000 0.152656649
H   H53       1.0  0.53820  0.64340  0.19360  1.0000 0.152656649
H   H54       1.0  0.19360  0.53820  0.64340  1.0000 0.152656649
H   H55       1.0  0.94980  0.34460  0.30640  1.0000 0.152656649
H   H56       1.0  0.10520  0.96180  0.15540  1.0000 0.152656649
H   H57       1.0  0.96180  0.15540  0.10520  1.0000 0.152656649
H   H58       1.0  0.39480  0.55020  0.85660  1.0000 0.152656649
H   H59       1.0  0.55020  0.85660  0.39480  1.0000 0.152656649
H   H60       1.0  0.30640  0.94980  0.34460  1.0000 0.152656649
H   H61       1.0  0.30640  0.85660  0.96180  1.0000 0.152656649
H   H62       1.0  0.39480  0.34460  0.53820  1.0000 0.152656649
H   H63       1.0  0.10520  0.64340  0.94980  1.0000 0.152656649
H   H64       1.0  0.19360  0.15540  0.55020  1.0000 0.152656649
H   H65       1.0  0.85660  0.96180  0.30640  1.0000 0.152656649
H   H66       1.0  0.96180  0.30640  0.85660  1.0000 0.152656649
H   H67       1.0  0.15540  0.55020  0.19360  1.0000 0.152656649
H   H68       1.0  0.53820  0.39480  0.34460  1.0000 0.152656649
H   H69       1.0  0.34460  0.53820  0.39480  1.0000 0.152656649
H   H70       1.0  0.94980  0.10520  0.64340  1.0000 0.152656649
H   H71       1.0  0.64340  0.94980  0.10520  1.0000 0.152656649
H   H72       1.0  0.55020  0.19360  0.15540  1.0000 0.152656649
H   H73       1.0  0.97820  0.52480  0.90120  1.0000 0.1262635136
H   H74       1.0  0.12360  0.07700  0.59880  1.0000 0.1262635136
H   H75       1.0  0.52180  0.42300  0.54660  1.0000 0.1262635136
H   H76       1.0  0.37640  0.97520  0.95340  1.0000 0.1262635136
H   H77       1.0  0.90120  0.97820  0.52480  1.0000 0.1262635136
H   H78       1.0  0.52480  0.90120  0.97820  1.0000 0.1262635136
H   H79       1.0  0.95340  0.37640  0.97520  1.0000 0.1262635136
H   H80       1.0  0.07700  0.59880  0.12360  1.0000 0.1262635136
H   H81       1.0  0.59880  0.12360  0.07700  1.0000 0.1262635136
H   H82       1.0  0.42300  0.54660  0.52180  1.0000 0.1262635136
H   H83       1.0  0.54660  0.52180  0.42300  1.0000 0.1262635136
H   H84       1.0  0.97520  0.95340  0.37640  1.0000 0.1262635136
H   H85       1.0  0.97520  0.52180  0.59880  1.0000 0.1262635136
H   H86       1.0  0.42300  0.37640  0.90120  1.0000 0.1262635136
H   H87       1.0  0.07700  0.97820  0.95340  1.0000 0.1262635136
H   H88       1.0  0.52480  0.12360  0.54660  1.0000 0.1262635136
H   H89       1.0  0.52180  0.59880  0.97520  1.0000 0.1262635136
H   H90       1.0  0.59880  0.97520  0.52180  1.0000 0.1262635136
H   H91       1.0  0.12360  0.54660  0.52480  1.0000 0.1262635136
H   H92       1.0  0.90120  0.42300  0.37640  1.0000 0.1262635136
H   H93       1.0  0.37640  0.90120  0.42300  1.0000 0.1262635136
H   H94       1.0  0.95340  0.07700  0.97820  1.0000 0.1262635136
H   H95       1.0  0.97820  0.95340  0.07700  1.0000 0.1262635136
H   H96       1.0  0.54660  0.52480  0.12360  1.0000 0.1262635136
H   H97       1.0  0.56840  0.11910  0.49450  1.0000 0.3045246546
H   H98       1.0  0.12460  0.07390  0.00550  1.0000 0.3045246546
H   H99       1.0  0.93160  0.42610  0.55070  1.0000 0.3045246546
H   H100      1.0  0.37540  0.38090  0.94930  1.0000 0.3045246546
H   H101      1.0  0.49450  0.56840  0.11910  1.0000 0.3045246546
H   H102      1.0  0.11910  0.49450  0.56840  1.0000 0.3045246546
H   H103      1.0  0.94930  0.37540  0.38090  1.0000 0.3045246546
H   H104      1.0  0.07390  0.00550  0.12460  1.0000 0.3045246546
H   H105      1.0  0.00550  0.12460  0.07390  1.0000 0.3045246546
H   H106      1.0  0.42610  0.55070  0.93160  1.0000 0.3045246546
H   H107      1.0  0.55070  0.93160  0.42610  1.0000 0.3045246546
H   H108      1.0  0.38090  0.94930  0.37540  1.0000 0.3045246546
H   H109      1.0  0.38090  0.93160  0.00550  1.0000 0.3045246546
H   H110      1.0  0.42610  0.37540  0.49450  1.0000 0.3045246546
H   H111      1.0  0.07390  0.56840  0.94930  1.0000 0.3045246546
H   H112      1.0  0.11910  0.12460  0.55070  1.0000 0.3045246546
H   H113      1.0  0.93160  0.00550  0.38090  1.0000 0.3045246546
H   H114      1.0  0.00550  0.38090  0.93160  1.0000 0.3045246546
H   H115      1.0  0.12460  0.55070  0.11910  1.0000 0.3045246546
H   H116      1.0  0.49450  0.42610  0.37540  1.0000 0.3045246546
H   H117      1.0  0.37540  0.49450  0.42610  1.0000 0.3045246546
H   H118      1.0  0.94930  0.07390  0.56840  1.0000 0.3045246546
H   H119      1.0  0.56840  0.94930  0.07390  1.0000 0.3045246546
H   H120      1.0  0.55070  0.11910  0.12460  1.0000 0.3045246546
H   H121      1.0  0.83150  0.40390  0.80220  1.0000 0.1414408136
H   H122      1.0  0.10170  0.02930  0.69780  1.0000 0.1414408136
H   H123      1.0  0.66850  0.47070  0.57240  1.0000 0.1414408136
H   H124      1.0  0.39830  0.09610  0.92760  1.0000 0.1414408136
H   H125      1.0  0.80220  0.83150  0.40390  1.0000 0.1414408136
H   H126      1.0  0.40390  0.80220  0.83150  1.0000 0.1414408136
H   H127      1.0  0.92760  0.39830  0.09610  1.0000 0.1414408136
H   H128      1.0  0.02930  0.69780  0.10170  1.0000 0.1414408136
H   H129      1.0  0.69780  0.10170  0.02930  1.0000 0.1414408136
H   H130      1.0  0.47070  0.57240  0.66850  1.0000 0.1414408136
H   H131      1.0  0.57240  0.66850  0.47070  1.0000 0.1414408136
H   H132      1.0  0.09610  0.92760  0.39830  1.0000 0.1414408136
H   H133      1.0  0.09610  0.66850  0.69780  1.0000 0.1414408136
H   H134      1.0  0.47070  0.39830  0.80220  1.0000 0.1414408136
H   H135      1.0  0.02930  0.83150  0.92760  1.0000 0.1414408136
H   H136      1.0  0.40390  0.10170  0.57240  1.0000 0.1414408136
H   H137      1.0  0.66850  0.69780  0.09610  1.0000 0.1414408136
H   H138      1.0  0.69780  0.09610  0.66850  1.0000 0.1414408136
H   H139      1.0  0.10170  0.57240  0.40390  1.0000 0.1414408136
H   H140      1.0  0.80220  0.47070  0.39830  1.0000 0.1414408136
H   H141      1.0  0.39830  0.80220  0.47070  1.0000 0.1414408136
H   H142      1.0  0.92760  0.02930  0.83150  1.0000 0.1414408136
H   H143      1.0  0.83150  0.92760  0.02930  1.0000 0.1414408136
H   H144      1.0  0.57240  0.40390  0.10170  1.0000 0.1414408136
H   H145      1.0  0.90420  0.48920  0.75260  1.0000 0.1414408136
H   H146      1.0  0.23660  0.15160  0.74740  1.0000 0.1414408136
H   H147      1.0  0.59580  0.34840  0.58500  1.0000 0.1414408136
H   H148      1.0  0.26340  0.01080  0.91500  1.0000 0.1414408136
H   H149      1.0  0.75260  0.90420  0.48920  1.0000 0.1414408136
H   H150      1.0  0.48920  0.75260  0.90420  1.0000 0.1414408136
H   H151      1.0  0.91500  0.26340  0.01080  1.0000 0.1414408136
H   H152      1.0  0.15160  0.74740  0.23660  1.0000 0.1414408136
H   H153      1.0  0.74740  0.23660  0.15160  1.0000 0.1414408136
H   H154      1.0  0.34840  0.58500  0.59580  1.0000 0.1414408136
H   H155      1.0  0.58500  0.59580  0.34840  1.0000 0.1414408136
H   H156      1.0  0.01080  0.91500  0.26340  1.0000 0.1414408136
H   H157      1.0  0.01080  0.59580  0.74740  1.0000 0.1414408136
H   H158      1.0  0.34840  0.26340  0.75260  1.0000 0.1414408136
H   H159      1.0  0.15160  0.90420  0.91500  1.0000 0.1414408136
H   H160      1.0  0.48920  0.23660  0.58500  1.0000 0.1414408136
H   H161      1.0  0.59580  0.74740  0.01080  1.0000 0.1414408136
H   H162      1.0  0.74740  0.01080  0.59580  1.0000 0.1414408136
H   H163      1.0  0.23660  0.58500  0.48920  1.0000 0.1414408136
H   H164      1.0  0.75260  0.34840  0.26340  1.0000 0.1414408136
H   H165      1.0  0.26340  0.75260  0.34840  1.0000 0.1414408136
H   H166      1.0  0.91500  0.15160  0.90420  1.0000 0.1414408136
H   H167      1.0  0.90420  0.91500  0.15160  1.0000 0.1414408136
H   H168      1.0  0.58500  0.48920  0.23660  1.0000 0.1414408136
H   H169      1.0  0.78010  0.19390  0.58040  1.0000 0.1414408136
H   H170      1.0  0.11350  0.19970  0.91960  1.0000 0.1414408136
H   H171      1.0  0.71990  0.30030  0.41380  1.0000 0.1414408136
H   H172      1.0  0.38650  0.30610  0.08620  1.0000 0.1414408136
H   H173      1.0  0.58040  0.78010  0.19390  1.0000 0.1414408136
H   H174      1.0  0.19390  0.58040  0.78010  1.0000 0.1414408136
H   H175      1.0  0.08620  0.38650  0.30610  1.0000 0.1414408136
H   H176      1.0  0.19970  0.91960  0.11350  1.0000 0.1414408136
H   H177      1.0  0.91960  0.11350  0.19970  1.0000 0.1414408136
H   H178      1.0  0.30030  0.41380  0.71990  1.0000 0.1414408136
H   H179      1.0  0.41380  0.71990  0.30030  1.0000 0.1414408136
H   H180      1.0  0.30610  0.08620  0.38650  1.0000 0.1414408136
H   H181      1.0  0.30610  0.71990  0.91960  1.0000 0.1414408136
H   H182      1.0  0.30030  0.38650  0.58040  1.0000 0.1414408136
H   H183      1.0  0.19970  0.78010  0.08620  1.0000 0.1414408136
H   H184      1.0  0.19390  0.11350  0.41380  1.0000 0.1414408136
H   H185      1.0  0.71990  0.91960  0.30610  1.0000 0.1414408136
H   H186      1.0  0.91960  0.30610  0.71990  1.0000 0.1414408136
H   H187      1.0  0.11350  0.41380  0.19390  1.0000 0.1414408136
H   H188      1.0  0.58040  0.30030  0.38650  1.0000 0.1414408136
H   H189      1.0  0.38650  0.58040  0.30030  1.0000 0.1414408136
H   H190      1.0  0.08620  0.19970  0.78010  1.0000 0.1414408136
H   H191      1.0  0.78010  0.08620  0.19970  1.0000 0.1414408136
H   H192      1.0  0.41380  0.19390  0.11350  1.0000 0.1414408136
C   C1        1.0  0.86140  0.44179  0.76885  1.0000 0.0033209595
C   C2        1.0  0.17294  0.09255  0.73115  1.0000 0.0033209595
C   C3        1.0  0.63860  0.40745  0.58039  1.0000 0.0033209595
C   C4        1.0  0.32706  0.05821  0.91961  1.0000 0.0033209595
C   C5        1.0  0.76885  0.86140  0.44179  1.0000 0.0033209595
C   C6        1.0  0.44179  0.76885  0.86140  1.0000 0.0033209595
C   C7        1.0  0.91961  0.32706  0.05821  1.0000 0.0033209595
C   C8        1.0  0.09255  0.73115  0.17294  1.0000 0.0033209595
C   C9        1.0  0.73115  0.17294  0.09255  1.0000 0.0033209595
C   C10       1.0  0.40745  0.58039  0.63860  1.0000 0.0033209595
C   C11       1.0  0.58039  0.63860  0.40745  1.0000 0.0033209595
C   C12       1.0  0.05821  0.91961  0.32706  1.0000 0.0033209595
C   C13       1.0  0.05821  0.63860  0.73115  1.0000 0.0033209595
C   C14       1.0  0.40745  0.32706  0.76885  1.0000 0.0033209595
C   C15       1.0  0.09255  0.86140  0.91961  1.0000 0.0033209595
C   C16       1.0  0.44179  0.17294  0.58039  1.0000 0.0033209595
C   C17       1.0  0.63860  0.73115  0.05821  1.0000 0.0033209595
C   C18       1.0  0.73115  0.05821  0.63860  1.0000 0.0033209595
C   C19       1.0  0.17294  0.58039  0.44179  1.0000 0.0033209595
C   C20       1.0  0.76885  0.40745  0.32706  1.0000 0.0033209595
C   C21       1.0  0.32706  0.76885  0.40745  1.0000 0.0033209595
C   C22       1.0  0.91961  0.09255  0.86140  1.0000 0.0033209595
C   C23       1.0  0.86140  0.91961  0.09255  1.0000 0.0033209595
C   C24       1.0  0.58039  0.44179  0.17294  1.0000 0.0033209595
C   C25       1.0  0.93390  0.47307  0.94813  1.0000 0.5545988425
C   C26       1.0  0.02494  0.98577  0.55187  1.0000 0.5545988425
C   C27       1.0  0.56610  0.51423  0.53917  1.0000 0.5545988425
C   C28       1.0  0.47506  0.02693  0.96083  1.0000 0.5545988425
C   C29       1.0  0.94813  0.93390  0.47307  1.0000 0.5545988425
C   C30       1.0  0.47307  0.94813  0.93390  1.0000 0.5545988425
C   C31       1.0  0.96083  0.47506  0.02693  1.0000 0.5545988425
C   C32       1.0  0.98577  0.55187  0.02494  1.0000 0.5545988425
C   C33       1.0  0.55187  0.02494  0.98577  1.0000 0.5545988425
C   C34       1.0  0.51423  0.53917  0.56610  1.0000 0.5545988425
C   C35       1.0  0.53917  0.56610  0.51423  1.0000 0.5545988425
C   C36       1.0  0.02693  0.96083  0.47506  1.0000 0.5545988425
C   C37       1.0  0.02693  0.56610  0.55187  1.0000 0.5545988425
C   C38       1.0  0.51423  0.47506  0.94813  1.0000 0.5545988425
C   C39       1.0  0.98577  0.93390  0.96083  1.0000 0.5545988425
C   C40       1.0  0.47307  0.02494  0.53917  1.0000 0.5545988425
C   C41       1.0  0.56610  0.55187  0.02693  1.0000 0.5545988425
C   C42       1.0  0.55187  0.02693  0.56610  1.0000 0.5545988425
C   C43       1.0  0.02494  0.53917  0.47307  1.0000 0.5545988425
C   C44       1.0  0.94813  0.51423  0.47506  1.0000 0.5545988425
C   C45       1.0  0.47506  0.94813  0.51423  1.0000 0.5545988425
C   C46       1.0  0.96083  0.98577  0.93390  1.0000 0.5545988425
C   C47       1.0  0.93390  0.96083  0.98577  1.0000 0.5545988425
C   C48       1.0  0.53917  0.47307  0.02494  1.0000 0.5545988425
C   C49       1.0  0.54077  0.04704  0.45835  1.0000 0.5322414859
C   C50       1.0  0.08869  0.08242  0.04165  1.0000 0.5322414859
C   C51       1.0  0.95923  0.41758  0.50627  1.0000 0.5322414859
C   C52       1.0  0.41131  0.45296  0.99373  1.0000 0.5322414859
C   C53       1.0  0.45835  0.54077  0.04704  1.0000 0.5322414859
C   C54       1.0  0.04704  0.45835  0.54077  1.0000 0.5322414859
C   C55       1.0  0.99373  0.41131  0.45296  1.0000 0.5322414859
C   C56       1.0  0.08242  0.04165  0.08869  1.0000 0.5322414859
C   C57       1.0  0.04165  0.08869  0.08242  1.0000 0.5322414859
C   C58       1.0  0.41758  0.50627  0.95923  1.0000 0.5322414859
C   C59       1.0  0.50627  0.95923  0.41758  1.0000 0.5322414859
C   C60       1.0  0.45296  0.99373  0.41131  1.0000 0.5322414859
C   C61       1.0  0.45296  0.95923  0.04165  1.0000 0.5322414859
C   C62       1.0  0.41758  0.41131  0.45835  1.0000 0.5322414859
C   C63       1.0  0.08242  0.54077  0.99373  1.0000 0.5322414859
C   C64       1.0  0.04704  0.08869  0.50627  1.0000 0.5322414859
C   C65       1.0  0.95923  0.04165  0.45296  1.0000 0.5322414859
C   C66       1.0  0.04165  0.45296  0.95923  1.0000 0.5322414859
C   C67       1.0  0.08869  0.50627  0.04704  1.0000 0.5322414859
C   C68       1.0  0.45835  0.41758  0.41131  1.0000 0.5322414859
C   C69       1.0  0.41131  0.45835  0.41758  1.0000 0.5322414859
C   C70       1.0  0.99373  0.08242  0.54077  1.0000 0.5322414859
C   C71       1.0  0.54077  0.99373  0.08242  1.0000 0.5322414859
C   C72       1.0  0.50627  0.04704  0.08869  1.0000 0.5322414859
C   C73       1.0  0.71709  0.20363  0.56258  1.0000 0.0329723585
C   C74       1.0  0.14105  0.15451  0.93742  1.0000 0.0329723585
C   C75       1.0  0.78291  0.34549  0.48654  1.0000 0.0329723585
C   C76       1.0  0.35895  0.29637  0.01346  1.0000 0.0329723585
C   C77       1.0  0.56258  0.71709  0.20363  1.0000 0.0329723585
C   C78       1.0  0.20363  0.56258  0.71709  1.0000 0.0329723585
C   C79       1.0  0.01346  0.35895  0.29637  1.0000 0.0329723585
C   C80       1.0  0.15451  0.93742  0.14105  1.0000 0.0329723585
C   C81       1.0  0.93742  0.14105  0.15451  1.0000 0.0329723585
C   C82       1.0  0.34549  0.48654  0.78291  1.0000 0.0329723585
C   C83       1.0  0.48654  0.78291  0.34549  1.0000 0.0329723585
C   C84       1.0  0.29637  0.01346  0.35895  1.0000 0.0329723585
C   C85       1.0  0.29637  0.78291  0.93742  1.0000 0.0329723585
C   C86       1.0  0.34549  0.35895  0.56258  1.0000 0.0329723585
C   C87       1.0  0.15451  0.71709  0.01346  1.0000 0.0329723585
C   C88       1.0  0.20363  0.14105  0.48654  1.0000 0.0329723585
C   C89       1.0  0.78291  0.93742  0.29637  1.0000 0.0329723585
C   C90       1.0  0.93742  0.29637  0.78291  1.0000 0.0329723585
C   C91       1.0  0.14105  0.48654  0.20363  1.0000 0.0329723585
C   C92       1.0  0.56258  0.34549  0.35895  1.0000 0.0329723585
C   C93       1.0  0.35895  0.56258  0.34549  1.0000 0.0329723585
C   C94       1.0  0.01346  0.15451  0.71709  1.0000 0.0329723585
C   C95       1.0  0.71709  0.01346  0.15451  1.0000 0.0329723585
C   C96       1.0  0.48654  0.20363  0.14105  1.0000 0.0329723585
C   C97       1.0  0.71665  0.12211  0.53808  1.0000 0.0138356417
C   C98       1.0  0.08403  0.17857  0.96192  1.0000 0.0138356417
C   C99       1.0  0.78335  0.32143  0.40546  1.0000 0.0138356417
C   C100      1.0  0.41597  0.37789  0.09454  1.0000 0.0138356417
C   C101      1.0  0.53808  0.71665  0.12211  1.0000 0.0138356417
C   C102      1.0  0.12211  0.53808  0.71665  1.0000 0.0138356417
C   C103      1.0  0.09454  0.41597  0.37789  1.0000 0.0138356417
C   C104      1.0  0.17857  0.96192  0.08403  1.0000 0.0138356417
C   C105      1.0  0.96192  0.08403  0.17857  1.0000 0.0138356417
C   C106      1.0  0.32143  0.40546  0.78335  1.0000 0.0138356417
C   C107      1.0  0.40546  0.78335  0.32143  1.0000 0.0138356417
C   C108      1.0  0.37789  0.09454  0.41597  1.0000 0.0138356417
C   C109      1.0  0.37789  0.78335  0.96192  1.0000 0.0138356417
C   C110      1.0  0.32143  0.41597  0.53808  1.0000 0.0138356417
C   C111      1.0  0.17857  0.71665  0.09454  1.0000 0.0138356417
C   C112      1.0  0.12211  0.08403  0.40546  1.0000 0.0138356417
C   C113      1.0  0.78335  0.96192  0.37789  1.0000 0.0138356417
C   C114      1.0  0.96192  0.37789  0.78335  1.0000 0.0138356417
C   C115      1.0  0.08403  0.40546  0.12211  1.0000 0.0138356417
C   C116      1.0  0.53808  0.32143  0.41597  1.0000 0.0138356417
C   C117      1.0  0.41597  0.53808  0.32143  1.0000 0.0138356417
C   C118      1.0  0.09454  0.17857  0.71665  1.0000 0.0138356417
C   C119      1.0  0.71665  0.09454  0.17857  1.0000 0.0138356417
C   C120      1.0  0.40546  0.12211  0.08403  1.0000 0.0138356417
C   C121      1.0  0.63442  0.12112  0.51192  1.0000 0.2210735175
C   C122      1.0  0.10920  0.12250  0.98808  1.0000 0.2210735175
C   C123      1.0  0.86558  0.37750  0.48670  1.0000 0.2210735175
C   C124      1.0  0.39080  0.37888  0.01330  1.0000 0.2210735175
C   C125      1.0  0.51192  0.63442  0.12112  1.0000 0.2210735175
C   C126      1.0  0.12112  0.51192  0.63442  1.0000 0.2210735175
C   C127      1.0  0.01330  0.39080  0.37888  1.0000 0.2210735175
C   C128      1.0  0.12250  0.98808  0.10920  1.0000 0.2210735175
C   C129      1.0  0.98808  0.10920  0.12250  1.0000 0.2210735175
C   C130      1.0  0.37750  0.48670  0.86558  1.0000 0.2210735175
C   C131      1.0  0.48670  0.86558  0.37750  1.0000 0.2210735175
C   C132      1.0  0.37888  0.01330  0.39080  1.0000 0.2210735175
C   C133      1.0  0.37888  0.86558  0.98808  1.0000 0.2210735175
C   C134      1.0  0.37750  0.39080  0.51192  1.0000 0.2210735175
C   C135      1.0  0.12250  0.63442  0.01330  1.0000 0.2210735175
C   C136      1.0  0.12112  0.10920  0.48670  1.0000 0.2210735175
C   C137      1.0  0.86558  0.98808  0.37888  1.0000 0.2210735175
C   C138      1.0  0.98808  0.37888  0.86558  1.0000 0.2210735175
C   C139      1.0  0.10920  0.48670  0.12112  1.0000 0.2210735175
C   C140      1.0  0.51192  0.37750  0.39080  1.0000 0.2210735175
C   C141      1.0  0.39080  0.51192  0.37750  1.0000 0.2210735175
C   C142      1.0  0.01330  0.12250  0.63442  1.0000 0.2210735175
C   C143      1.0  0.63442  0.01330  0.12250  1.0000 0.2210735175
C   C144      1.0  0.48670  0.12112  0.10920  1.0000 0.2210735175
C   C145      1.0  0.66229  0.09379  0.51110  1.0000 -0.1888929043
C   C146      1.0  0.08269  0.15119  0.98890  1.0000 -0.1888929043
C   C147      1.0  0.83771  0.34881  0.43150  1.0000 -0.1888929043
C   C148      1.0  0.41731  0.40621  0.06850  1.0000 -0.1888929043
C   C149      1.0  0.51110  0.66229  0.09379  1.0000 -0.1888929043
C   C150      1.0  0.09379  0.51110  0.66229  1.0000 -0.1888929043
C   C151      1.0  0.06850  0.41731  0.40621  1.0000 -0.1888929043
C   C152      1.0  0.15119  0.98890  0.08269  1.0000 -0.1888929043
C   C153      1.0  0.98890  0.08269  0.15119  1.0000 -0.1888929043
C   C154      1.0  0.34881  0.43150  0.83771  1.0000 -0.1888929043
C   C155      1.0  0.43150  0.83771  0.34881  1.0000 -0.1888929043
C   C156      1.0  0.40621  0.06850  0.41731  1.0000 -0.1888929043
C   C157      1.0  0.40621  0.83771  0.98890  1.0000 -0.1888929043
C   C158      1.0  0.34881  0.41731  0.51110  1.0000 -0.1888929043
C   C159      1.0  0.15119  0.66229  0.06850  1.0000 -0.1888929043
C   C160      1.0  0.09379  0.08269  0.43150  1.0000 -0.1888929043
C   C161      1.0  0.83771  0.98890  0.40621  1.0000 -0.1888929043
C   C162      1.0  0.98890  0.40621  0.83771  1.0000 -0.1888929043
C   C163      1.0  0.08269  0.43150  0.09379  1.0000 -0.1888929043
C   C164      1.0  0.51110  0.34881  0.41731  1.0000 -0.1888929043
C   C165      1.0  0.41731  0.51110  0.34881  1.0000 -0.1888929043
C   C166      1.0  0.06850  0.15119  0.66229  1.0000 -0.1888929043
C   C167      1.0  0.66229  0.06850  0.15119  1.0000 -0.1888929043
C   C168      1.0  0.43150  0.09379  0.08269  1.0000 -0.1888929043
C   C169      1.0  0.66167  0.17544  0.53751  1.0000 -0.1803506644
C   C170      1.0  0.13793  0.12416  0.96249  1.0000 -0.1803506644
C   C171      1.0  0.83833  0.37584  0.51377  1.0000 -0.1803506644
C   C172      1.0  0.36207  0.32456  0.98623  1.0000 -0.1803506644
C   C173      1.0  0.53751  0.66167  0.17544  1.0000 -0.1803506644
C   C174      1.0  0.17544  0.53751  0.66167  1.0000 -0.1803506644
C   C175      1.0  0.98623  0.36207  0.32456  1.0000 -0.1803506644
C   C176      1.0  0.12416  0.96249  0.13793  1.0000 -0.1803506644
C   C177      1.0  0.96249  0.13793  0.12416  1.0000 -0.1803506644
C   C178      1.0  0.37584  0.51377  0.83833  1.0000 -0.1803506644
C   C179      1.0  0.51377  0.83833  0.37584  1.0000 -0.1803506644
C   C180      1.0  0.32456  0.98623  0.36207  1.0000 -0.1803506644
C   C181      1.0  0.32456  0.83833  0.96249  1.0000 -0.1803506644
C   C182      1.0  0.37584  0.36207  0.53751  1.0000 -0.1803506644
C   C183      1.0  0.12416  0.66167  0.98623  1.0000 -0.1803506644
C   C184      1.0  0.17544  0.13793  0.51377  1.0000 -0.1803506644
C   C185      1.0  0.83833  0.96249  0.32456  1.0000 -0.1803506644
C   C186      1.0  0.96249  0.32456  0.83833  1.0000 -0.1803506644
C   C187      1.0  0.13793  0.51377  0.17544  1.0000 -0.1803506644
C   C188      1.0  0.53751  0.37584  0.36207  1.0000 -0.1803506644
C   C189      1.0  0.36207  0.53751  0.37584  1.0000 -0.1803506644
C   C190      1.0  0.98623  0.12416  0.66167  1.0000 -0.1803506644
C   C191      1.0  0.66167  0.98623  0.12416  1.0000 -0.1803506644
C   C192      1.0  0.51377  0.17544  0.13793  1.0000 -0.1803506644
C   C193      1.0  0.94850  0.50327  0.86791  1.0000 -0.1888929043
C   C194      1.0  0.13536  0.08059  0.63209  1.0000 -0.1888929043
C   C195      1.0  0.55150  0.41941  0.55477  1.0000 -0.1888929043
C   C196      1.0  0.36464  0.99673  0.94523  1.0000 -0.1888929043
C   C197      1.0  0.86791  0.94850  0.50327  1.0000 -0.1888929043
C   C198      1.0  0.50327  0.86791  0.94850  1.0000 -0.1888929043
C   C199      1.0  0.94523  0.36464  0.99673  1.0000 -0.1888929043
C   C200      1.0  0.08059  0.63209  0.13536  1.0000 -0.1888929043
C   C201      1.0  0.63209  0.13536  0.08059  1.0000 -0.1888929043
C   C202      1.0  0.41941  0.55477  0.55150  1.0000 -0.1888929043
C   C203      1.0  0.55477  0.55150  0.41941  1.0000 -0.1888929043
C   C204      1.0  0.99673  0.94523  0.36464  1.0000 -0.1888929043
C   C205      1.0  0.99673  0.55150  0.63209  1.0000 -0.1888929043
C   C206      1.0  0.41941  0.36464  0.86791  1.0000 -0.1888929043
C   C207      1.0  0.08059  0.94850  0.94523  1.0000 -0.1888929043
C   C208      1.0  0.50327  0.13536  0.55477  1.0000 -0.1888929043
C   C209      1.0  0.55150  0.63209  0.99673  1.0000 -0.1888929043
C   C210      1.0  0.63209  0.99673  0.55150  1.0000 -0.1888929043
C   C211      1.0  0.13536  0.55477  0.50327  1.0000 -0.1888929043
C   C212      1.0  0.86791  0.41941  0.36464  1.0000 -0.1888929043
C   C213      1.0  0.36464  0.86791  0.41941  1.0000 -0.1888929043
C   C214      1.0  0.94523  0.08059  0.94850  1.0000 -0.1888929043
C   C215      1.0  0.94850  0.94523  0.08059  1.0000 -0.1888929043
C   C216      1.0  0.55477  0.50327  0.13536  1.0000 -0.1888929043
C   C217      1.0  0.94699  0.51502  0.82895  1.0000 -0.0023364646
C   C218      1.0  0.18607  0.11804  0.67105  1.0000 -0.0023364646
C   C219      1.0  0.55301  0.38196  0.56803  1.0000 -0.0023364646
C   C220      1.0  0.31393  0.98498  0.93197  1.0000 -0.0023364646
C   C221      1.0  0.82895  0.94699  0.51502  1.0000 -0.0023364646
C   C222      1.0  0.51502  0.82895  0.94699  1.0000 -0.0023364646
C   C223      1.0  0.93197  0.31393  0.98498  1.0000 -0.0023364646
C   C224      1.0  0.11804  0.67105  0.18607  1.0000 -0.0023364646
C   C225      1.0  0.67105  0.18607  0.11804  1.0000 -0.0023364646
C   C226      1.0  0.38196  0.56803  0.55301  1.0000 -0.0023364646
C   C227      1.0  0.56803  0.55301  0.38196  1.0000 -0.0023364646
C   C228      1.0  0.98498  0.93197  0.31393  1.0000 -0.0023364646
C   C229      1.0  0.98498  0.55301  0.67105  1.0000 -0.0023364646
C   C230      1.0  0.38196  0.31393  0.82895  1.0000 -0.0023364646
C   C231      1.0  0.11804  0.94699  0.93197  1.0000 -0.0023364646
C   C232      1.0  0.51502  0.18607  0.56803  1.0000 -0.0023364646
C   C233      1.0  0.55301  0.67105  0.98498  1.0000 -0.0023364646
C   C234      1.0  0.67105  0.98498  0.55301  1.0000 -0.0023364646
C   C235      1.0  0.18607  0.56803  0.51502  1.0000 -0.0023364646
C   C236      1.0  0.82895  0.38196  0.31393  1.0000 -0.0023364646
C   C237      1.0  0.31393  0.82895  0.38196  1.0000 -0.0023364646
C   C238      1.0  0.93197  0.11804  0.94699  1.0000 -0.0023364646
C   C239      1.0  0.94699  0.93197  0.11804  1.0000 -0.0023364646
C   C240      1.0  0.56803  0.51502  0.18607  1.0000 -0.0023364646
C   C241      1.0  0.81388  0.40756  0.71688  1.0000 0.5399751533
C   C242      1.0  0.19068  0.09700  0.78312  1.0000 0.5399751533
C   C243      1.0  0.68612  0.40300  0.59368  1.0000 0.5399751533
C   C244      1.0  0.30932  0.09244  0.90632  1.0000 0.5399751533
C   C245      1.0  0.71688  0.81388  0.40756  1.0000 0.5399751533
C   C246      1.0  0.40756  0.71688  0.81388  1.0000 0.5399751533
C   C247      1.0  0.90632  0.30932  0.09244  1.0000 0.5399751533
C   C248      1.0  0.09700  0.78312  0.19068  1.0000 0.5399751533
C   C249      1.0  0.78312  0.19068  0.09700  1.0000 0.5399751533
C   C250      1.0  0.40300  0.59368  0.68612  1.0000 0.5399751533
C   C251      1.0  0.59368  0.68612  0.40300  1.0000 0.5399751533
C   C252      1.0  0.09244  0.90632  0.30932  1.0000 0.5399751533
C   C253      1.0  0.09244  0.68612  0.78312  1.0000 0.5399751533
C   C254      1.0  0.40300  0.30932  0.71688  1.0000 0.5399751533
C   C255      1.0  0.09700  0.81388  0.90632  1.0000 0.5399751533
C   C256      1.0  0.40756  0.19068  0.59368  1.0000 0.5399751533
C   C257      1.0  0.68612  0.78312  0.09244  1.0000 0.5399751533
C   C258      1.0  0.78312  0.09244  0.68612  1.0000 0.5399751533
C   C259      1.0  0.19068  0.59368  0.40756  1.0000 0.5399751533
C   C260      1.0  0.71688  0.40300  0.30932  1.0000 0.5399751533
C   C261      1.0  0.30932  0.71688  0.40300  1.0000 0.5399751533
C   C262      1.0  0.90632  0.09700  0.81388  1.0000 0.5399751533
C   C263      1.0  0.81388  0.90632  0.09700  1.0000 0.5399751533
C   C264      1.0  0.59368  0.40756  0.19068  1.0000 0.5399751533
C   C265      1.0  0.86165  0.43094  0.80875  1.0000 -0.1651997382
C   C266      1.0  0.12219  0.05290  0.69125  1.0000 -0.1651997382
C   C267      1.0  0.63835  0.44710  0.56929  1.0000 -0.1644654379
C   C268      1.0  0.37781  0.06906  0.93071  1.0000 -0.1651997382
C   C269      1.0  0.80875  0.86165  0.43094  1.0000 -0.1651997382
C   C270      1.0  0.43094  0.80875  0.86165  1.0000 -0.1644654379
C   C271      1.0  0.93071  0.37781  0.06906  1.0000 -0.1651997382
C   C272      1.0  0.05290  0.69125  0.12219  1.0000 -0.1651997382
C   C273      1.0  0.69125  0.12219  0.05290  1.0000 -0.1644654379
C   C274      1.0  0.44710  0.56929  0.63835  1.0000 -0.1651997382
C   C275      1.0  0.56929  0.63835  0.44710  1.0000 -0.1651997382
C   C276      1.0  0.06906  0.93071  0.37781  1.0000 -0.1651997382
C   C277      1.0  0.06906  0.63835  0.69125  1.0000 -0.1651997382
C   C278      1.0  0.44710  0.37781  0.80875  1.0000 -0.1651997382
C   C279      1.0  0.05290  0.86165  0.93071  1.0000 -0.1651997382
C   C280      1.0  0.43094  0.12219  0.56929  1.0000 -0.1651997382
C   C281      1.0  0.63835  0.69125  0.06906  1.0000 -0.1651997382
C   C282      1.0  0.69125  0.06906  0.63835  1.0000 -0.1651997382
C   C283      1.0  0.12219  0.56929  0.43094  1.0000 -0.1644654379
C   C284      1.0  0.80875  0.44710  0.37781  1.0000 -0.1651997382
C   C285      1.0  0.37781  0.80875  0.44710  1.0000 -0.1651997382
C   C286      1.0  0.93071  0.05290  0.86165  1.0000 -0.1651997382
C   C287      1.0  0.86165  0.93071  0.05290  1.0000 -0.1644654379
C   C288      1.0  0.56929  0.43094  0.12219  1.0000 -0.1651997382
C   C289      1.0  0.90388  0.48262  0.77944  1.0000 -0.0935056864
C   C290      1.0  0.20318  0.12444  0.72056  1.0000 -0.0935056864
C   C291      1.0  0.59612  0.37556  0.57874  1.0000 -0.0935056864
C   C292      1.0  0.29682  0.01738  0.92126  1.0000 -0.0935056864
C   C293      1.0  0.77944  0.90388  0.48262  1.0000 -0.0935056864
C   C294      1.0  0.48262  0.77944  0.90388  1.0000 -0.0935056864
C   C295      1.0  0.92126  0.29682  0.01738  1.0000 -0.0935056864
C   C296      1.0  0.12444  0.72056  0.20318  1.0000 -0.0935056864
C   C297      1.0  0.72056  0.20318  0.12444  1.0000 -0.0935056864
C   C298      1.0  0.37556  0.57874  0.59612  1.0000 -0.0935056864
C   C299      1.0  0.57874  0.59612  0.37556  1.0000 -0.0935056864
C   C300      1.0  0.01738  0.92126  0.29682  1.0000 -0.0935056864
C   C301      1.0  0.01738  0.59612  0.72056  1.0000 -0.0935056864
C   C302      1.0  0.37556  0.29682  0.77944  1.0000 -0.0935056864
C   C303      1.0  0.12444  0.90388  0.92126  1.0000 -0.0935056864
C   C304      1.0  0.48262  0.20318  0.57874  1.0000 -0.0935056864
C   C305      1.0  0.59612  0.72056  0.01738  1.0000 -0.0935056864
C   C306      1.0  0.72056  0.01738  0.59612  1.0000 -0.0935056864
C   C307      1.0  0.20318  0.57874  0.48262  1.0000 -0.0935056864
C   C308      1.0  0.77944  0.37556  0.29682  1.0000 -0.0935056864
C   C309      1.0  0.29682  0.77944  0.37556  1.0000 -0.0935056864
C   C310      1.0  0.92126  0.12444  0.90388  1.0000 -0.0935056864
C   C311      1.0  0.90388  0.92126  0.12444  1.0000 -0.0935056864
C   C312      1.0  0.57874  0.48262  0.20318  1.0000 -0.0935056864
C   C313      1.0  0.90692  0.46028  0.85882  1.0000 0.2343631549
C   C314      1.0  0.10146  0.04810  0.64118  1.0000 0.2343631549
C   C315      1.0  0.59308  0.45190  0.55336  1.0000 0.2343631549
C   C316      1.0  0.39854  0.03972  0.94664  1.0000 0.2343631549
C   C317      1.0  0.85882  0.90692  0.46028  1.0000 0.2343631549
C   C318      1.0  0.46028  0.85882  0.90692  1.0000 0.2343631549
C   C319      1.0  0.94664  0.39854  0.03972  1.0000 0.2343631549
C   C320      1.0  0.04810  0.64118  0.10146  1.0000 0.2343631549
C   C321      1.0  0.64118  0.10146  0.04810  1.0000 0.2343631549
C   C322      1.0  0.45190  0.55336  0.59308  1.0000 0.2343631549
C   C323      1.0  0.55336  0.59308  0.45190  1.0000 0.2343631549
C   C324      1.0  0.03972  0.94664  0.39854  1.0000 0.2343631549
C   C325      1.0  0.03972  0.59308  0.64118  1.0000 0.2343631549
C   C326      1.0  0.45190  0.39854  0.85882  1.0000 0.2343631549
C   C327      1.0  0.04810  0.90692  0.94664  1.0000 0.2343631549
C   C328      1.0  0.46028  0.10146  0.55336  1.0000 0.2343631549
C   C329      1.0  0.59308  0.64118  0.03972  1.0000 0.2343631549
C   C330      1.0  0.64118  0.03972  0.59308  1.0000 0.2343631549
C   C331      1.0  0.10146  0.55336  0.46028  1.0000 0.2343631549
C   C332      1.0  0.85882  0.45190  0.39854  1.0000 0.2343631549
C   C333      1.0  0.39854  0.85882  0.45190  1.0000 0.2343631549
C   C334      1.0  0.94664  0.04810  0.90692  1.0000 0.2343631549
C   C335      1.0  0.90692  0.94664  0.04810  1.0000 0.2343631549
C   C336      1.0  0.55336  0.46028  0.10146  1.0000 0.2343631549
C   C337      1.0  0.74365  0.17593  0.56306  1.0000 -0.0935056864
C   C338      1.0  0.11287  0.18059  0.93694  1.0000 -0.0935056864
C   C339      1.0  0.75635  0.31941  0.43228  1.0000 -0.0935056864
C   C340      1.0  0.38713  0.32407  0.06772  1.0000 -0.0935056864
C   C341      1.0  0.56306  0.74365  0.17593  1.0000 -0.0935056864
C   C342      1.0  0.17593  0.56306  0.74365  1.0000 -0.0935056864
C   C343      1.0  0.06772  0.38713  0.32407  1.0000 -0.0935056864
C   C344      1.0  0.18059  0.93694  0.11287  1.0000 -0.0935056864
C   C345      1.0  0.93694  0.11287  0.18059  1.0000 -0.0935056864
C   C346      1.0  0.31941  0.43228  0.75635  1.0000 -0.0935056864
C   C347      1.0  0.43228  0.75635  0.31941  1.0000 -0.0935056864
C   C348      1.0  0.32407  0.06772  0.38713  1.0000 -0.0935056864
C   C349      1.0  0.32407  0.75635  0.93694  1.0000 -0.0935056864
C   C350      1.0  0.31941  0.38713  0.56306  1.0000 -0.0935056864
C   C351      1.0  0.18059  0.74365  0.06772  1.0000 -0.0935056864
C   C352      1.0  0.17593  0.11287  0.43228  1.0000 -0.0935056864
C   C353      1.0  0.75635  0.93694  0.32407  1.0000 -0.0935056864
C   C354      1.0  0.93694  0.32407  0.75635  1.0000 -0.0935056864
C   C355      1.0  0.11287  0.43228  0.17593  1.0000 -0.0935056864
C   C356      1.0  0.56306  0.31941  0.38713  1.0000 -0.0935056864
C   C357      1.0  0.38713  0.56306  0.31941  1.0000 -0.0935056864
C   C358      1.0  0.06772  0.18059  0.74365  1.0000 -0.0935056864
C   C359      1.0  0.74365  0.06772  0.18059  1.0000 -0.0935056864
C   C360      1.0  0.43228  0.17593  0.11287  1.0000 -0.0935056864
C   C361      1.0  0.74430  0.26318  0.58616  1.0000 0.5244113937
C   C362      1.0  0.17702  0.15814  0.91384  1.0000 0.5244113937
C   C363      1.0  0.75570  0.34186  0.51888  1.0000 0.5244113937
C   C364      1.0  0.32298  0.23682  0.98112  1.0000 0.5244113937
C   C365      1.0  0.58616  0.74430  0.26318  1.0000 0.5244113937
C   C366      1.0  0.26318  0.58616  0.74430  1.0000 0.5244113937
C   C367      1.0  0.98112  0.32298  0.23682  1.0000 0.5244113937
C   C368      1.0  0.15814  0.91384  0.17702  1.0000 0.5244113937
C   C369      1.0  0.91384  0.17702  0.15814  1.0000 0.5244113937
C   C370      1.0  0.34186  0.51888  0.75570  1.0000 0.5244113937
C   C371      1.0  0.51888  0.75570  0.34186  1.0000 0.5244113937
C   C372      1.0  0.23682  0.98112  0.32298  1.0000 0.5322414859
C   C373      1.0  0.23682  0.75570  0.91384  1.0000 0.5244113937
C   C374      1.0  0.34186  0.32298  0.58616  1.0000 0.5244113937
C   C375      1.0  0.15814  0.74430  0.98112  1.0000 0.5244113937
C   C376      1.0  0.26318  0.17702  0.51888  1.0000 0.5244113937
C   C377      1.0  0.75570  0.91384  0.23682  1.0000 0.5244113937
C   C378      1.0  0.91384  0.23682  0.75570  1.0000 0.5244113937
C   C379      1.0  0.17702  0.51888  0.26318  1.0000 0.5244113937
C   C380      1.0  0.58616  0.34186  0.32298  1.0000 0.5244113937
C   C381      1.0  0.32298  0.58616  0.34186  1.0000 0.5244113937
C   C382      1.0  0.98112  0.15814  0.74430  1.0000 0.5244113937
C   C383      1.0  0.74430  0.98112  0.15814  1.0000 0.5244113937
C   C384      1.0  0.51888  0.26318  0.17702  1.0000 0.5244113937
C   C385      1.0  0.74610  0.09120  0.53750  1.0000 0.5399751533
C   C386      1.0  0.05370  0.20860  0.96250  1.0000 0.5399751533
C   C387      1.0  0.75390  0.29140  0.34510  1.0000 0.5399751533
C   C388      1.0  0.44630  0.40880  0.15490  1.0000 0.5399751533
C   C389      1.0  0.53750  0.74610  0.09120  1.0000 0.5399751533
C   C390      1.0  0.09120  0.53750  0.74610  1.0000 0.5399751533
C   C391      1.0  0.15490  0.44630  0.40880  1.0000 0.5399751533
C   C392      1.0  0.20860  0.96250  0.05370  1.0000 0.5399751533
C   C393      1.0  0.96250  0.05370  0.20860  1.0000 0.5399751533
C   C394      1.0  0.29140  0.34510  0.75390  1.0000 0.5399751533
C   C395      1.0  0.34510  0.75390  0.29140  1.0000 0.5399751533
C   C396      1.0  0.40880  0.15490  0.44630  1.0000 0.5399751533
C   C397      1.0  0.40880  0.75390  0.96250  1.0000 0.5399751533
C   C398      1.0  0.29140  0.44630  0.53750  1.0000 0.5399751533
C   C399      1.0  0.20860  0.74610  0.15490  1.0000 0.5399751533
C   C400      1.0  0.09120  0.05370  0.34510  1.0000 0.5399751533
C   C401      1.0  0.75390  0.96250  0.40880  1.0000 0.5399751533
C   C402      1.0  0.96250  0.40880  0.75390  1.0000 0.5399751533
C   C403      1.0  0.05370  0.34510  0.09120  1.0000 0.5399751533
C   C404      1.0  0.53750  0.29140  0.44630  1.0000 0.5399751533
C   C405      1.0  0.44630  0.53750  0.29140  1.0000 0.5399751533
C   C406      1.0  0.15490  0.20860  0.74610  1.0000 0.5399751533
C   C407      1.0  0.74610  0.15490  0.20860  1.0000 0.5399751533
C   C408      1.0  0.34510  0.09120  0.05370  1.0000 0.5399751533
C   C409      1.0  0.99630  0.56310  0.84180  1.0000 0.5661213541
C   C410      1.0  0.22130  0.15450  0.65820  1.0000 0.5661213541
C   C411      1.0  0.50370  0.34550  0.56680  1.0000 0.5661213541
C   C412      1.0  0.27870  0.93690  0.93320  1.0000 0.5661213541
C   C413      1.0  0.84180  0.99630  0.56310  1.0000 0.5661213541
C   C414      1.0  0.56310  0.84180  0.99630  1.0000 0.5661213541
C   C415      1.0  0.93320  0.27870  0.93690  1.0000 0.5661213541
C   C416      1.0  0.15450  0.65820  0.22130  1.0000 0.5661213541
C   C417      1.0  0.65820  0.22130  0.15450  1.0000 0.5661213541
C   C418      1.0  0.34550  0.56680  0.50370  1.0000 0.5661213541
C   C419      1.0  0.56680  0.50370  0.34550  1.0000 0.5661213541
C   C420      1.0  0.93690  0.93320  0.27870  1.0000 0.5661213541
C   C421      1.0  0.93690  0.50370  0.65820  1.0000 0.5661213541
C   C422      1.0  0.34550  0.27870  0.84180  1.0000 0.5661213541
C   C423      1.0  0.15450  0.99630  0.93320  1.0000 0.5661213541
C   C424      1.0  0.56310  0.22130  0.56680  1.0000 0.5661213541
C   C425      1.0  0.50370  0.65820  0.93690  1.0000 0.5661213541
C   C426      1.0  0.65820  0.93690  0.50370  1.0000 0.5661213541
C   C427      1.0  0.22130  0.56680  0.56310  1.0000 0.5661213541
C   C428      1.0  0.84180  0.34550  0.27870  1.0000 0.5661213541
C   C429      1.0  0.27870  0.84180  0.34550  1.0000 0.5661213541
C   C430      1.0  0.93320  0.15450  0.99630  1.0000 0.5661213541
C   C431      1.0  0.99630  0.93320  0.15450  1.0000 0.5661213541
C   C432      1.0  0.56680  0.56310  0.22130  1.0000 0.5661213541
N   N1        1.0  0.93321  0.44571  0.97356  1.0000 -0.532159606
N   N2        1.0  0.97215  0.95965  0.52644  1.0000 -0.532159606
N   N3        1.0  0.56679  0.54035  0.51250  1.0000 -0.532159606
N   N4        1.0  0.52785  0.05429  0.98750  1.0000 -0.532159606
N   N5        1.0  0.97356  0.93321  0.44571  1.0000 -0.532159606
N   N6        1.0  0.44571  0.97356  0.93321  1.0000 -0.532159606
N   N7        1.0  0.98750  0.52785  0.05429  1.0000 -0.532159606
N   N8        1.0  0.95965  0.52644  0.97215  1.0000 -0.532159606
N   N9        1.0  0.52644  0.97215  0.95965  1.0000 -0.532159606
N   N10       1.0  0.54035  0.51250  0.56679  1.0000 -0.532159606
N   N11       1.0  0.51250  0.56679  0.54035  1.0000 -0.532159606
N   N12       1.0  0.05429  0.98750  0.52785  1.0000 -0.532159606
N   N13       1.0  0.05429  0.56679  0.52644  1.0000 -0.532159606
N   N14       1.0  0.54035  0.52785  0.97356  1.0000 -0.532159606
N   N15       1.0  0.95965  0.93321  0.98750  1.0000 -0.532159606
N   N16       1.0  0.44571  0.97215  0.51250  1.0000 -0.532159606
N   N17       1.0  0.56679  0.52644  0.05429  1.0000 -0.532159606
N   N18       1.0  0.52644  0.05429  0.56679  1.0000 -0.532159606
N   N19       1.0  0.97215  0.51250  0.44571  1.0000 -0.532159606
N   N20       1.0  0.97356  0.54035  0.52785  1.0000 -0.532159606
N   N21       1.0  0.52785  0.97356  0.54035  1.0000 -0.532159606
N   N22       1.0  0.98750  0.95965  0.93321  1.0000 -0.532159606
N   N23       1.0  0.93321  0.98750  0.95965  1.0000 -0.532159606
N   N24       1.0  0.51250  0.44571  0.97215  1.0000 -0.532159606
N   N25       1.0  0.55052  0.00839  0.44967  1.0000 -0.532159606
N   N26       1.0  0.05872  0.10085  0.05033  1.0000 -0.532159606
N   N27       1.0  0.94948  0.39915  0.45787  1.0000 -0.532159606
N   N28       1.0  0.44128  0.49161  0.04213  1.0000 -0.532159606
N   N29       1.0  0.44967  0.55052  0.00839  1.0000 -0.532159606
N   N30       1.0  0.00839  0.44967  0.55052  1.0000 -0.532159606
N   N31       1.0  0.04213  0.44128  0.49161  1.0000 -0.532159606
N   N32       1.0  0.10085  0.05033  0.05872  1.0000 -0.532159606
N   N33       1.0  0.05033  0.05872  0.10085  1.0000 -0.532159606
N   N34       1.0  0.39915  0.45787  0.94948  1.0000 -0.532159606
N   N35       1.0  0.45787  0.94948  0.39915  1.0000 -0.532159606
N   N36       1.0  0.49161  0.04213  0.44128  1.0000 -0.532159606
N   N37       1.0  0.49161  0.94948  0.05033  1.0000 -0.532159606
N   N38       1.0  0.39915  0.44128  0.44967  1.0000 -0.532159606
N   N39       1.0  0.10085  0.55052  0.04213  1.0000 -0.532159606
N   N40       1.0  0.00839  0.05872  0.45787  1.0000 -0.532159606
N   N41       1.0  0.94948  0.05033  0.49161  1.0000 -0.532159606
N   N42       1.0  0.05033  0.49161  0.94948  1.0000 -0.532159606
N   N43       1.0  0.05872  0.45787  0.00839  1.0000 -0.532159606
N   N44       1.0  0.44967  0.39915  0.44128  1.0000 -0.532159606
N   N45       1.0  0.44128  0.44967  0.39915  1.0000 -0.532159606
N   N46       1.0  0.04213  0.10085  0.55052  1.0000 -0.532159606
N   N47       1.0  0.55052  0.04213  0.10085  1.0000 -0.532159606
N   N48       1.0  0.45787  0.00839  0.05872  1.0000 -0.532159606
N   N49       1.0  0.90685  0.44487  0.89536  1.0000 -0.3006168865
N   N50       1.0  0.04951  0.01149  0.60464  1.0000 -0.3006168865
N   N51       1.0  0.59315  0.48851  0.53802  1.0000 -0.3006168865
N   N52       1.0  0.45049  0.05513  0.96198  1.0000 -0.3006168865
N   N53       1.0  0.89536  0.90685  0.44487  1.0000 -0.3006168865
N   N54       1.0  0.44487  0.89536  0.90685  1.0000 -0.3006168865
N   N55       1.0  0.96198  0.45049  0.05513  1.0000 -0.3006168865
N   N56       1.0  0.01149  0.60464  0.04951  1.0000 -0.3006168865
N   N57       1.0  0.60464  0.04951  0.01149  1.0000 -0.3006168865
N   N58       1.0  0.48851  0.53802  0.59315  1.0000 -0.3006168865
N   N59       1.0  0.53802  0.59315  0.48851  1.0000 -0.3006168865
N   N60       1.0  0.05513  0.96198  0.45049  1.0000 -0.3006168865
N   N61       1.0  0.05513  0.59315  0.60464  1.0000 -0.3006168865
N   N62       1.0  0.48851  0.45049  0.89536  1.0000 -0.3006168865
N   N63       1.0  0.01149  0.90685  0.96198  1.0000 -0.3006168865
N   N64       1.0  0.44487  0.04951  0.53802  1.0000 -0.3006168865
N   N65       1.0  0.59315  0.60464  0.05513  1.0000 -0.3006168865
N   N66       1.0  0.60464  0.05513  0.59315  1.0000 -0.3006168865
N   N67       1.0  0.04951  0.53802  0.44487  1.0000 -0.3006168865
N   N68       1.0  0.89536  0.48851  0.45049  1.0000 -0.3006168865
N   N69       1.0  0.45049  0.89536  0.48851  1.0000 -0.3006168865
N   N70       1.0  0.96198  0.01149  0.90685  1.0000 -0.3006168865
N   N71       1.0  0.90685  0.96198  0.01149  1.0000 -0.3006168865
N   N72       1.0  0.53802  0.44487  0.04951  1.0000 -0.3006168865
N   N73       1.0  0.57943  0.09714  0.48837  1.0000 -0.3006168865
N   N74       1.0  0.10877  0.09106  0.01163  1.0000 -0.3006168865
N   N75       1.0  0.92057  0.40894  0.51771  1.0000 -0.3006168865
N   N76       1.0  0.39123  0.40286  0.98229  1.0000 -0.3006168865
N   N77       1.0  0.48837  0.57943  0.09714  1.0000 -0.3006168865
N   N78       1.0  0.09714  0.48837  0.57943  1.0000 -0.3006168865
N   N79       1.0  0.98229  0.39123  0.40286  1.0000 -0.3006168865
N   N80       1.0  0.09106  0.01163  0.10877  1.0000 -0.3006168865
N   N81       1.0  0.01163  0.10877  0.09106  1.0000 -0.3006168865
N   N82       1.0  0.40894  0.51771  0.92057  1.0000 -0.3006168865
N   N83       1.0  0.51771  0.92057  0.40894  1.0000 -0.3006168865
N   N84       1.0  0.40286  0.98229  0.39123  1.0000 -0.3006168865
N   N85       1.0  0.40286  0.92057  0.01163  1.0000 -0.3006168865
N   N86       1.0  0.40894  0.39123  0.48837  1.0000 -0.3006168865
N   N87       1.0  0.09106  0.57943  0.98229  1.0000 -0.3006168865
N   N88       1.0  0.09714  0.10877  0.51771  1.0000 -0.3006168865
N   N89       1.0  0.92057  0.01163  0.40286  1.0000 -0.3006168865
N   N90       1.0  0.01163  0.40286  0.92057  1.0000 -0.3006168865
N   N91       1.0  0.10877  0.51771  0.09714  1.0000 -0.3006168865
N   N92       1.0  0.48837  0.40894  0.39123  1.0000 -0.3006168865
N   N93       1.0  0.39123  0.48837  0.40894  1.0000 -0.3006168865
N   N94       1.0  0.98229  0.09106  0.57943  1.0000 -0.3006168865
N   N95       1.0  0.57943  0.98229  0.09106  1.0000 -0.3006168865
N   N96       1.0  0.51771  0.09714  0.10877  1.0000 -0.3006168865
O   O1        1.0  0.81673  0.41025  0.67714  1.0000 -0.418989749
O   O2        1.0  0.23311  0.13959  0.82286  1.0000 -0.418989749
O   O3        1.0  0.68327  0.36041  0.59352  1.0000 -0.4140883045
O   O4        1.0  0.26689  0.08975  0.90648  1.0000 -0.418989749
O   O5        1.0  0.67714  0.81673  0.41025  1.0000 -0.418989749
O   O6        1.0  0.41025  0.67714  0.81673  1.0000 -0.418989749
O   O7        1.0  0.90648  0.26689  0.08975  1.0000 -0.418989749
O   O8        1.0  0.13959  0.82286  0.23311  1.0000 -0.418989749
O   O9        1.0  0.82286  0.23311  0.13959  1.0000 -0.418989749
O   O10       1.0  0.36041  0.59352  0.68327  1.0000 -0.418989749
O   O11       1.0  0.59352  0.68327  0.36041  1.0000 -0.418989749
O   O12       1.0  0.08975  0.90648  0.26689  1.0000 -0.4140883045
O   O13       1.0  0.08975  0.68327  0.82286  1.0000 -0.418989749
O   O14       1.0  0.36041  0.26689  0.67714  1.0000 -0.418989749
O   O15       1.0  0.13959  0.81673  0.90648  1.0000 -0.418989749
O   O16       1.0  0.41025  0.23311  0.59352  1.0000 -0.418989749
O   O17       1.0  0.68327  0.82286  0.08975  1.0000 -0.418989749
O   O18       1.0  0.82286  0.08975  0.68327  1.0000 -0.418989749
O   O19       1.0  0.23311  0.59352  0.41025  1.0000 -0.418989749
O   O20       1.0  0.67714  0.36041  0.26689  1.0000 -0.418989749
O   O21       1.0  0.26689  0.67714  0.36041  1.0000 -0.418989749
O   O22       1.0  0.90648  0.13959  0.81673  1.0000 -0.418989749
O   O23       1.0  0.81673  0.90648  0.13959  1.0000 -0.418989749
O   O24       1.0  0.59352  0.41025  0.23311  1.0000 -0.418989749
O   O25       1.0  0.00886  0.56175  0.80783  1.0000 -0.4960664101
O   O26       1.0  0.25392  0.20103  0.69217  1.0000 -0.4960664101
O   O27       1.0  0.49114  0.29897  0.55289  1.0000 -0.4945998446
O   O28       1.0  0.24608  0.93825  0.94711  1.0000 -0.4960664101
O   O29       1.0  0.80783  0.00886  0.56175  1.0000 -0.4960664101
O   O30       1.0  0.56175  0.80783  0.00886  1.0000 -0.4960664101
O   O31       1.0  0.94711  0.24608  0.93825  1.0000 -0.4960664101
O   O32       1.0  0.20103  0.69217  0.25392  1.0000 -0.4960664101
O   O33       1.0  0.69217  0.25392  0.20103  1.0000 -0.4960664101
O   O34       1.0  0.29897  0.55289  0.49114  1.0000 -0.4960664101
O   O35       1.0  0.55289  0.49114  0.29897  1.0000 -0.4960664101
O   O36       1.0  0.93825  0.94711  0.24608  1.0000 -0.4960664101
O   O37       1.0  0.93825  0.49114  0.69217  1.0000 -0.4960664101
O   O38       1.0  0.29897  0.24608  0.80783  1.0000 -0.4960664101
O   O39       1.0  0.20103  0.00886  0.94711  1.0000 -0.4960664101
O   O40       1.0  0.56175  0.25392  0.55289  1.0000 -0.4960664101
O   O41       1.0  0.49114  0.69217  0.93825  1.0000 -0.4960664101
O   O42       1.0  0.69217  0.93825  0.49114  1.0000 -0.4960664101
O   O43       1.0  0.25392  0.55289  0.56175  1.0000 -0.4960664101
O   O44       1.0  0.80783  0.29897  0.24608  1.0000 -0.4960664101
O   O45       1.0  0.24608  0.80783  0.29897  1.0000 -0.4960664101
O   O46       1.0  0.94711  0.20103  0.00886  1.0000 -0.4945998446
O   O47       1.0  0.00886  0.94711  0.20103  1.0000 -0.4960664101
O   O48       1.0  0.55289  0.56175  0.25392  1.0000 -0.4960664101
O   O49       1.0  0.71621  0.28399  0.58622  1.0000 -0.418989749
O   O50       1.0  0.19777  0.12999  0.91378  1.0000 -0.418989749
O   O51       1.0  0.78379  0.37001  0.56778  1.0000 -0.4255695399
O   O52       1.0  0.30223  0.21601  0.93222  1.0000 -0.418989749
O   O53       1.0  0.58622  0.71621  0.28399  1.0000 -0.4255695399
O   O54       1.0  0.28399  0.58622  0.71621  1.0000 -0.4255695399
O   O55       1.0  0.93222  0.30223  0.21601  1.0000 -0.418989749
O   O56       1.0  0.12999  0.91378  0.19777  1.0000 -0.418989749
O   O57       1.0  0.91378  0.19777  0.12999  1.0000 -0.418989749
O   O58       1.0  0.37001  0.56778  0.78379  1.0000 -0.418989749
O   O59       1.0  0.56778  0.78379  0.37001  1.0000 -0.418989749
O   O60       1.0  0.21601  0.93222  0.30223  1.0000 -0.4255695399
O   O61       1.0  0.21601  0.78379  0.91378  1.0000 -0.4255695399
O   O62       1.0  0.37001  0.30223  0.58622  1.0000 -0.4255695399
O   O63       1.0  0.12999  0.71621  0.93222  1.0000 -0.418989749
O   O64       1.0  0.28399  0.19777  0.56778  1.0000 -0.4255695399
O   O65       1.0  0.78379  0.91378  0.21601  1.0000 -0.4255695399
O   O66       1.0  0.91378  0.21601  0.78379  1.0000 -0.418989749
O   O67       1.0  0.19777  0.56778  0.28399  1.0000 -0.418989749
O   O68       1.0  0.58622  0.37001  0.30223  1.0000 -0.418989749
O   O69       1.0  0.30223  0.58622  0.37001  1.0000 -0.418989749
O   O70       1.0  0.93222  0.12999  0.71621  1.0000 -0.418989749
O   O71       1.0  0.71621  0.93222  0.12999  1.0000 -0.4255695399
O   O72       1.0  0.56778  0.28399  0.19777  1.0000 -0.418989749
O   O73       1.0  0.79199  0.28731  0.60584  1.0000 -0.3897926156
O   O74       1.0  0.18147  0.18615  0.89416  1.0000 -0.3897926156
O   O75       1.0  0.70801  0.31385  0.49532  1.0000 -0.3897926156
O   O76       1.0  0.31853  0.21269  0.00468  1.0000 -0.3897926156
O   O77       1.0  0.60584  0.79199  0.28731  1.0000 -0.3897926156
O   O78       1.0  0.28731  0.60584  0.79199  1.0000 -0.3897926156
O   O79       1.0  0.00468  0.31853  0.21269  1.0000 -0.3897926156
O   O80       1.0  0.18615  0.89416  0.18147  1.0000 -0.3897926156
O   O81       1.0  0.89416  0.18147  0.18615  1.0000 -0.3897926156
O   O82       1.0  0.31385  0.49532  0.70801  1.0000 -0.3897926156
O   O83       1.0  0.49532  0.70801  0.31385  1.0000 -0.3897926156
O   O84       1.0  0.21269  0.00468  0.31853  1.0000 -0.3897926156
O   O85       1.0  0.21269  0.70801  0.89416  1.0000 -0.3897926156
O   O86       1.0  0.31385  0.31853  0.60584  1.0000 -0.3897926156
O   O87       1.0  0.18615  0.79199  0.00468  1.0000 -0.3897926156
O   O88       1.0  0.28731  0.18147  0.49532  1.0000 -0.3897926156
O   O89       1.0  0.70801  0.89416  0.21269  1.0000 -0.3897926156
O   O90       1.0  0.89416  0.21269  0.70801  1.0000 -0.3897926156
O   O91       1.0  0.18147  0.49532  0.28731  1.0000 -0.3897926156
O   O92       1.0  0.60584  0.31385  0.31853  1.0000 -0.3897926156
O   O93       1.0  0.31853  0.60584  0.31385  1.0000 -0.3897926156
O   O94       1.0  0.00468  0.18615  0.79199  1.0000 -0.3897926156
O   O95       1.0  0.79199  0.00468  0.18615  1.0000 -0.3897926156
O   O96       1.0  0.49532  0.28731  0.18147  1.0000 -0.3897926156
O   O97       1.0  0.72116  0.04470  0.50168  1.0000 -0.5080022731
O   O98       1.0  0.04302  0.21948  0.99832  1.0000 -0.5080022731
O   O99       1.0  0.77884  0.28052  0.32354  1.0000 -0.5080022731
O   O100      1.0  0.45698  0.45530  0.17646  1.0000 -0.5080022731
O   O101      1.0  0.50168  0.72116  0.04470  1.0000 -0.5080022731
O   O102      1.0  0.04470  0.50168  0.72116  1.0000 -0.5080022731
O   O103      1.0  0.17646  0.45698  0.45530  1.0000 -0.5080022731
O   O104      1.0  0.21948  0.99832  0.04302  1.0000 -0.5080022731
O   O105      1.0  0.99832  0.04302  0.21948  1.0000 -0.5080022731
O   O106      1.0  0.28052  0.32354  0.77884  1.0000 -0.5080022731
O   O107      1.0  0.32354  0.77884  0.28052  1.0000 -0.5080022731
O   O108      1.0  0.45530  0.17646  0.45698  1.0000 -0.5080022731
O   O109      1.0  0.45530  0.77884  0.99832  1.0000 -0.5080022731
O   O110      1.0  0.28052  0.45698  0.50168  1.0000 -0.5080022731
O   O111      1.0  0.21948  0.72116  0.17646  1.0000 -0.5080022731
O   O112      1.0  0.04470  0.04302  0.32354  1.0000 -0.5080022731
O   O113      1.0  0.77884  0.99832  0.45530  1.0000 -0.5080022731
O   O114      1.0  0.99832  0.45530  0.77884  1.0000 -0.5080022731
O   O115      1.0  0.04302  0.32354  0.04470  1.0000 -0.5080022731
O   O116      1.0  0.50168  0.28052  0.45698  1.0000 -0.5080022731
O   O117      1.0  0.45698  0.50168  0.28052  1.0000 -0.5080022731
O   O118      1.0  0.17646  0.21948  0.72116  1.0000 -0.5080022731
O   O119      1.0  0.72116  0.17646  0.21948  1.0000 -0.5080022731
O   O120      1.0  0.32354  0.04470  0.04302  1.0000 -0.5080022731
O   O121      1.0  0.77016  0.37709  0.71079  1.0000 -0.4391623257
O   O122      1.0  0.16630  0.05937  0.78921  1.0000 -0.4391623257
O   O123      1.0  0.72984  0.44063  0.60693  1.0000 -0.4391623257
O   O124      1.0  0.33370  0.12291  0.89307  1.0000 -0.4391623257
O   O125      1.0  0.71079  0.77016  0.37709  1.0000 -0.4391623257
O   O126      1.0  0.37709  0.71079  0.77016  1.0000 -0.4391623257
O   O127      1.0  0.89307  0.33370  0.12291  1.0000 -0.4391623257
O   O128      1.0  0.05937  0.78921  0.16630  1.0000 -0.4391623257
O   O129      1.0  0.78921  0.16630  0.05937  1.0000 -0.4391623257
O   O130      1.0  0.44063  0.60693  0.72984  1.0000 -0.4391623257
O   O131      1.0  0.60693  0.72984  0.44063  1.0000 -0.4391623257
O   O132      1.0  0.12291  0.89307  0.33370  1.0000 -0.4391623257
O   O133      1.0  0.12291  0.72984  0.78921  1.0000 -0.4391623257
O   O134      1.0  0.44063  0.33370  0.71079  1.0000 -0.4391623257
O   O135      1.0  0.05937  0.77016  0.89307  1.0000 -0.4391623257
O   O136      1.0  0.37709  0.16630  0.60693  1.0000 -0.4391623257
O   O137      1.0  0.72984  0.78921  0.12291  1.0000 -0.4391623257
O   O138      1.0  0.78921  0.12291  0.72984  1.0000 -0.4391623257
O   O139      1.0  0.16630  0.60693  0.37709  1.0000 -0.4391623257
O   O140      1.0  0.71079  0.44063  0.33370  1.0000 -0.4391623257
O   O141      1.0  0.33370  0.71079  0.44063  1.0000 -0.4391623257
O   O142      1.0  0.89307  0.05937  0.77016  1.0000 -0.4391623257
O   O143      1.0  0.77016  0.89307  0.05937  1.0000 -0.4391623257
O   O144      1.0  0.60693  0.37709  0.16630  1.0000 -0.4391623257
O   O145      1.0  0.79092  0.11419  0.57249  1.0000 -0.3972448179
O   O146      1.0  0.04170  0.21843  0.92751  1.0000 -0.3972448179
O   O147      1.0  0.70908  0.28157  0.32327  1.0000 -0.3972448179
O   O148      1.0  0.45830  0.38581  0.17673  1.0000 -0.3972448179
O   O149      1.0  0.57249  0.79092  0.11419  1.0000 -0.3972448179
O   O150      1.0  0.11419  0.57249  0.79092  1.0000 -0.3972448179
O   O151      1.0  0.17673  0.45830  0.38581  1.0000 -0.3972448179
O   O152      1.0  0.21843  0.92751  0.04170  1.0000 -0.3972448179
O   O153      1.0  0.92751  0.04170  0.21843  1.0000 -0.3972448179
O   O154      1.0  0.28157  0.32327  0.70908  1.0000 -0.3972448179
O   O155      1.0  0.32327  0.70908  0.28157  1.0000 -0.3972448179
O   O156      1.0  0.38581  0.17673  0.45830  1.0000 -0.3972448179
O   O157      1.0  0.38581  0.70908  0.92751  1.0000 -0.3972448179
O   O158      1.0  0.28157  0.45830  0.57249  1.0000 -0.3972448179
O   O159      1.0  0.21843  0.79092  0.17673  1.0000 -0.3972448179
O   O160      1.0  0.11419  0.04170  0.32327  1.0000 -0.3972448179
O   O161      1.0  0.70908  0.92751  0.38581  1.0000 -0.3972448179
O   O162      1.0  0.92751  0.38581  0.70908  1.0000 -0.3972448179
O   O163      1.0  0.04170  0.32327  0.11419  1.0000 -0.3972448179
O   O164      1.0  0.57249  0.28157  0.45830  1.0000 -0.3972448179
O   O165      1.0  0.45830  0.57249  0.28157  1.0000 -0.3972448179
O   O166      1.0  0.17673  0.21843  0.79092  1.0000 -0.3972448179
O   O167      1.0  0.79092  0.17673  0.21843  1.0000 -0.3972448179
O   O168      1.0  0.32327  0.11419  0.04170  1.0000 -0.3972448179
O   O169      1.0  0.01373  0.60483  0.88490  1.0000 -0.5080022731
O   O170      1.0  0.21993  0.12883  0.61510  1.0000 -0.5080022731
O   O171      1.0  0.48627  0.37117  0.59110  1.0000 -0.5080022731
O   O172      1.0  0.28007  0.89517  0.90890  1.0000 -0.5080022731
O   O173      1.0  0.88490  0.01373  0.60483  1.0000 -0.5080022731
O   O174      1.0  0.60483  0.88490  0.01373  1.0000 -0.5080022731
O   O175      1.0  0.90890  0.28007  0.89517  1.0000 -0.5080022731
O   O176      1.0  0.12883  0.61510  0.21993  1.0000 -0.5080022731
O   O177      1.0  0.61510  0.21993  0.12883  1.0000 -0.5080022731
O   O178      1.0  0.37117  0.59110  0.48627  1.0000 -0.5080022731
O   O179      1.0  0.59110  0.48627  0.37117  1.0000 -0.5080022731
O   O180      1.0  0.89517  0.90890  0.28007  1.0000 -0.5080022731
O   O181      1.0  0.89517  0.48627  0.61510  1.0000 -0.5080022731
O   O182      1.0  0.37117  0.28007  0.88490  1.0000 -0.5080022731
O   O183      1.0  0.12883  0.01373  0.90890  1.0000 -0.5080022731
O   O184      1.0  0.60483  0.21993  0.59110  1.0000 -0.5080022731
O   O185      1.0  0.48627  0.61510  0.89517  1.0000 -0.5080022731
O   O186      1.0  0.61510  0.89517  0.48627  1.0000 -0.5080022731
O   O187      1.0  0.21993  0.59110  0.60483  1.0000 -0.5080022731
O   O188      1.0  0.88490  0.37117  0.28007  1.0000 -0.5080022731
O   O189      1.0  0.28007  0.88490  0.37117  1.0000 -0.5080022731
O   O190      1.0  0.90890  0.12883  0.01373  1.0000 -0.5080022731
O   O191      1.0  0.01373  0.90890  0.12883  1.0000 -0.5080022731
O   O192      1.0  0.59110  0.60483  0.21993  1.0000 -0.5080022731
