# DDEC6 charges by PACMAN v1.1 (https://github.com/mtap-research/PACMAN-charge/)
data_2011[Fe][acs]3[ASR]1
_chemical_formula_sum              "Fe2 H6 C6 O12"
_cell_length_a       7.3236
_cell_length_b       7.3236
_cell_length_c       8.318
_cell_angle_alpha    90
_cell_angle_beta     90
_cell_angle_gamma    120

_symmetry_space_group_name_H-M    "P 1"
_symmetry_Int_Tables_number       1

loop_
  _symmetry_equiv_pos_as_xyz
  'x, y, z'

loop_
  _atom_site_type_symbol
  _atom_site_label
  _atom_site_symmetry_multiplicity
  _atom_site_fract_x
  _atom_site_fract_y
  _atom_site_fract_z
  _atom_site_occupancy
  _atom_site_charge
Fe  Fe1       1.0  0.33333  0.66667  0.25000  1.0000 0.9675062041
Fe  Fe2       1.0  0.66667  0.33333  0.75000  1.0000 0.9675062041
H   H1        1.0  0.00000  0.41100  0.00000  1.0000 0.0567809905
H   H2        1.0  0.58900  0.58900  0.00000  1.0000 0.0567809905
H   H3        1.0  0.41100  0.00000  0.00000  1.0000 0.0567809905
H   H4        1.0  0.00000  0.58900  0.50000  1.0000 0.0567809905
H   H5        1.0  0.41100  0.41100  0.50000  1.0000 0.0567809905
H   H6        1.0  0.58900  0.00000  0.50000  1.0000 0.0567809905
C   C1        1.0  0.00000  0.56450  0.00000  1.0000 0.5169855396
C   C2        1.0  0.43550  0.43550  0.00000  1.0000 0.5169855396
C   C3        1.0  0.56450  0.00000  0.00000  1.0000 0.5169855396
C   C4        1.0  0.00000  0.43550  0.50000  1.0000 0.5169855396
C   C5        1.0  0.56450  0.56450  0.50000  1.0000 0.5169855396
C   C6        1.0  0.43550  0.00000  0.50000  1.0000 0.5169855396
O   O1        1.0  0.10827  0.69447  0.10444  1.0000 -0.4481342991
O   O2        1.0  0.30553  0.41380  0.10444  1.0000 -0.4481342991
O   O3        1.0  0.58620  0.89173  0.10444  1.0000 -0.4481342991
O   O4        1.0  0.89173  0.30553  0.60444  1.0000 -0.4481342991
O   O5        1.0  0.69447  0.58620  0.60444  1.0000 -0.4481342991
O   O6        1.0  0.41380  0.10827  0.60444  1.0000 -0.4481342991
O   O7        1.0  0.69447  0.10827  0.89556  1.0000 -0.4481342991
O   O8        1.0  0.41380  0.30553  0.89556  1.0000 -0.4481342991
O   O9        1.0  0.89173  0.58620  0.89556  1.0000 -0.4481342991
O   O10       1.0  0.30553  0.89173  0.39556  1.0000 -0.4481342991
O   O11       1.0  0.58620  0.69447  0.39556  1.0000 -0.4481342991
O   O12       1.0  0.10827  0.41380  0.39556  1.0000 -0.4481342991
