# DDEC6 charges by PACMAN v1.1 (https://github.com/mtap-research/PACMAN-charge/)
data_2011[Zn][sra]3[ASR]3
_chemical_formula_sum              "Zn4 H48 C60 N16 O16"
_cell_length_a       8.741
_cell_length_b       14.796
_cell_length_c       19.34
_cell_angle_alpha    90
_cell_angle_beta     90
_cell_angle_gamma    90

_symmetry_space_group_name_H-M    "P 1"
_symmetry_Int_Tables_number       1

loop_
  _symmetry_equiv_pos_as_xyz
  'x, y, z'

loop_
  _atom_site_type_symbol
  _atom_site_label
  _atom_site_symmetry_multiplicity
  _atom_site_fract_x
  _atom_site_fract_y
  _atom_site_fract_z
  _atom_site_occupancy
  _atom_site_charge
Zn  Zn1       1.0  0.63146  0.95552  0.07330  1.0000 0.7566416
Zn  Zn2       1.0  0.86854  0.04448  0.57330  1.0000 0.7566416
Zn  Zn3       1.0  0.13146  0.54448  0.92670  1.0000 0.7566416
Zn  Zn4       1.0  0.36854  0.45552  0.42670  1.0000 0.7566416
H   H1        1.0  0.30370  0.13410  0.49960  1.0000 0.1497012896
H   H2        1.0  0.19630  0.86590  0.99960  1.0000 0.1497012896
H   H3        1.0  0.80370  0.36590  0.50040  1.0000 0.1497012896
H   H4        1.0  0.69630  0.63410  0.00040  1.0000 0.1497012896
H   H5        1.0  0.84430  0.97120  0.30870  1.0000 0.1577207183
H   H6        1.0  0.65570  0.02880  0.80870  1.0000 0.1577207183
H   H7        1.0  0.34430  0.52880  0.69130  1.0000 0.1577207183
H   H8        1.0  0.15570  0.47120  0.19130  1.0000 0.1577207183
H   H9        1.0  0.26270  0.28790  0.50050  1.0000 0.1088410116
H   H10       1.0  0.23730  0.71210  0.00050  1.0000 0.1088410116
H   H11       1.0  0.76270  0.21210  0.49950  1.0000 0.1088410116
H   H12       1.0  0.73730  0.78790  0.99950  1.0000 0.1088410116
H   H13       1.0  0.16730  0.88340  0.41980  1.0000 0.1497012896
H   H14       1.0  0.33270  0.11660  0.91980  1.0000 0.1497012896
H   H15       1.0  0.66730  0.61660  0.58020  1.0000 0.1497012896
H   H16       1.0  0.83270  0.38340  0.08020  1.0000 0.1497012896
H   H17       1.0  0.22190  0.97840  0.39400  1.0000 0.1205369685
H   H18       1.0  0.27810  0.02160  0.89400  1.0000 0.1205369685
H   H19       1.0  0.72190  0.52160  0.60600  1.0000 0.1205369685
H   H20       1.0  0.77810  0.47840  0.10600  1.0000 0.1205369685
H   H21       1.0  0.84120  0.95070  0.19170  1.0000 0.1205369685
H   H22       1.0  0.65880  0.04930  0.69170  1.0000 0.1205369685
H   H23       1.0  0.34120  0.54930  0.80830  1.0000 0.1205369685
H   H24       1.0  0.15880  0.45070  0.30830  1.0000 0.1205369685
H   H25       1.0  0.62570  0.17310  0.35580  1.0000 0.1409903874
H   H26       1.0  0.87430  0.82690  0.85580  1.0000 0.1409903874
H   H27       1.0  0.12570  0.32690  0.64420  1.0000 0.1409903874
H   H28       1.0  0.37430  0.67310  0.14420  1.0000 0.1409903874
H   H29       1.0  0.58150  0.32210  0.36130  1.0000 0.1088410116
H   H30       1.0  0.91850  0.67790  0.86130  1.0000 0.1088410116
H   H31       1.0  0.08150  0.17790  0.63870  1.0000 0.1088410116
H   H32       1.0  0.41850  0.82210  0.13870  1.0000 0.1088410116
H   H33       1.0  0.41010  0.01400  0.18020  1.0000 0.1205369685
H   H34       1.0  0.08990  0.98600  0.68020  1.0000 0.1205369685
H   H35       1.0  0.91010  0.48600  0.81980  1.0000 0.1205369685
H   H36       1.0  0.58990  0.51400  0.31980  1.0000 0.1205369685
H   H37       1.0  0.39430  0.03460  0.29770  1.0000 0.1409903874
H   H38       1.0  0.10570  0.96540  0.79770  1.0000 0.1409903874
H   H39       1.0  0.89430  0.46540  0.70230  1.0000 0.1409903874
H   H40       1.0  0.60570  0.53460  0.20230  1.0000 0.1409903874
H   H41       1.0  0.70500  0.00100  0.40500  1.0000 0.2812578191
H   H42       1.0  0.79500  0.99900  0.90500  1.0000 0.2812578191
H   H43       1.0  0.20500  0.49900  0.59500  1.0000 0.2812578191
H   H44       1.0  0.29500  0.50100  0.09500  1.0000 0.2812578191
H   H45       1.0  0.31100  0.92600  0.53300  1.0000 0.1317042892
H   H46       1.0  0.18900  0.07400  0.03300  1.0000 0.1317042892
H   H47       1.0  0.81100  0.57400  0.46700  1.0000 0.1317042892
H   H48       1.0  0.68900  0.42600  0.96700  1.0000 0.1317042892
C   C1        1.0  0.31760  0.94160  0.48330  1.0000 -0.0886421654
C   C2        1.0  0.18240  0.05840  0.98330  1.0000 -0.0886421654
C   C3        1.0  0.81760  0.55840  0.51670  1.0000 -0.0886421654
C   C4        1.0  0.68240  0.44160  0.01670  1.0000 -0.0886421654
C   C5        1.0  0.61750  0.00210  0.31750  1.0000 0.2370348458
C   C6        1.0  0.88250  0.99790  0.81750  1.0000 0.2370348458
C   C7        1.0  0.11750  0.49790  0.68250  1.0000 0.2370348458
C   C8        1.0  0.38250  0.50210  0.18250  1.0000 0.2370348458
C   C9        1.0  0.44840  0.98480  0.47900  1.0000 -0.0345813001
C   C10       1.0  0.05160  0.01520  0.97900  1.0000 -0.0355977978
C   C11       1.0  0.94840  0.51520  0.52100  1.0000 -0.0355977978
C   C12       1.0  0.55160  0.48480  0.02100  1.0000 -0.0345813001
C   C13       1.0  0.46830  0.13470  0.42670  1.0000 0.1993349229
C   C14       1.0  0.03170  0.86530  0.92670  1.0000 0.1993349229
C   C15       1.0  0.96830  0.36530  0.57330  1.0000 0.1993349229
C   C16       1.0  0.53170  0.63470  0.07330  1.0000 0.1993349229
C   C17       1.0  0.36050  0.17130  0.47060  1.0000 -0.240670983
C   C18       1.0  0.13950  0.82870  0.97060  1.0000 -0.240670983
C   C19       1.0  0.86050  0.32870  0.52940  1.0000 -0.240670983
C   C20       1.0  0.63950  0.67130  0.02940  1.0000 -0.240670983
C   C21       1.0  0.75420  0.97910  0.28390  1.0000 -0.240670983
C   C22       1.0  0.74580  0.02090  0.78390  1.0000 -0.240670983
C   C23       1.0  0.25420  0.52090  0.71610  1.0000 -0.240670983
C   C24       1.0  0.24580  0.47910  0.21610  1.0000 -0.240670983
C   C25       1.0  0.33720  0.26480  0.47100  1.0000 0.1088410116
C   C26       1.0  0.16280  0.73520  0.97100  1.0000 0.1088410116
C   C27       1.0  0.83720  0.23520  0.52900  1.0000 0.1088410116
C   C28       1.0  0.66280  0.76480  0.02900  1.0000 0.1088410116
C   C29       1.0  0.19070  0.94450  0.43450  1.0000 -0.3417587097
C   C30       1.0  0.30930  0.05550  0.93450  1.0000 -0.3417587097
C   C31       1.0  0.69070  0.55550  0.56550  1.0000 -0.3417587097
C   C32       1.0  0.80930  0.44450  0.06550  1.0000 -0.3417587097
C   C33       1.0  0.04810  0.98670  0.46400  1.0000 0.6348834221
C   C34       1.0  0.45190  0.01330  0.96400  1.0000 0.6348834221
C   C35       1.0  0.54810  0.51330  0.53600  1.0000 0.6348834221
C   C36       1.0  0.95190  0.48670  0.03600  1.0000 0.6354443614
C   C37       1.0  0.75140  0.96860  0.21350  1.0000 0.1010907029
C   C38       1.0  0.74860  0.03140  0.71350  1.0000 0.1010907029
C   C39       1.0  0.25140  0.53140  0.78650  1.0000 0.1010907029
C   C40       1.0  0.24860  0.46860  0.28650  1.0000 0.1010907029
C   C41       1.0  0.55110  0.19490  0.38570  1.0000 -0.2220439131
C   C42       1.0  0.94890  0.80510  0.88570  1.0000 -0.2220439131
C   C43       1.0  0.05110  0.30510  0.61430  1.0000 -0.2220439131
C   C44       1.0  0.44890  0.69490  0.11430  1.0000 -0.2220439131
C   C45       1.0  0.52350  0.28430  0.38940  1.0000 0.0572599337
C   C46       1.0  0.97650  0.71570  0.88940  1.0000 0.0572599337
C   C47       1.0  0.02350  0.21570  0.61060  1.0000 0.0572599337
C   C48       1.0  0.47650  0.78430  0.11060  1.0000 0.0572599337
C   C49       1.0  0.49740  0.00550  0.20690  1.0000 0.0768588108
C   C50       1.0  0.00260  0.99450  0.70690  1.0000 0.0768588108
C   C51       1.0  0.99740  0.49450  0.79310  1.0000 0.0768588108
C   C52       1.0  0.50260  0.50550  0.29310  1.0000 0.0768588108
C   C53       1.0  0.48610  0.01720  0.27730  1.0000 -0.240670983
C   C54       1.0  0.01390  0.98280  0.77730  1.0000 -0.240670983
C   C55       1.0  0.98610  0.48280  0.72270  1.0000 -0.240670983
C   C56       1.0  0.51390  0.51720  0.22270  1.0000 -0.240670983
C   C57       1.0  0.56710  0.98180  0.53530  1.0000 0.552474383
C   C58       1.0  0.93290  0.01820  0.03530  1.0000 0.552474383
C   C59       1.0  0.06710  0.51820  0.46470  1.0000 0.552474383
C   C60       1.0  0.43290  0.48180  0.96470  1.0000 0.552474383
N   N1        1.0  0.62060  0.01150  0.38740  1.0000 -0.2707314718
N   N2        1.0  0.87940  0.98850  0.88740  1.0000 -0.2707314718
N   N3        1.0  0.12060  0.48850  0.61260  1.0000 -0.2707314718
N   N4        1.0  0.37940  0.51150  0.11260  1.0000 -0.2707314718
N   N5        1.0  0.48840  0.04280  0.42170  1.0000 -0.0185544284
N   N6        1.0  0.01160  0.95720  0.92170  1.0000 -0.0185544284
N   N7        1.0  0.98840  0.45720  0.57830  1.0000 -0.0185544284
N   N8        1.0  0.51160  0.54280  0.07830  1.0000 -0.0185544284
N   N9        1.0  0.41590  0.32360  0.43140  1.0000 -0.2707314718
N   N10       1.0  0.08410  0.67640  0.93140  1.0000 -0.2707314718
N   N11       1.0  0.91590  0.17640  0.56860  1.0000 -0.2707314718
N   N12       1.0  0.58410  0.82360  0.06860  1.0000 -0.2707314718
N   N13       1.0  0.62830  0.98240  0.17450  1.0000 -0.254283529
N   N14       1.0  0.87170  0.01760  0.67450  1.0000 -0.254283529
N   N15       1.0  0.12830  0.51760  0.82550  1.0000 -0.254283529
N   N16       1.0  0.37170  0.48240  0.32550  1.0000 -0.2554602439
O   O1        1.0  0.03230  0.97650  0.52970  1.0000 -0.5699958022
O   O2        1.0  0.46770  0.02350  0.02970  1.0000 -0.5598174746
O   O3        1.0  0.53230  0.52350  0.47030  1.0000 -0.5598174746
O   O4        1.0  0.96770  0.47650  0.97030  1.0000 -0.5598174746
O   O5        1.0  0.95490  0.02660  0.42720  1.0000 -0.5699958022
O   O6        1.0  0.54510  0.97340  0.92720  1.0000 -0.5699958022
O   O7        1.0  0.45490  0.47340  0.57280  1.0000 -0.5699958022
O   O8        1.0  0.04510  0.52660  0.07280  1.0000 -0.5699958022
O   O9        1.0  0.55560  0.92870  0.58500  1.0000 -0.5396012778
O   O10       1.0  0.94440  0.07130  0.08500  1.0000 -0.5396012778
O   O11       1.0  0.05560  0.57130  0.41500  1.0000 -0.5396012778
O   O12       1.0  0.44440  0.42870  0.91500  1.0000 -0.5396012778
O   O13       1.0  0.67430  0.03960  0.52750  1.0000 -0.5598174746
O   O14       1.0  0.82570  0.96040  0.02750  1.0000 -0.5598174746
O   O15       1.0  0.17430  0.46040  0.47250  1.0000 -0.5598174746
O   O16       1.0  0.32570  0.53960  0.97250  1.0000 -0.5598174746
