# DDEC6 charges by PACMAN v1.1 (https://github.com/mtap-research/PACMAN-charge/)
data_2011[U][nan]3[ASR]2
_chemical_formula_sum              "U8 H8 C40 O56"
_cell_length_a       9.1844
_cell_length_b       21.615
_cell_length_c       11.5401
_cell_angle_alpha    90
_cell_angle_beta     112.701
_cell_angle_gamma    90

_symmetry_space_group_name_H-M    "P 1"
_symmetry_Int_Tables_number       1

loop_
  _symmetry_equiv_pos_as_xyz
  'x, y, z'

loop_
  _atom_site_type_symbol
  _atom_site_label
  _atom_site_symmetry_multiplicity
  _atom_site_fract_x
  _atom_site_fract_y
  _atom_site_fract_z
  _atom_site_occupancy
  _atom_site_charge
U   U1        1.0  0.29442  0.24690  0.27887  1.0000 2.4057137176
U   U2        1.0  0.70558  0.75310  0.72113  1.0000 2.4057137176
U   U3        1.0  0.20558  0.74690  0.22113  1.0000 2.4057137176
U   U4        1.0  0.79442  0.25310  0.77887  1.0000 2.4057137176
U   U5        1.0  0.91721  0.49765  0.12157  1.0000 2.4573652948
U   U6        1.0  0.08279  0.50235  0.87843  1.0000 2.4573652948
U   U7        1.0  0.58279  0.99765  0.37843  1.0000 2.4548741385
U   U8        1.0  0.41721  0.00235  0.62157  1.0000 2.4573652948
H   H1        1.0  0.93014  0.33350  0.43499  1.0000 0.1398819789
H   H2        1.0  0.06986  0.66650  0.56501  1.0000 0.1398819789
H   H3        1.0  0.56986  0.83350  0.06501  1.0000 0.1398819789
H   H4        1.0  0.43014  0.16650  0.93499  1.0000 0.1398819789
H   H5        1.0  0.16111  0.33229  0.62454  1.0000 0.1398819789
H   H6        1.0  0.83889  0.66771  0.37546  1.0000 0.1398819789
H   H7        1.0  0.33889  0.83229  0.87546  1.0000 0.1398819789
H   H8        1.0  0.66111  0.16771  0.12454  1.0000 0.1398819789
C   C1        1.0  0.29322  0.24887  0.03102  1.0000 0.5787398547
C   C2        1.0  0.70678  0.75113  0.96898  1.0000 0.5787398547
C   C3        1.0  0.20678  0.74887  0.46898  1.0000 0.5787398547
C   C4        1.0  0.79322  0.25113  0.53102  1.0000 0.5787398547
C   C5        1.0  0.29362  0.24773  0.52739  1.0000 0.5787398547
C   C6        1.0  0.70638  0.75227  0.47261  1.0000 0.5787398547
C   C7        1.0  0.20638  0.74773  0.97261  1.0000 0.5787398547
C   C8        1.0  0.79362  0.25227  0.02739  1.0000 0.5787398547
C   C9        1.0  0.98403  0.34361  0.21831  1.0000 0.7000069723
C   C10       1.0  0.01597  0.65639  0.78169  1.0000 0.7000069723
C   C11       1.0  0.51597  0.84361  0.28169  1.0000 0.7000069723
C   C12       1.0  0.48403  0.15639  0.71831  1.0000 0.7000069723
C   C13       1.0  0.61685  0.15406  0.34362  1.0000 0.685861449
C   C14       1.0  0.38315  0.84594  0.65638  1.0000 0.6829661533
C   C15       1.0  0.88315  0.65406  0.15638  1.0000 0.685861449
C   C16       1.0  0.11685  0.34594  0.84362  1.0000 0.6829661533
C   C17       1.0  0.29600  0.25029  0.90233  1.0000 0.007746232
C   C18       1.0  0.70400  0.74971  0.09767  1.0000 0.007746232
C   C19       1.0  0.20400  0.75029  0.59767  1.0000 0.007746232
C   C20       1.0  0.79600  0.24971  0.40233  1.0000 0.007746232
C   C21       1.0  0.29383  0.24824  0.65683  1.0000 0.002481273
C   C22       1.0  0.70617  0.75176  0.34317  1.0000 0.002481273
C   C23       1.0  0.20617  0.74824  0.84317  1.0000 0.002481273
C   C24       1.0  0.79383  0.25176  0.15683  1.0000 0.002481273
C   C25       1.0  0.71367  0.20351  0.31417  1.0000 0.007746232
C   C26       1.0  0.28633  0.79649  0.68583  1.0000 0.007746232
C   C27       1.0  0.78633  0.70351  0.18583  1.0000 0.007746232
C   C28       1.0  0.21367  0.29649  0.81417  1.0000 0.007746232
C   C29       1.0  0.88093  0.29637  0.24684  1.0000 0.007746232
C   C30       1.0  0.11907  0.70363  0.75316  1.0000 0.007746232
C   C31       1.0  0.61907  0.79637  0.25316  1.0000 0.007746232
C   C32       1.0  0.38093  0.20363  0.74684  1.0000 0.002481273
C   C33       1.0  0.87383  0.29673  0.36729  1.0000 -0.0504152177
C   C34       1.0  0.12617  0.70327  0.63271  1.0000 -0.0504152177
C   C35       1.0  0.62617  0.79673  0.13271  1.0000 -0.0504152177
C   C36       1.0  0.37383  0.20327  0.86729  1.0000 -0.0504152177
C   C37       1.0  0.21737  0.29555  0.69247  1.0000 -0.0504152177
C   C38       1.0  0.78263  0.70445  0.30753  1.0000 -0.0504152177
C   C39       1.0  0.28263  0.79555  0.80753  1.0000 -0.0504152177
C   C40       1.0  0.71737  0.20445  0.19247  1.0000 -0.0504152177
O   O1        1.0  0.84359  0.50133  0.25011  1.0000 -0.5934156224
O   O2        1.0  0.15641  0.49867  0.74989  1.0000 -0.5934156224
O   O3        1.0  0.65641  0.00133  0.24989  1.0000 -0.5934156224
O   O4        1.0  0.34359  0.99867  0.75011  1.0000 -0.5934156224
O   O5        1.0  0.12329  0.33567  0.22926  1.0000 -0.4796101868
O   O6        1.0  0.87671  0.66433  0.77074  1.0000 -0.4796101868
O   O7        1.0  0.37671  0.83567  0.27074  1.0000 -0.4796101868
O   O8        1.0  0.62329  0.16433  0.72926  1.0000 -0.4796101868
O   O9        1.0  0.47519  0.16153  0.32949  1.0000 -0.5117175773
O   O10       1.0  0.52481  0.83847  0.67051  1.0000 -0.5117175773
O   O11       1.0  0.02481  0.66153  0.17051  1.0000 -0.5117175773
O   O12       1.0  0.97519  0.33847  0.82949  1.0000 -0.5117175773
O   O13       1.0  0.11968  0.19975  0.22735  1.0000 -0.5934156224
O   O14       1.0  0.88032  0.80025  0.77265  1.0000 -0.5934156224
O   O15       1.0  0.38032  0.69975  0.27265  1.0000 -0.5934156224
O   O16       1.0  0.61968  0.30025  0.72735  1.0000 -0.5934156224
O   O17       1.0  0.46762  0.29544  0.33090  1.0000 -0.6024821595
O   O18       1.0  0.53238  0.70456  0.66910  1.0000 -0.6024821595
O   O19       1.0  0.03238  0.79544  0.16910  1.0000 -0.6024821595
O   O20       1.0  0.96762  0.20456  0.83090  1.0000 -0.6024821595
O   O21       1.0  0.23040  0.29290  0.45323  1.0000 -0.5002201021
O   O22       1.0  0.76960  0.70710  0.54677  1.0000 -0.5002201021
O   O23       1.0  0.26960  0.79290  0.04677  1.0000 -0.5002201021
O   O24       1.0  0.73040  0.20710  0.95323  1.0000 -0.5002201021
O   O25       1.0  0.69271  0.10330  0.37414  1.0000 -0.5002201021
O   O26       1.0  0.30729  0.89670  0.62586  1.0000 -0.5002201021
O   O27       1.0  0.80729  0.60330  0.12586  1.0000 -0.5002201021
O   O28       1.0  0.19271  0.39670  0.87414  1.0000 -0.5002201021
O   O29       1.0  0.90718  0.39446  0.19179  1.0000 -0.5206033707
O   O30       1.0  0.09282  0.60554  0.80821  1.0000 -0.5206033707
O   O31       1.0  0.59282  0.89446  0.30821  1.0000 -0.5206033707
O   O32       1.0  0.40718  0.10554  0.69179  1.0000 -0.5206033707
O   O33       1.0  0.23074  0.29361  0.06719  1.0000 -0.4796101868
O   O34       1.0  0.76926  0.70639  0.93281  1.0000 -0.4796101868
O   O35       1.0  0.26926  0.79361  0.43281  1.0000 -0.4796101868
O   O36       1.0  0.73074  0.20639  0.56719  1.0000 -0.4796101868
O   O37       1.0  0.72236  0.48727  0.99708  1.0000 -0.5206033707
O   O38       1.0  0.27764  0.51273  0.00292  1.0000 -0.5206033707
O   O39       1.0  0.77764  0.98727  0.50292  1.0000 -0.5206033707
O   O40       1.0  0.22236  0.01273  0.49708  1.0000 -0.5206033707
O   O41       1.0  0.35506  0.20262  0.10272  1.0000 -0.4917515114
O   O42       1.0  0.64494  0.79738  0.89728  1.0000 -0.4917515114
O   O43       1.0  0.14494  0.70262  0.39728  1.0000 -0.4917515114
O   O44       1.0  0.85506  0.29738  0.60272  1.0000 -0.4917515114
O   O45       1.0  0.11087  0.51949  0.23711  1.0000 -0.5707303181
O   O46       1.0  0.88913  0.48051  0.76289  1.0000 -0.5707303181
O   O47       1.0  0.38913  0.01949  0.26289  1.0000 -0.5707303181
O   O48       1.0  0.61087  0.98051  0.73711  1.0000 -0.5707303181
O   O49       1.0  0.35548  0.20214  0.49233  1.0000 -0.4917515114
O   O50       1.0  0.64452  0.79786  0.50767  1.0000 -0.4917515114
O   O51       1.0  0.14452  0.70214  0.00767  1.0000 -0.4917515114
O   O52       1.0  0.85548  0.29786  0.99233  1.0000 -0.4917515114
O   O53       1.0  0.01751  0.44717  0.02620  1.0000 -0.7515623167
O   O54       1.0  0.98249  0.55283  0.97380  1.0000 -0.7515623167
O   O55       1.0  0.48249  0.94717  0.47380  1.0000 -0.7515623167
O   O56       1.0  0.51751  0.05283  0.52620  1.0000 -0.7515623167
