# DDEC6 charges by PACMAN v1.1 (https://github.com/mtap-research/PACMAN-charge/)
data_2011[Co][flu]3[ASR]1
_chemical_formula_sum              "Co3 H48 C66 O24"
_cell_length_a       11.868
_cell_length_b       16.265
_cell_length_c       16.379
_cell_angle_alpha    108.099
_cell_angle_beta     102.855
_cell_angle_gamma    101.216

_symmetry_space_group_name_H-M    "P 1"
_symmetry_Int_Tables_number       1

loop_
  _symmetry_equiv_pos_as_xyz
  'x, y, z'

loop_
  _atom_site_type_symbol
  _atom_site_label
  _atom_site_symmetry_multiplicity
  _atom_site_fract_x
  _atom_site_fract_y
  _atom_site_fract_z
  _atom_site_occupancy
  _atom_site_charge
Co  Co1       1.0  0.18269  0.89444  0.38414  1.0000 0.9937118214
Co  Co2       1.0  0.81731  0.10556  0.61586  1.0000 0.9956441444
Co  Co3       1.0  0.50000  0.00000  0.50000  1.0000 1.108746044
H   H1        1.0  0.35030  0.42460  0.05400  1.0000 0.0910244507
H   H2        1.0  0.64970  0.57540  0.94600  1.0000 0.0910244507
H   H3        1.0  0.35320  0.38940  0.13520  1.0000 0.1012926229
H   H4        1.0  0.64680  0.61060  0.86480  1.0000 0.1012926229
H   H5        1.0  0.62250  0.63060  0.25700  1.0000 0.1389076968
H   H6        1.0  0.37750  0.36940  0.74300  1.0000 0.1389076968
H   H7        1.0  0.23290  0.65220  0.22810  1.0000 0.1298357263
H   H8        1.0  0.76710  0.34780  0.77190  1.0000 0.1298357263
H   H9        1.0  0.26780  0.52050  0.13940  1.0000 0.1196706407
H   H10       1.0  0.73220  0.47950  0.86060  1.0000 0.1196706407
H   H11       1.0  0.60060  0.33390  0.00180  1.0000 0.1196706407
H   H12       1.0  0.39940  0.66610  0.99820  1.0000 0.1196706407
H   H13       1.0  0.58140  0.43250  0.03220  1.0000 0.1012926229
H   H14       1.0  0.41860  0.56750  0.96780  1.0000 0.1012926229
H   H15       1.0  0.74930  0.52640  0.06330  1.0000 0.1196706407
H   H16       1.0  0.25070  0.47360  0.93670  1.0000 0.1196706407
H   H17       1.0  0.88210  0.67020  0.14410  1.0000 0.1196706407
H   H18       1.0  0.11790  0.32980  0.85590  1.0000 0.1196706407
H   H19       1.0  0.91450  0.62540  0.37500  1.0000 0.1298357263
H   H20       1.0  0.08550  0.37460  0.62500  1.0000 0.1298357263
H   H21       1.0  0.77460  0.48200  0.29350  1.0000 0.1389076968
H   H22       1.0  0.22540  0.51800  0.70650  1.0000 0.1389076968
H   H23       1.0  0.29020  0.26080  0.96610  1.0000 0.1088037376
H   H24       1.0  0.70980  0.73920  0.03390  1.0000 0.1088037376
H   H25       1.0  0.36850  0.32080  0.92540  1.0000 0.1088037376
H   H26       1.0  0.63150  0.67920  0.07460  1.0000 0.1088037376
H   H27       1.0  0.51150  0.10500  0.83730  1.0000 0.1389076968
H   H28       1.0  0.48850  0.89500  0.16270  1.0000 0.1389076968
H   H29       1.0  0.44660  0.01870  0.68370  1.0000 0.1196706407
H   H30       1.0  0.55340  0.98130  0.31630  1.0000 0.1196706407
H   H31       1.0  0.14530  0.10220  0.65470  1.0000 0.1389076968
H   H32       1.0  0.85470  0.89780  0.34530  1.0000 0.1389076968
H   H33       1.0  0.21160  0.19120  0.80970  1.0000 0.1298357263
H   H34       1.0  0.78840  0.80880  0.19030  1.0000 0.1196706407
H   H35       1.0  0.51770  0.23750  0.08970  1.0000 0.1088037376
H   H36       1.0  0.48230  0.76250  0.91030  1.0000 0.1088037376
H   H37       1.0  0.52650  0.32050  0.17770  1.0000 0.1088037376
H   H38       1.0  0.47350  0.67950  0.82230  1.0000 0.1088037376
H   H39       1.0  0.17410  0.14760  0.12930  1.0000 0.1298357263
H   H40       1.0  0.82590  0.85240  0.87070  1.0000 0.1298357263
H   H41       1.0  0.15240  0.06920  0.22230  1.0000 0.1298357263
H   H42       1.0  0.84760  0.93080  0.77770  1.0000 0.1298357263
H   H43       1.0  0.51180  0.12590  0.31600  1.0000 0.1298357263
H   H44       1.0  0.48820  0.87410  0.68400  1.0000 0.1298357263
H   H45       1.0  0.53670  0.20960  0.22520  1.0000 0.1196706407
H   H46       1.0  0.46330  0.79040  0.77480  1.0000 0.1196706407
H   H47       1.0  0.58990  0.76460  0.34060  1.0000 0.1298357263
H   H48       1.0  0.41010  0.23540  0.65940  1.0000 0.1298357263
C   C1        1.0  0.45910  0.33990  0.05830  1.0000 0.0632109043
C   C2        1.0  0.54090  0.66010  0.94170  1.0000 0.0632109043
C   C3        1.0  0.40360  0.41240  0.10200  1.0000 -0.023235394
C   C4        1.0  0.59640  0.58760  0.89800  1.0000 -0.023235394
C   C5        1.0  0.44950  0.56390  0.19450  1.0000 0.2172271457
C   C6        1.0  0.55050  0.43610  0.80550  1.0000 0.2172271457
C   C7        1.0  0.54250  0.63470  0.25080  1.0000 -0.2183667946
C   C8        1.0  0.45750  0.36530  0.74920  1.0000 -0.2183667946
C   C9        1.0  0.40710  0.72150  0.29230  1.0000 -0.0333987372
C   C10       1.0  0.59290  0.27850  0.70770  1.0000 -0.0333987372
C   C11       1.0  0.31320  0.64900  0.23390  1.0000 -0.0590074593
C   C12       1.0  0.68680  0.35100  0.76610  1.0000 -0.0590074593
C   C13       1.0  0.33350  0.56950  0.18220  1.0000 -0.2500584278
C   C14       1.0  0.66650  0.43050  0.81780  1.0000 -0.2500584278
C   C15       1.0  0.38460  0.80550  0.34840  1.0000 0.6022525054
C   C16       1.0  0.61540  0.19450  0.65160  1.0000 0.6022525054
C   C17       1.0  0.58310  0.37960  0.04970  1.0000 -0.0524936675
C   C18       1.0  0.41690  0.62040  0.95030  1.0000 -0.0524936675
C   C19       1.0  0.74800  0.49130  0.17070  1.0000 0.2403616083
C   C20       1.0  0.25200  0.50870  0.82930  1.0000 0.2403616083
C   C21       1.0  0.78100  0.54650  0.12700  1.0000 -0.2500584278
C   C22       1.0  0.21900  0.45350  0.87300  1.0000 -0.2500584278
C   C23       1.0  0.86070  0.63210  0.17540  1.0000 -0.0908518735
C   C24       1.0  0.13930  0.36790  0.82460  1.0000 -0.0908518735
C   C25       1.0  0.90890  0.66270  0.26690  1.0000 -0.0333987372
C   C26       1.0  0.09110  0.33730  0.73310  1.0000 -0.0333987372
C   C27       1.0  0.87940  0.60630  0.31170  1.0000 -0.0698242526
C   C28       1.0  0.12060  0.39370  0.68830  1.0000 -0.0698242526
C   C29       1.0  0.79690  0.52040  0.26270  1.0000 -0.2183667946
C   C30       1.0  0.20310  0.47960  0.73730  1.0000 -0.2183667946
C   C31       1.0  0.99610  0.75390  0.31680  1.0000 0.5388683301
C   C32       1.0  0.00390  0.24610  0.68320  1.0000 0.5388683301
C   C33       1.0  0.37220  0.28370  0.96330  1.0000 -0.1061319973
C   C34       1.0  0.62780  0.71630  0.03670  1.0000 -0.1061319973
C   C35       1.0  0.36980  0.15890  0.83640  1.0000 0.2515839857
C   C36       1.0  0.63020  0.84110  0.16360  1.0000 0.2515839857
C   C37       1.0  0.43810  0.10550  0.79990  1.0000 -0.2100935693
C   C38       1.0  0.56190  0.89450  0.20010  1.0000 -0.2100935693
C   C39       1.0  0.39870  0.05350  0.70930  1.0000 -0.0698242526
C   C40       1.0  0.60130  0.94650  0.29070  1.0000 -0.0698242526
C   C41       1.0  0.28950  0.05160  0.65520  1.0000 -0.023235394
C   C42       1.0  0.71050  0.94840  0.34480  1.0000 -0.023235394
C   C43       1.0  0.21980  0.10320  0.69200  1.0000 -0.0590074593
C   C44       1.0  0.78020  0.89680  0.30800  1.0000 -0.0590074593
C   C45       1.0  0.25960  0.15680  0.78380  1.0000 -0.240328342
C   C46       1.0  0.74040  0.84320  0.21620  1.0000 -0.240328342
C   C47       1.0  0.24890  0.99700  0.55640  1.0000 0.5678204221
C   C48       1.0  0.75110  0.00300  0.44360  1.0000 0.5678204221
C   C49       1.0  0.47640  0.28200  0.11520  1.0000 -0.0908518735
C   C50       1.0  0.52360  0.71800  0.88480  1.0000 -0.0908518735
C   C51       1.0  0.35640  0.18830  0.16950  1.0000 0.2515839857
C   C52       1.0  0.64360  0.81170  0.83050  1.0000 0.2515839857
C   C53       1.0  0.24400  0.14440  0.16850  1.0000 -0.2100935693
C   C54       1.0  0.75600  0.85560  0.83150  1.0000 -0.2100935693
C   C55       1.0  0.23090  0.09670  0.22250  1.0000 -0.0698242526
C   C56       1.0  0.76910  0.90330  0.77750  1.0000 -0.0698242526
C   C57       1.0  0.32970  0.08790  0.27730  1.0000 -0.0333987372
C   C58       1.0  0.67030  0.91210  0.72270  1.0000 -0.0333987372
C   C59       1.0  0.44260  0.13090  0.27770  1.0000 -0.0698242526
C   C60       1.0  0.55740  0.86910  0.72230  1.0000 -0.0698242526
C   C61       1.0  0.45830  0.18100  0.22420  1.0000 -0.240328342
C   C62       1.0  0.54170  0.81900  0.77580  1.0000 -0.240328342
C   C63       1.0  0.31780  0.03600  0.33750  1.0000 0.593190096
C   C64       1.0  0.68220  0.96400  0.66250  1.0000 0.593190096
C   C65       1.0  0.52310  0.71470  0.30070  1.0000 -0.0590074593
C   C66       1.0  0.47690  0.28530  0.69930  1.0000 -0.0590074593
O   O1        1.0  0.48380  0.48810  0.15750  1.0000 -0.1373726505
O   O2        1.0  0.51620  0.51190  0.84250  1.0000 -0.1373726505
O   O3        1.0  0.47470  0.86480  0.41050  1.0000 -0.5590049106
O   O4        1.0  0.52530  0.13520  0.58950  1.0000 -0.5590049106
O   O5        1.0  0.27900  0.81010  0.33120  1.0000 -0.5391581136
O   O6        1.0  0.72100  0.18990  0.66880  1.0000 -0.5391581136
O   O7        1.0  0.67230  0.40530  0.12960  1.0000 -0.1527231339
O   O8        1.0  0.32770  0.59470  0.87040  1.0000 -0.1527231339
O   O9        1.0  0.01790  0.80600  0.27590  1.0000 -0.5291471559
O   O10       1.0  0.98210  0.19400  0.72410  1.0000 -0.5291471559
O   O11       1.0  0.04860  0.77800  0.39980  1.0000 -0.5210050124
O   O12       1.0  0.95140  0.22200  0.60020  1.0000 -0.5210050124
O   O13       1.0  0.41860  0.21030  0.92652  1.0000 -0.1792102236
O   O14       1.0  0.58140  0.78970  0.07348  1.0000 -0.1792102236
O   O15       1.0  0.32050  0.95766  0.52203  1.0000 -0.6058610457
O   O16       1.0  0.67950  0.04234  0.47797  1.0000 -0.6058610457
O   O17       1.0  0.14480  0.98790  0.50760  1.0000 -0.4889935929
O   O18       1.0  0.85520  0.01210  0.49240  1.0000 -0.4889935929
O   O19       1.0  0.36080  0.23670  0.11490  1.0000 -0.1792102236
O   O20       1.0  0.63920  0.76330  0.88510  1.0000 -0.1792102236
O   O21       1.0  0.21280  0.99530  0.33060  1.0000 -0.5210050124
O   O22       1.0  0.78720  0.00470  0.66940  1.0000 -0.5210050124
O   O23       1.0  0.41330  0.03470  0.38990  1.0000 -0.5876956659
O   O24       1.0  0.58670  0.96530  0.61010  1.0000 -0.5876956659
