# DDEC6 charges by PACMAN v1.1 (https://github.com/mtap-research/PACMAN-charge/)
data_2011[Cd][nan]3[ASR]2
_chemical_formula_sum              "Cd3 H60 C102 N18 O24"
_cell_length_a       15.214
_cell_length_b       15.214
_cell_length_c       19.686
_cell_angle_alpha    90
_cell_angle_beta     90
_cell_angle_gamma    120

_symmetry_space_group_name_H-M    "P 1"
_symmetry_Int_Tables_number       1

loop_
  _symmetry_equiv_pos_as_xyz
  'x, y, z'

loop_
  _atom_site_type_symbol
  _atom_site_label
  _atom_site_symmetry_multiplicity
  _atom_site_fract_x
  _atom_site_fract_y
  _atom_site_fract_z
  _atom_site_occupancy
  _atom_site_charge
Cd  Cd1       1.0  0.14365  0.00000  0.16667  1.0000 0.7359019665
Cd  Cd2       1.0  1.00000  0.14365  0.83333  1.0000 0.7359019665
Cd  Cd3       1.0  0.85635  0.85635  0.50000  1.0000 0.7359019665
H   H1        1.0  0.69070  0.57240  0.23920  1.0000 0.110495349
H   H2        1.0  0.72160  0.48200  0.32150  1.0000 0.0984617847
H   H3        1.0  0.82000  0.73060  0.20500  1.0000 0.110495349
H   H4        1.0  0.28540  0.93860  0.25600  1.0000 0.0984617847
H   H5        1.0  0.43460  0.93410  0.25680  1.0000 0.1392907478
H   H6        1.0  0.99890  0.09680  0.99280  1.0000 0.0984617847
H   H7        1.0  0.91300  0.07310  0.09300  1.0000 0.1392907478
H   H8        1.0  0.68400  0.05220  0.98740  1.0000 0.1392907478
H   H9        1.0  0.78110  0.09650  0.89190  1.0000 0.110495349
H   H10       1.0  0.41052  0.87951  0.56267  1.0000 0.3246348747
H   H11       1.0  0.42760  0.11830  0.90587  1.0000 0.110495349
H   H12       1.0  0.51800  0.23960  0.98817  1.0000 0.0984617847
H   H13       1.0  0.26940  0.08940  0.87167  1.0000 0.110495349
H   H14       1.0  0.06140  0.34680  0.92267  1.0000 0.0984617847
H   H15       1.0  0.06590  0.50050  0.92347  1.0000 0.1344158946
H   H16       1.0  0.90320  0.90210  0.65947  1.0000 0.0984617847
H   H17       1.0  0.92690  0.83990  0.75967  1.0000 0.1392907478
H   H18       1.0  0.94780  0.63180  0.65407  1.0000 0.1392907478
H   H19       1.0  0.90350  0.68460  0.55857  1.0000 0.110495349
H   H20       1.0  0.12049  0.53101  0.22934  1.0000 0.3246348747
H   H21       1.0  0.88170  0.30930  0.57253  1.0000 0.110495349
H   H22       1.0  0.76040  0.27840  0.65483  1.0000 0.0984617847
H   H23       1.0  0.91060  0.18000  0.53833  1.0000 0.110495349
H   H24       1.0  0.65320  0.71460  0.58933  1.0000 0.0984617847
H   H25       1.0  0.49950  0.56540  0.59013  1.0000 0.1344158946
H   H26       1.0  0.09790  0.00110  0.32613  1.0000 0.0984617847
H   H27       1.0  0.16010  0.08700  0.42633  1.0000 0.1392907478
H   H28       1.0  0.36820  0.31600  0.32073  1.0000 0.1392907478
H   H29       1.0  0.31540  0.21890  0.22523  1.0000 0.110495349
H   H30       1.0  0.46899  0.58948  0.89601  1.0000 0.3246348747
H   H31       1.0  0.57240  0.69070  0.76080  1.0000 0.110495349
H   H32       1.0  0.48200  0.72160  0.67850  1.0000 0.0984617847
H   H33       1.0  0.73060  0.82000  0.79500  1.0000 0.110495349
H   H34       1.0  0.93860  0.28540  0.74400  1.0000 0.0984617847
H   H35       1.0  0.93410  0.43460  0.74320  1.0000 0.1344158946
H   H36       1.0  0.09680  0.99890  0.00720  1.0000 0.0984617847
H   H37       1.0  0.07310  0.91300  0.90700  1.0000 0.1392907478
H   H38       1.0  0.05220  0.68400  0.01260  1.0000 0.1392907478
H   H39       1.0  0.09650  0.78110  0.10810  1.0000 0.110495349
H   H40       1.0  0.87951  0.41052  0.43733  1.0000 0.3246348747
H   H41       1.0  0.11830  0.42760  0.09413  1.0000 0.110495349
H   H42       1.0  0.23960  0.51800  0.01183  1.0000 0.0984617847
H   H43       1.0  0.08940  0.26940  0.12833  1.0000 0.110495349
H   H44       1.0  0.34680  0.06140  0.07733  1.0000 0.0984617847
H   H45       1.0  0.50050  0.06590  0.07653  1.0000 0.1392907478
H   H46       1.0  0.90210  0.90320  0.34053  1.0000 0.0984617847
H   H47       1.0  0.83990  0.92690  0.24033  1.0000 0.1392907478
H   H48       1.0  0.63180  0.94780  0.34593  1.0000 0.1392907478
H   H49       1.0  0.68460  0.90350  0.44143  1.0000 0.110495349
H   H50       1.0  0.53101  0.12049  0.77066  1.0000 0.3246348747
H   H51       1.0  0.30930  0.88170  0.42747  1.0000 0.110495349
H   H52       1.0  0.27840  0.76040  0.34517  1.0000 0.0984617847
H   H53       1.0  0.18000  0.91060  0.46167  1.0000 0.110495349
H   H54       1.0  0.71460  0.65320  0.41067  1.0000 0.0984617847
H   H55       1.0  0.56540  0.49950  0.40987  1.0000 0.1344158946
H   H56       1.0  0.00110  0.09790  0.67387  1.0000 0.0984617847
H   H57       1.0  0.08700  0.16010  0.57367  1.0000 0.1392907478
H   H58       1.0  0.31600  0.36820  0.67927  1.0000 0.1392907478
H   H59       1.0  0.21890  0.31540  0.77477  1.0000 0.110495349
H   H60       1.0  0.58948  0.46899  0.10399  1.0000 0.3246348747
C   C1        1.0  0.75490  0.59960  0.25850  1.0000 -0.1197276738
C   C2        1.0  0.77340  0.54540  0.30780  1.0000 -0.113052115
C   C3        1.0  0.86950  0.58610  0.33650  1.0000 -0.0996569061
C   C4        1.0  0.94690  0.68080  0.31600  1.0000 0.0799491832
C   C5        1.0  0.92840  0.73500  0.26670  1.0000 -0.0706882317
C   C6        1.0  0.83240  0.69440  0.23800  1.0000 -0.0996569061
C   C7        1.0  0.87300  0.51300  0.37800  1.0000 0.4864130019
C   C8        1.0  0.00600  0.82930  0.23380  1.0000 0.4963100998
C   C9        1.0  0.32920  0.96350  0.21900  1.0000 0.086368696
C   C10       1.0  0.41870  0.96160  0.21980  1.0000 -0.173857396
C   C11       1.0  0.93480  0.09040  0.99200  1.0000 0.0799491832
C   C12       1.0  0.88210  0.07150  0.05190  1.0000 -0.1793920523
C   C13       1.0  0.78020  0.04970  0.05020  1.0000 0.0582467689
C   C14       1.0  0.74920  0.06180  0.99060  1.0000 -0.16021658
C   C15       1.0  0.80700  0.08760  0.93250  1.0000 0.0696975811
C   C16       1.0  0.72100  0.02270  0.11200  1.0000 0.3549903183
C   C17       1.0  0.40040  0.15530  0.92517  1.0000 -0.1197276738
C   C18       1.0  0.45460  0.22800  0.97447  1.0000 -0.113052115
C   C19       1.0  0.41390  0.28340  0.00317  1.0000 -0.0996569061
C   C20       1.0  0.31920  0.26610  0.98267  1.0000 0.0799491832
C   C21       1.0  0.26500  0.19340  0.93337  1.0000 -0.0706882317
C   C22       1.0  0.30560  0.13800  0.90467  1.0000 -0.0996569061
C   C23       1.0  0.48700  0.36000  0.04467  1.0000 0.4844638555
C   C24       1.0  0.17070  0.17670  0.90047  1.0000 0.4963100998
C   C25       1.0  0.03650  0.36570  0.88567  1.0000 0.086368696
C   C26       1.0  0.03840  0.45710  0.88647  1.0000 -0.173857396
C   C27       1.0  0.90960  0.84440  0.65867  1.0000 0.0799491832
C   C28       1.0  0.92850  0.81060  0.71857  1.0000 -0.1793920523
C   C29       1.0  0.95030  0.73050  0.71687  1.0000 0.0582467689
C   C30       1.0  0.93820  0.68740  0.65727  1.0000 -0.16021658
C   C31       1.0  0.91240  0.71940  0.59917  1.0000 0.0696975811
C   C32       1.0  0.97730  0.69830  0.77867  1.0000 0.3549903183
C   C33       1.0  0.84470  0.24510  0.59183  1.0000 -0.1197276738
C   C34       1.0  0.77200  0.22660  0.64113  1.0000 -0.113052115
C   C35       1.0  0.71660  0.13050  0.66983  1.0000 -0.0996569061
C   C36       1.0  0.73390  0.05310  0.64933  1.0000 0.0799491832
C   C37       1.0  0.80660  0.07160  0.60003  1.0000 -0.0706882317
C   C38       1.0  0.86200  0.16760  0.57133  1.0000 -0.0996569061
C   C39       1.0  0.64000  0.12700  0.71133  1.0000 0.4864130019
C   C40       1.0  0.82330  0.99400  0.56713  1.0000 0.4963100998
C   C41       1.0  0.63430  0.67080  0.55233  1.0000 0.086368696
C   C42       1.0  0.54290  0.58130  0.55313  1.0000 -0.173857396
C   C43       1.0  0.15560  0.06520  0.32533  1.0000 0.0799491832
C   C44       1.0  0.18940  0.11790  0.38523  1.0000 -0.1793920523
C   C45       1.0  0.26950  0.21980  0.38353  1.0000 0.0582467689
C   C46       1.0  0.31260  0.25080  0.32393  1.0000 -0.16021658
C   C47       1.0  0.28060  0.19300  0.26583  1.0000 0.0696975811
C   C48       1.0  0.30170  0.27900  0.44533  1.0000 0.3562462627
C   C49       1.0  0.59960  0.75490  0.74150  1.0000 -0.1197276738
C   C50       1.0  0.54540  0.77340  0.69220  1.0000 -0.113052115
C   C51       1.0  0.58610  0.86950  0.66350  1.0000 -0.0996569061
C   C52       1.0  0.68080  0.94690  0.68400  1.0000 0.0799491832
C   C53       1.0  0.73500  0.92840  0.73330  1.0000 -0.0706882317
C   C54       1.0  0.69440  0.83240  0.76200  1.0000 -0.0996569061
C   C55       1.0  0.51300  0.87300  0.62200  1.0000 0.4864130019
C   C56       1.0  0.82930  0.00600  0.76620  1.0000 0.4963100998
C   C57       1.0  0.96350  0.32920  0.78100  1.0000 0.086368696
C   C58       1.0  0.96160  0.41870  0.78020  1.0000 -0.173857396
C   C59       1.0  0.09040  0.93480  0.00800  1.0000 0.0799491832
C   C60       1.0  0.07150  0.88210  0.94810  1.0000 -0.1793920523
C   C61       1.0  0.04970  0.78020  0.94980  1.0000 0.0582467689
C   C62       1.0  0.06180  0.74920  0.00940  1.0000 -0.16021658
C   C63       1.0  0.08760  0.80700  0.06750  1.0000 0.0696975811
C   C64       1.0  0.02270  0.72100  0.88800  1.0000 0.3562462627
C   C65       1.0  0.15530  0.40040  0.07483  1.0000 -0.1197276738
C   C66       1.0  0.22800  0.45460  0.02553  1.0000 -0.113052115
C   C67       1.0  0.28340  0.41390  0.99683  1.0000 -0.0996569061
C   C68       1.0  0.26610  0.31920  0.01733  1.0000 0.0799491832
C   C69       1.0  0.19340  0.26500  0.06663  1.0000 -0.0706882317
C   C70       1.0  0.13800  0.30560  0.09533  1.0000 -0.0996569061
C   C71       1.0  0.36000  0.48700  0.95533  1.0000 0.4844638555
C   C72       1.0  0.17670  0.17070  0.09953  1.0000 0.4963100998
C   C73       1.0  0.36570  0.03650  0.11433  1.0000 0.086368696
C   C74       1.0  0.45710  0.03840  0.11353  1.0000 -0.173857396
C   C75       1.0  0.84440  0.90960  0.34133  1.0000 0.0799491832
C   C76       1.0  0.81060  0.92850  0.28143  1.0000 -0.1793920523
C   C77       1.0  0.73050  0.95030  0.28313  1.0000 0.0582467689
C   C78       1.0  0.68740  0.93820  0.34273  1.0000 -0.16021658
C   C79       1.0  0.71940  0.91240  0.40083  1.0000 0.0696975811
C   C80       1.0  0.69830  0.97730  0.22133  1.0000 0.3562462627
C   C81       1.0  0.24510  0.84470  0.40817  1.0000 -0.1197276738
C   C82       1.0  0.22660  0.77200  0.35887  1.0000 -0.113052115
C   C83       1.0  0.13050  0.71660  0.33017  1.0000 -0.0996569061
C   C84       1.0  0.05310  0.73390  0.35067  1.0000 0.0799491832
C   C85       1.0  0.07160  0.80660  0.39997  1.0000 -0.0706882317
C   C86       1.0  0.16760  0.86200  0.42867  1.0000 -0.0996569061
C   C87       1.0  0.12700  0.64000  0.28867  1.0000 0.4864130019
C   C88       1.0  0.99400  0.82330  0.43287  1.0000 0.4963100998
C   C89       1.0  0.67080  0.63430  0.44767  1.0000 0.086368696
C   C90       1.0  0.58130  0.54290  0.44687  1.0000 -0.173857396
C   C91       1.0  0.06520  0.15560  0.67467  1.0000 0.0799491832
C   C92       1.0  0.11790  0.18940  0.61477  1.0000 -0.1793920523
C   C93       1.0  0.21980  0.26950  0.61647  1.0000 0.0582467689
C   C94       1.0  0.25080  0.31260  0.67607  1.0000 -0.16021658
C   C95       1.0  0.19300  0.28060  0.73417  1.0000 0.0696975811
C   C96       1.0  0.27900  0.30170  0.55467  1.0000 0.3562462627
C   C97       1.0  0.58050  0.00000  0.16667  1.0000 0.3704568792
C   C98       1.0  0.48340  0.00000  0.16667  1.0000 0.0582467689
C   C99       1.0  1.00000  0.58050  0.83333  1.0000 0.3704568792
C   C100      1.0  1.00000  0.48340  0.83333  1.0000 0.0582467689
C   C101      1.0  0.41950  0.41950  0.50000  1.0000 0.3704568792
C   C102      1.0  0.51660  0.51660  0.50000  1.0000 0.0582467689
N   N1        1.0  0.89890  0.09980  0.93420  1.0000 -0.2205314853
N   N2        1.0  0.63560  0.02620  0.10930  1.0000 -0.428302765
N   N3        1.0  0.90020  0.79910  0.60087  1.0000 -0.2205314853
N   N4        1.0  0.97380  0.60940  0.77597  1.0000 -0.428302765
N   N5        1.0  0.20090  0.10110  0.26753  1.0000 -0.2205314853
N   N6        1.0  0.39060  0.36440  0.44263  1.0000 -0.428302765
N   N7        1.0  0.09980  0.89890  0.06580  1.0000 -0.2205314853
N   N8        1.0  0.02620  0.63560  0.89070  1.0000 -0.428302765
N   N9        1.0  0.79910  0.90020  0.39913  1.0000 -0.2205314853
N   N10       1.0  0.60940  0.97380  0.22403  1.0000 -0.428302765
N   N11       1.0  0.10110  0.20090  0.73247  1.0000 -0.2205314853
N   N12       1.0  0.36440  0.39060  0.55737  1.0000 -0.428302765
N   N13       1.0  0.30550  0.00000  0.16667  1.0000 -0.2205314853
N   N14       1.0  0.75670  0.00000  0.16667  1.0000 -0.4180757752
N   N15       1.0  0.00000  0.30550  0.83333  1.0000 -0.2205314853
N   N16       1.0  1.00000  0.75670  0.83333  1.0000 -0.4180757752
N   N17       1.0  0.69450  0.69450  0.50000  1.0000 -0.2205314853
N   N18       1.0  0.24330  0.24330  0.50000  1.0000 -0.4180757752
O   O1        1.0  0.09200  0.84650  0.23150  1.0000 -0.4614131502
O   O2        1.0  0.90800  0.55200  0.43000  1.0000 -0.3716046613
O   O3        1.0  0.85100  0.41800  0.38700  1.0000 -0.3902446778
O   O4        1.0  0.98230  0.88690  0.21300  1.0000 -0.449474767
O   O5        1.0  0.15350  0.24550  0.89817  1.0000 -0.4614131502
O   O6        1.0  0.44800  0.35600  0.09667  1.0000 -0.3716046613
O   O7        1.0  0.58200  0.43300  0.05367  1.0000 -0.3970863572
O   O8        1.0  0.11310  0.09540  0.87967  1.0000 -0.449474767
O   O9        1.0  0.75450  0.90800  0.56483  1.0000 -0.4614131502
O   O10       1.0  0.64400  0.09200  0.76333  1.0000 -0.3716046613
O   O11       1.0  0.56700  0.14900  0.72033  1.0000 -0.3902446778
O   O12       1.0  0.90460  0.01770  0.54633  1.0000 -0.449474767
O   O13       1.0  0.84650  0.09200  0.76850  1.0000 -0.4614131502
O   O14       1.0  0.55200  0.90800  0.57000  1.0000 -0.3716046613
O   O15       1.0  0.41800  0.85100  0.61300  1.0000 -0.3902446778
O   O16       1.0  0.88690  0.98230  0.78700  1.0000 -0.449474767
O   O17       1.0  0.24550  0.15350  0.10183  1.0000 -0.4614131502
O   O18       1.0  0.35600  0.44800  0.90333  1.0000 -0.3716046613
O   O19       1.0  0.43300  0.58200  0.94633  1.0000 -0.3970863572
O   O20       1.0  0.09540  0.11310  0.12033  1.0000 -0.449474767
O   O21       1.0  0.90800  0.75450  0.43517  1.0000 -0.4614131502
O   O22       1.0  0.09200  0.64400  0.23667  1.0000 -0.3716046613
O   O23       1.0  0.14900  0.56700  0.27967  1.0000 -0.3970863572
O   O24       1.0  0.01770  0.90460  0.45367  1.0000 -0.449474767
