# DDEC6 charges by PACMAN v1.1 (https://github.com/mtap-research/PACMAN-charge/)
data_2011[Zn][nan]3[ASR]3
_chemical_formula_sum              "Zn16 H192 C240 N32 O64"
_cell_length_a       12.2527
_cell_length_b       31.2515
_cell_length_c       26.2119
_cell_angle_alpha    90
_cell_angle_beta     110.619
_cell_angle_gamma    90

_symmetry_space_group_name_H-M    "P 1"
_symmetry_Int_Tables_number       1

loop_
  _symmetry_equiv_pos_as_xyz
  'x, y, z'

loop_
  _atom_site_type_symbol
  _atom_site_label
  _atom_site_symmetry_multiplicity
  _atom_site_fract_x
  _atom_site_fract_y
  _atom_site_fract_z
  _atom_site_occupancy
  _atom_site_charge
Zn  Zn1       1.0  0.61691  0.74093  0.20653  1.0000 0.8216092214
Zn  Zn2       1.0  0.38309  0.24093  0.29347  1.0000 0.8216092214
Zn  Zn3       1.0  0.38309  0.25907  0.79347  1.0000 0.8216092214
Zn  Zn4       1.0  0.61691  0.75907  0.70653  1.0000 0.8216092214
Zn  Zn5       1.0  0.86587  0.72911  0.25377  1.0000 0.8216092214
Zn  Zn6       1.0  0.13412  0.22911  0.24623  1.0000 0.8216092214
Zn  Zn7       1.0  0.13412  0.27089  0.74623  1.0000 0.8216092214
Zn  Zn8       1.0  0.86587  0.77089  0.75377  1.0000 0.8216092214
Zn  Zn9       1.0  0.73245  0.36117  0.43385  1.0000 0.8409202248
Zn  Zn10      1.0  0.26754  0.86117  0.06615  1.0000 0.8409202248
Zn  Zn11      1.0  0.26754  0.63883  0.56615  1.0000 0.8409202248
Zn  Zn12      1.0  0.73245  0.13883  0.93385  1.0000 0.8409202248
Zn  Zn13      1.0  0.78409  0.12384  0.08104  1.0000 0.8409202248
Zn  Zn14      1.0  0.21591  0.62384  0.41896  1.0000 0.8409202248
Zn  Zn15      1.0  0.21591  0.87616  0.91896  1.0000 0.8409202248
Zn  Zn16      1.0  0.78409  0.37616  0.58104  1.0000 0.8409202248
H   H1        1.0  0.45720  0.79070  0.11050  1.0000 0.1121251406
H   H2        1.0  0.54280  0.29070  0.38950  1.0000 0.1121251406
H   H3        1.0  0.54280  0.20930  0.88950  1.0000 0.1121251406
H   H4        1.0  0.45720  0.70930  0.61050  1.0000 0.1121251406
H   H5        1.0  0.45760  0.81780  0.16250  1.0000 0.1194513597
H   H6        1.0  0.54239  0.31780  0.33750  1.0000 0.1194513597
H   H7        1.0  0.54239  0.18220  0.83750  1.0000 0.1194513597
H   H8        1.0  0.45760  0.68220  0.66250  1.0000 0.1194513597
H   H9        1.0  0.41931  0.78240  0.23770  1.0000 0.1194513597
H   H10       1.0  0.58069  0.28240  0.26230  1.0000 0.1194513597
H   H11       1.0  0.58069  0.21760  0.76230  1.0000 0.1194513597
H   H12       1.0  0.41930  0.71760  0.73770  1.0000 0.1194513597
H   H13       1.0  0.39341  0.73210  0.23500  1.0000 0.1013275832
H   H14       1.0  0.60659  0.23210  0.26500  1.0000 0.1013275832
H   H15       1.0  0.60659  0.26790  0.76500  1.0000 0.1013275832
H   H16       1.0  0.39340  0.76790  0.73500  1.0000 0.1013275832
H   H17       1.0  0.39191  0.69050  0.15530  1.0000 0.1121251406
H   H18       1.0  0.60810  0.19050  0.34470  1.0000 0.1121251406
H   H19       1.0  0.60810  0.30950  0.84470  1.0000 0.1121251406
H   H20       1.0  0.39191  0.80950  0.65530  1.0000 0.1121251406
H   H21       1.0  0.41591  0.71370  0.10580  1.0000 0.1121251406
H   H22       1.0  0.58410  0.21370  0.39420  1.0000 0.1121251406
H   H23       1.0  0.58410  0.28630  0.89420  1.0000 0.1121251406
H   H24       1.0  0.41591  0.78630  0.60580  1.0000 0.1121251406
H   H25       1.0  0.15630  0.81210  0.13740  1.0000 0.1194513597
H   H26       1.0  0.84369  0.31210  0.36260  1.0000 0.1194513597
H   H27       1.0  0.84369  0.18790  0.86260  1.0000 0.1194513597
H   H28       1.0  0.15630  0.68790  0.63740  1.0000 0.1194513597
H   H29       1.0  0.27691  0.83040  0.17890  1.0000 0.1194513597
H   H30       1.0  0.72310  0.33040  0.32110  1.0000 0.1194513597
H   H31       1.0  0.72309  0.16960  0.82110  1.0000 0.1194513597
H   H32       1.0  0.27691  0.66960  0.67890  1.0000 0.1194513597
H   H33       1.0  0.27400  0.76140  0.04740  1.0000 0.1121251406
H   H34       1.0  0.72599  0.26140  0.45260  1.0000 0.1121251406
H   H35       1.0  0.72600  0.23860  0.95260  1.0000 0.1121251406
H   H36       1.0  0.27400  0.73860  0.54740  1.0000 0.1121251406
H   H37       1.0  0.15460  0.77020  0.05760  1.0000 0.1121251406
H   H38       1.0  0.84540  0.27020  0.44240  1.0000 0.1121251406
H   H39       1.0  0.84540  0.22980  0.94240  1.0000 0.1121251406
H   H40       1.0  0.15460  0.72980  0.55760  1.0000 0.1121251406
H   H41       1.0  0.21461  0.70460  0.17210  1.0000 0.1013275832
H   H42       1.0  0.78539  0.20460  0.32790  1.0000 0.1013275832
H   H43       1.0  0.78539  0.29540  0.82790  1.0000 0.1013275832
H   H44       1.0  0.21461  0.79540  0.67210  1.0000 0.1013275832
H   H45       1.0  0.11930  0.73640  0.13290  1.0000 0.1013275832
H   H46       1.0  0.88070  0.23640  0.36710  1.0000 0.1013275832
H   H47       1.0  0.88070  0.26360  0.86710  1.0000 0.1013275832
H   H48       1.0  0.11930  0.76360  0.63290  1.0000 0.1013275832
H   H49       1.0  0.03590  0.65660  0.30930  1.0000 0.1194513597
H   H50       1.0  0.96410  0.15660  0.19070  1.0000 0.1194513597
H   H51       1.0  0.96410  0.34340  0.69070  1.0000 0.1194513597
H   H52       1.0  0.03590  0.84340  0.80930  1.0000 0.1194513597
H   H53       1.0  0.01780  0.68640  0.35540  1.0000 0.1194513597
H   H54       1.0  0.98220  0.18640  0.14460  1.0000 0.1194513597
H   H55       1.0  0.98220  0.31360  0.64460  1.0000 0.1194513597
H   H56       1.0  0.01781  0.81360  0.85540  1.0000 0.1194513597
H   H57       1.0  0.04280  0.76400  0.35250  1.0000 0.1194513597
H   H58       1.0  0.95719  0.26400  0.14750  1.0000 0.1194513597
H   H59       1.0  0.95719  0.23600  0.64750  1.0000 0.1194513597
H   H60       1.0  0.04280  0.73600  0.85250  1.0000 0.1194513597
H   H61       1.0  0.07451  0.78500  0.30370  1.0000 0.1121251406
H   H62       1.0  0.92549  0.28500  0.19630  1.0000 0.1121251406
H   H63       1.0  0.92549  0.21500  0.69630  1.0000 0.1121251406
H   H64       1.0  0.07451  0.71500  0.80370  1.0000 0.1121251406
H   H65       1.0  0.10050  0.73890  0.23250  1.0000 0.1013275832
H   H66       1.0  0.89950  0.23890  0.26750  1.0000 0.1013275832
H   H67       1.0  0.89949  0.26110  0.76750  1.0000 0.1013275832
H   H68       1.0  0.10050  0.76110  0.73250  1.0000 0.1013275832
H   H69       1.0  0.08650  0.68810  0.23560  1.0000 0.1121251406
H   H70       1.0  0.91349  0.18810  0.26440  1.0000 0.1121251406
H   H71       1.0  0.91349  0.31190  0.76440  1.0000 0.1121251406
H   H72       1.0  0.08650  0.81190  0.73560  1.0000 0.1121251406
H   H73       1.0  0.31210  0.71670  0.41840  1.0000 0.1121251406
H   H74       1.0  0.68790  0.21670  0.08160  1.0000 0.1121251406
H   H75       1.0  0.68790  0.28330  0.58160  1.0000 0.1121251406
H   H76       1.0  0.31211  0.78330  0.91840  1.0000 0.1121251406
H   H77       1.0  0.18451  0.72330  0.42090  1.0000 0.1121251406
H   H78       1.0  0.81550  0.22330  0.07910  1.0000 0.1121251406
H   H79       1.0  0.81549  0.27670  0.57910  1.0000 0.1121251406
H   H80       1.0  0.18451  0.77670  0.92090  1.0000 0.1121251406
H   H81       1.0  0.22961  0.64740  0.30470  1.0000 0.1121251406
H   H82       1.0  0.77040  0.14740  0.19530  1.0000 0.1121251406
H   H83       1.0  0.77040  0.35260  0.69530  1.0000 0.1121251406
H   H84       1.0  0.22961  0.85260  0.80470  1.0000 0.1121251406
H   H85       1.0  0.33940  0.67090  0.34810  1.0000 0.1121251406
H   H86       1.0  0.66060  0.17090  0.15190  1.0000 0.1121251406
H   H87       1.0  0.66060  0.32910  0.65190  1.0000 0.1121251406
H   H88       1.0  0.33940  0.82910  0.84810  1.0000 0.1121251406
H   H89       1.0  0.26400  0.77470  0.29850  1.0000 0.1013275832
H   H90       1.0  0.73599  0.27470  0.20150  1.0000 0.1013275832
H   H91       1.0  0.73599  0.22530  0.70150  1.0000 0.1013275832
H   H92       1.0  0.26401  0.72530  0.79850  1.0000 0.1013275832
H   H93       1.0  0.36001  0.74740  0.34450  1.0000 0.1013275832
H   H94       1.0  0.63999  0.24740  0.15550  1.0000 0.1013275832
H   H95       1.0  0.63999  0.25260  0.65550  1.0000 0.1013275832
H   H96       1.0  0.36001  0.75260  0.84450  1.0000 0.1013275832
H   H97       1.0  0.88040  0.76810  0.42210  1.0000 0.1194513597
H   H98       1.0  0.11960  0.26810  0.07790  1.0000 0.1194513597
H   H99       1.0  0.11960  0.23190  0.57790  1.0000 0.1194513597
H   H100      1.0  0.88040  0.73190  0.92210  1.0000 0.1194513597
H   H101      1.0  0.95850  0.78840  0.52110  1.0000 0.1121251406
H   H102      1.0  0.04150  0.28840  0.97890  1.0000 0.1121251406
H   H103      1.0  0.04150  0.21160  0.47890  1.0000 0.1121251406
H   H104      1.0  0.95850  0.71160  0.02110  1.0000 0.1121251406
H   H105      1.0  0.93500  0.79110  0.60490  1.0000 0.1121251406
H   H106      1.0  0.06500  0.29110  0.89510  1.0000 0.1121251406
H   H107      1.0  0.06499  0.20890  0.39510  1.0000 0.1121251406
H   H108      1.0  0.93500  0.70890  0.10490  1.0000 0.1121251406
H   H109      1.0  0.60311  0.74760  0.53770  1.0000 0.1194513597
H   H110      1.0  0.39689  0.24760  0.96230  1.0000 0.1194513597
H   H111      1.0  0.39689  0.25240  0.46230  1.0000 0.1194513597
H   H112      1.0  0.60311  0.75240  0.03770  1.0000 0.1194513597
H   H113      1.0  0.52370  0.72950  0.43880  1.0000 0.1121251406
H   H114      1.0  0.47630  0.22950  0.06120  1.0000 0.1121251406
H   H115      1.0  0.47630  0.27050  0.56120  1.0000 0.1121251406
H   H116      1.0  0.52370  0.77050  0.93880  1.0000 0.1121251406
H   H117      1.0  0.54820  0.72430  0.35550  1.0000 0.1121251406
H   H118      1.0  0.45180  0.22430  0.14450  1.0000 0.1121251406
H   H119      1.0  0.45180  0.27570  0.64450  1.0000 0.1121251406
H   H120      1.0  0.54821  0.77570  0.85550  1.0000 0.1121251406
H   H121      1.0  0.97081  0.85880  0.23380  1.0000 0.1194513597
H   H122      1.0  0.02920  0.35880  0.26620  1.0000 0.1194513597
H   H123      1.0  0.02919  0.14120  0.76620  1.0000 0.1194513597
H   H124      1.0  0.97081  0.64120  0.73380  1.0000 0.1194513597
H   H125      1.0  0.99801  0.92860  0.21210  1.0000 0.1194513597
H   H126      1.0  0.00200  0.42860  0.28790  1.0000 0.1289997498
H   H127      1.0  0.00199  0.07140  0.78790  1.0000 0.1194513597
H   H128      1.0  0.99801  0.57140  0.71210  1.0000 0.1194513597
H   H129      1.0  0.91470  0.00070  0.17780  1.0000 0.1194513597
H   H130      1.0  0.08530  0.50070  0.32220  1.0000 0.1194513597
H   H131      1.0  0.08529  0.99930  0.82220  1.0000 0.1194513597
H   H132      1.0  0.91470  0.49930  0.67780  1.0000 0.1194513597
H   H133      1.0  0.56690  0.02080  0.13530  1.0000 0.1194513597
H   H134      1.0  0.43310  0.52080  0.36470  1.0000 0.1194513597
H   H135      1.0  0.43310  0.97920  0.86470  1.0000 0.1194513597
H   H136      1.0  0.56690  0.47920  0.63530  1.0000 0.1194513597
H   H137      1.0  0.54041  0.95120  0.15890  1.0000 0.1289997498
H   H138      1.0  0.45959  0.45120  0.34110  1.0000 0.1289997498
H   H139      1.0  0.45959  0.04880  0.84110  1.0000 0.1194513597
H   H140      1.0  0.54041  0.54880  0.65890  1.0000 0.1289997498
H   H141      1.0  0.62350  0.87980  0.19440  1.0000 0.1289997498
H   H142      1.0  0.37650  0.37980  0.30560  1.0000 0.1289997498
H   H143      1.0  0.37650  0.12020  0.80560  1.0000 0.1289997498
H   H144      1.0  0.62350  0.62020  0.69440  1.0000 0.1289997498
H   H145      1.0  0.85740  0.60000  0.29800  1.0000 0.1289997498
H   H146      1.0  0.14259  0.10000  0.20200  1.0000 0.1289997498
H   H147      1.0  0.14259  0.40000  0.70200  1.0000 0.1289997498
H   H148      1.0  0.85740  0.90000  0.79800  1.0000 0.1289997498
H   H149      1.0  0.93950  0.53500  0.35350  1.0000 0.1289997498
H   H150      1.0  0.06050  0.03500  0.14650  1.0000 0.1289997498
H   H151      1.0  0.06050  0.46500  0.64650  1.0000 0.1289997498
H   H152      1.0  0.93950  0.96500  0.85350  1.0000 0.1289997498
H   H153      1.0  0.91090  0.46780  0.38380  1.0000 0.1194513597
H   H154      1.0  0.08909  0.96780  0.11620  1.0000 0.1194513597
H   H155      1.0  0.08910  0.53220  0.61620  1.0000 0.1194513597
H   H156      1.0  0.91090  0.03220  0.88380  1.0000 0.1194513597
H   H157      1.0  0.57120  0.46930  0.28580  1.0000 0.1194513597
H   H158      1.0  0.42879  0.96930  0.21420  1.0000 0.1194513597
H   H159      1.0  0.42879  0.53070  0.71420  1.0000 0.1194513597
H   H160      1.0  0.57120  0.03070  0.78580  1.0000 0.1194513597
H   H161      1.0  0.48761  0.53520  0.23090  1.0000 0.1289997498
H   H162      1.0  0.51240  0.03520  0.26910  1.0000 0.1289997498
H   H163      1.0  0.51240  0.46480  0.76910  1.0000 0.1289997498
H   H164      1.0  0.48761  0.96480  0.73090  1.0000 0.1289997498
H   H165      1.0  0.51270  0.60420  0.20580  1.0000 0.1194513597
H   H166      1.0  0.48729  0.10420  0.29420  1.0000 0.1194513597
H   H167      1.0  0.48729  0.39580  0.79420  1.0000 0.1194513597
H   H168      1.0  0.51270  0.89580  0.70580  1.0000 0.1194513597
H   H169      1.0  0.03400  0.34740  0.44970  1.0000 0.1194513597
H   H170      1.0  0.96600  0.84740  0.05030  1.0000 0.1194513597
H   H171      1.0  0.96600  0.65260  0.55030  1.0000 0.1194513597
H   H172      1.0  0.03401  0.15260  0.94970  1.0000 0.1194513597
H   H173      1.0  0.17330  0.34650  0.39930  1.0000 0.1194513597
H   H174      1.0  0.82669  0.84650  0.10070  1.0000 0.1194513597
H   H175      1.0  0.82669  0.65350  0.60070  1.0000 0.1194513597
H   H176      1.0  0.17330  0.15350  0.89930  1.0000 0.1194513597
H   H177      1.0  0.36330  0.34880  0.40080  1.0000 0.1194513597
H   H178      1.0  0.63670  0.84880  0.09920  1.0000 0.1194513597
H   H179      1.0  0.63670  0.65120  0.59920  1.0000 0.1194513597
H   H180      1.0  0.36331  0.15120  0.90080  1.0000 0.1194513597
H   H181      1.0  0.48420  0.37070  0.56410  1.0000 0.1289997498
H   H182      1.0  0.51579  0.87070  0.93590  1.0000 0.1289997498
H   H183      1.0  0.51580  0.62930  0.43590  1.0000 0.1289997498
H   H184      1.0  0.48420  0.12930  0.06410  1.0000 0.1289997498
H   H185      1.0  0.34270  0.37680  0.61300  1.0000 0.1194513597
H   H186      1.0  0.65730  0.87680  0.88700  1.0000 0.1194513597
H   H187      1.0  0.65730  0.62320  0.38700  1.0000 0.1194513597
H   H188      1.0  0.34270  0.12320  0.11300  1.0000 0.1194513597
H   H189      1.0  0.15411  0.37120  0.61250  1.0000 0.1194513597
H   H190      1.0  0.84589  0.87120  0.88750  1.0000 0.1194513597
H   H191      1.0  0.84589  0.62880  0.38750  1.0000 0.1194513597
H   H192      1.0  0.15410  0.12880  0.11250  1.0000 0.1194513597
C   C1        1.0  0.42018  0.79350  0.13835  1.0000 -0.0295043869
C   C2        1.0  0.57983  0.29350  0.36165  1.0000 -0.0295043869
C   C3        1.0  0.57983  0.20650  0.86165  1.0000 -0.0295043869
C   C4        1.0  0.42018  0.70650  0.63835  1.0000 -0.0295043869
C   C5        1.0  0.38215  0.75852  0.21293  1.0000 -0.0295043869
C   C6        1.0  0.61786  0.25852  0.28707  1.0000 -0.0295043869
C   C7        1.0  0.61786  0.24148  0.78707  1.0000 -0.0295043869
C   C8        1.0  0.38214  0.74148  0.71293  1.0000 -0.0295043869
C   C9        1.0  0.38020  0.71732  0.13404  1.0000 -0.0295043869
C   C10       1.0  0.61981  0.21732  0.36596  1.0000 -0.0295043869
C   C11       1.0  0.61980  0.28268  0.86596  1.0000 -0.0295043869
C   C12       1.0  0.38020  0.78268  0.63404  1.0000 -0.0295043869
C   C13       1.0  0.24072  0.80613  0.15456  1.0000 -0.0295043869
C   C14       1.0  0.75928  0.30613  0.34544  1.0000 -0.0295043869
C   C15       1.0  0.75928  0.19387  0.84544  1.0000 -0.0295043869
C   C16       1.0  0.24072  0.69387  0.65456  1.0000 -0.0295043869
C   C17       1.0  0.23903  0.76484  0.07592  1.0000 -0.0213215206
C   C18       1.0  0.76097  0.26484  0.42408  1.0000 -0.0213215206
C   C19       1.0  0.76097  0.23516  0.92408  1.0000 -0.0213215206
C   C20       1.0  0.23903  0.73516  0.57592  1.0000 -0.0213215206
C   C21       1.0  0.20414  0.73121  0.15038  1.0000 -0.0295043869
C   C22       1.0  0.79587  0.23121  0.34962  1.0000 -0.0295043869
C   C23       1.0  0.79587  0.26879  0.84962  1.0000 -0.0295043869
C   C24       1.0  0.20413  0.76879  0.65038  1.0000 -0.0295043869
C   C25       1.0  0.06333  0.68292  0.33110  1.0000 -0.0295043869
C   C26       1.0  0.93668  0.18292  0.16890  1.0000 -0.0295043869
C   C27       1.0  0.93668  0.31708  0.66890  1.0000 -0.0295043869
C   C28       1.0  0.06333  0.81708  0.83110  1.0000 -0.0295043869
C   C29       1.0  0.08728  0.75970  0.32785  1.0000 -0.0295043869
C   C30       1.0  0.91273  0.25970  0.17215  1.0000 -0.0295043869
C   C31       1.0  0.91273  0.24030  0.67215  1.0000 -0.0295043869
C   C32       1.0  0.08728  0.74030  0.82785  1.0000 -0.0295043869
C   C33       1.0  0.11310  0.71433  0.25775  1.0000 -0.0295043869
C   C34       1.0  0.88689  0.21433  0.24225  1.0000 -0.0295043869
C   C35       1.0  0.88689  0.28567  0.74225  1.0000 -0.0295043869
C   C36       1.0  0.11310  0.78567  0.75775  1.0000 -0.0295043869
C   C37       1.0  0.22833  0.71910  0.39597  1.0000 -0.0213215206
C   C38       1.0  0.77168  0.21910  0.10403  1.0000 -0.0213215206
C   C39       1.0  0.77168  0.28090  0.60403  1.0000 -0.0213215206
C   C40       1.0  0.22832  0.78090  0.89597  1.0000 -0.0213215206
C   C41       1.0  0.25518  0.67377  0.32654  1.0000 -0.0213215206
C   C42       1.0  0.74482  0.17377  0.17346  1.0000 -0.0213215206
C   C43       1.0  0.74482  0.32623  0.67346  1.0000 -0.0213215206
C   C44       1.0  0.25518  0.82623  0.82654  1.0000 -0.0213215206
C   C45       1.0  0.27568  0.74961  0.32294  1.0000 -0.0295043869
C   C46       1.0  0.72432  0.24961  0.17706  1.0000 -0.0295043869
C   C47       1.0  0.72432  0.25039  0.67706  1.0000 -0.0295043869
C   C48       1.0  0.27567  0.75039  0.82294  1.0000 -0.0295043869
C   C49       1.0  0.73110  0.74231  0.32659  1.0000 0.5870147459
C   C50       1.0  0.26891  0.24231  0.17341  1.0000 0.5870147459
C   C51       1.0  0.26890  0.25769  0.67341  1.0000 0.5870147459
C   C52       1.0  0.73109  0.75769  0.82659  1.0000 0.5870147459
C   C53       1.0  0.71808  0.74601  0.38120  1.0000 -0.0213215206
C   C54       1.0  0.28192  0.24601  0.11880  1.0000 -0.0213215206
C   C55       1.0  0.28192  0.25399  0.61880  1.0000 -0.0213215206
C   C56       1.0  0.71808  0.75399  0.88120  1.0000 -0.0213215206
C   C57       1.0  0.80844  0.76053  0.42578  1.0000 -0.1676198943
C   C58       1.0  0.19157  0.26053  0.07422  1.0000 -0.1676198943
C   C59       1.0  0.19156  0.23947  0.57422  1.0000 -0.1676198943
C   C60       1.0  0.80844  0.73947  0.92578  1.0000 -0.1676198943
C   C61       1.0  0.79553  0.76433  0.47755  1.0000 0.0809821608
C   C62       1.0  0.20447  0.26433  0.02245  1.0000 0.0809821608
C   C63       1.0  0.20446  0.23567  0.52245  1.0000 0.0809821608
C   C64       1.0  0.79553  0.73567  0.97755  1.0000 0.0809821608
C   C65       1.0  0.88701  0.77948  0.52421  1.0000 -0.1676198943
C   C66       1.0  0.11299  0.27948  0.97579  1.0000 -0.1676198943
C   C67       1.0  0.11299  0.22052  0.47579  1.0000 -0.1676198943
C   C68       1.0  0.88701  0.72052  0.02421  1.0000 -0.1676198943
C   C69       1.0  0.87267  0.78137  0.57375  1.0000 -0.131374646
C   C70       1.0  0.12732  0.28137  0.92625  1.0000 -0.131374646
C   C71       1.0  0.12732  0.21863  0.42625  1.0000 -0.131374646
C   C72       1.0  0.87267  0.71863  0.07375  1.0000 -0.131374646
C   C73       1.0  0.76561  0.76887  0.57901  1.0000 -0.0213215206
C   C74       1.0  0.23439  0.26887  0.92099  1.0000 -0.0213215206
C   C75       1.0  0.23440  0.23113  0.42099  1.0000 -0.0213215206
C   C76       1.0  0.76561  0.73113  0.07901  1.0000 -0.0213215206
C   C77       1.0  0.67509  0.75530  0.53417  1.0000 -0.1498169819
C   C78       1.0  0.32491  0.25530  0.96583  1.0000 -0.1498169819
C   C79       1.0  0.32491  0.24470  0.46583  1.0000 -0.1498169819
C   C80       1.0  0.67509  0.74470  0.03417  1.0000 -0.1498169819
C   C81       1.0  0.68736  0.75258  0.48228  1.0000 0.0809821608
C   C82       1.0  0.31265  0.25258  0.01772  1.0000 0.0809821608
C   C83       1.0  0.31264  0.24742  0.51772  1.0000 0.0809821608
C   C84       1.0  0.68736  0.74742  0.98228  1.0000 0.0809821608
C   C85       1.0  0.59598  0.73752  0.43581  1.0000 -0.1572156995
C   C86       1.0  0.40403  0.23752  0.06419  1.0000 -0.1572156995
C   C87       1.0  0.40403  0.26248  0.56419  1.0000 -0.1572156995
C   C88       1.0  0.59598  0.76248  0.93581  1.0000 -0.1572156995
C   C89       1.0  0.61054  0.73434  0.38644  1.0000 -0.131374646
C   C90       1.0  0.38947  0.23434  0.11356  1.0000 -0.131374646
C   C91       1.0  0.38947  0.26566  0.61356  1.0000 -0.131374646
C   C92       1.0  0.61054  0.76566  0.88644  1.0000 -0.131374646
C   C93       1.0  0.75437  0.76978  0.63450  1.0000 0.5870147459
C   C94       1.0  0.24563  0.26978  0.86550  1.0000 0.5870147459
C   C95       1.0  0.24563  0.23022  0.36550  1.0000 0.5870147459
C   C96       1.0  0.75437  0.73022  0.13450  1.0000 0.5870147459
C   C97       1.0  0.77509  0.81612  0.22504  1.0000 0.5839857012
C   C98       1.0  0.22492  0.31612  0.27496  1.0000 0.5839857012
C   C99       1.0  0.22492  0.18388  0.77496  1.0000 0.5839857012
C   C100      1.0  0.77509  0.68388  0.72504  1.0000 0.5839857012
C   C101      1.0  0.79264  0.86255  0.21510  1.0000 -0.0213215206
C   C102      1.0  0.20736  0.36255  0.28490  1.0000 -0.0213215206
C   C103      1.0  0.20736  0.13745  0.78490  1.0000 -0.0213215206
C   C104      1.0  0.79264  0.63745  0.71510  1.0000 -0.0213215206
C   C105      1.0  0.90590  0.87762  0.22095  1.0000 -0.131374646
C   C106      1.0  0.09409  0.37762  0.27905  1.0000 -0.131374646
C   C107      1.0  0.09410  0.12238  0.77905  1.0000 -0.131374646
C   C108      1.0  0.90590  0.62238  0.72095  1.0000 -0.131374646
C   C109      1.0  0.92195  0.91894  0.20815  1.0000 -0.1572156995
C   C110      1.0  0.07805  0.41894  0.29185  1.0000 -0.1572156995
C   C111      1.0  0.07805  0.08106  0.79185  1.0000 -0.1572156995
C   C112      1.0  0.92195  0.58106  0.70815  1.0000 -0.1572156995
C   C113      1.0  0.82617  0.94770  0.18893  1.0000 0.0809821608
C   C114      1.0  0.17383  0.44770  0.31107  1.0000 0.0809821608
C   C115      1.0  0.17383  0.05230  0.81107  1.0000 0.0809821608
C   C116      1.0  0.82617  0.55230  0.68893  1.0000 0.0809821608
C   C117      1.0  0.83928  0.99034  0.17394  1.0000 -0.1572156995
C   C118      1.0  0.16072  0.49034  0.32606  1.0000 -0.1572156995
C   C119      1.0  0.16071  0.00966  0.82606  1.0000 -0.1572156995
C   C120      1.0  0.83928  0.50966  0.67394  1.0000 -0.1572156995
C   C121      1.0  0.74462  0.01692  0.15391  1.0000 -0.011159005
C   C122      1.0  0.25538  0.51692  0.34609  1.0000 -0.011159005
C   C123      1.0  0.25538  0.98308  0.84609  1.0000 -0.011159005
C   C124      1.0  0.74462  0.48308  0.65391  1.0000 -0.011159005
C   C125      1.0  0.63194  0.00216  0.14867  1.0000 -0.1167623289
C   C126      1.0  0.36806  0.50216  0.35133  1.0000 -0.1167623289
C   C127      1.0  0.36806  0.99784  0.85133  1.0000 -0.1167623289
C   C128      1.0  0.63194  0.49784  0.64867  1.0000 -0.1167623289
C   C129      1.0  0.61637  0.96094  0.16287  1.0000 -0.1498169819
C   C130      1.0  0.38364  0.46094  0.33713  1.0000 -0.1425535857
C   C131      1.0  0.38363  0.03906  0.83713  1.0000 -0.1425535857
C   C132      1.0  0.61637  0.53906  0.66287  1.0000 -0.1498169819
C   C133      1.0  0.71273  0.93280  0.18342  1.0000 0.0809821608
C   C134      1.0  0.28726  0.43280  0.31658  1.0000 0.0809821608
C   C135      1.0  0.28726  0.06720  0.81658  1.0000 0.0809821608
C   C136      1.0  0.71273  0.56720  0.68342  1.0000 0.0809821608
C   C137      1.0  0.69866  0.88982  0.19737  1.0000 -0.1498169819
C   C138      1.0  0.30134  0.38982  0.30263  1.0000 -0.1498169819
C   C139      1.0  0.30134  0.11018  0.80263  1.0000 -0.1498169819
C   C140      1.0  0.69866  0.61018  0.69737  1.0000 -0.1498169819
C   C141      1.0  0.75926  0.06083  0.13406  1.0000 0.5444329604
C   C142      1.0  0.24074  0.56083  0.36594  1.0000 0.5444329604
C   C143      1.0  0.24074  0.93917  0.86594  1.0000 0.5444329604
C   C144      1.0  0.75926  0.43917  0.63406  1.0000 0.5444329604
C   C145      1.0  0.70376  0.65482  0.23706  1.0000 0.5870147459
C   C146      1.0  0.29624  0.15482  0.26294  1.0000 0.5870147459
C   C147      1.0  0.29624  0.34518  0.76294  1.0000 0.5870147459
C   C148      1.0  0.70376  0.84518  0.73706  1.0000 0.5870147459
C   C149      1.0  0.68858  0.60902  0.25066  1.0000 -0.0213215206
C   C150      1.0  0.31142  0.10902  0.24934  1.0000 -0.0213215206
C   C151      1.0  0.31142  0.39098  0.74934  1.0000 -0.0213215206
C   C152      1.0  0.68858  0.89098  0.75066  1.0000 -0.0213215206
C   C153      1.0  0.78268  0.58689  0.28537  1.0000 -0.1572156995
C   C154      1.0  0.21732  0.08689  0.21463  1.0000 -0.1572156995
C   C155      1.0  0.21732  0.41311  0.71463  1.0000 -0.1572156995
C   C156      1.0  0.78267  0.91311  0.78537  1.0000 -0.1572156995
C   C157      1.0  0.76934  0.54487  0.30240  1.0000 0.0809821608
C   C158      1.0  0.23065  0.04487  0.19760  1.0000 0.0809821608
C   C159      1.0  0.23065  0.45513  0.69760  1.0000 0.0809821608
C   C160      1.0  0.76934  0.95513  0.80240  1.0000 0.0809821608
C   C161      1.0  0.86416  0.52234  0.34033  1.0000 -0.1498169819
C   C162      1.0  0.13584  0.02234  0.15967  1.0000 -0.1498169819
C   C163      1.0  0.13583  0.47766  0.65967  1.0000 -0.1498169819
C   C164      1.0  0.86416  0.97766  0.84033  1.0000 -0.1498169819
C   C165      1.0  0.84730  0.48237  0.35803  1.0000 -0.1167623289
C   C166      1.0  0.15270  0.98237  0.14197  1.0000 -0.1167623289
C   C167      1.0  0.15270  0.51763  0.64197  1.0000 -0.1167623289
C   C168      1.0  0.84730  0.01763  0.85803  1.0000 -0.1167623289
C   C169      1.0  0.73635  0.46267  0.33830  1.0000 -0.011159005
C   C170      1.0  0.26365  0.96267  0.16170  1.0000 -0.011159005
C   C171      1.0  0.26365  0.53733  0.66170  1.0000 -0.011159005
C   C172      1.0  0.73635  0.03733  0.83830  1.0000 -0.011159005
C   C173      1.0  0.64453  0.48324  0.30023  1.0000 -0.1572156995
C   C174      1.0  0.35546  0.98324  0.19977  1.0000 -0.1572156995
C   C175      1.0  0.35547  0.51676  0.69977  1.0000 -0.1572156995
C   C176      1.0  0.64453  0.01676  0.80023  1.0000 -0.1572156995
C   C177      1.0  0.65754  0.52508  0.28210  1.0000 0.0809821608
C   C178      1.0  0.34246  0.02508  0.21790  1.0000 0.0809821608
C   C179      1.0  0.34245  0.47492  0.71790  1.0000 0.0809821608
C   C180      1.0  0.65754  0.97492  0.78210  1.0000 0.0809821608
C   C181      1.0  0.56224  0.54824  0.24517  1.0000 -0.1498169819
C   C182      1.0  0.43776  0.04824  0.25483  1.0000 -0.1498169819
C   C183      1.0  0.43776  0.45176  0.75483  1.0000 -0.1498169819
C   C184      1.0  0.56224  0.95176  0.74517  1.0000 -0.1498169819
C   C185      1.0  0.57722  0.58906  0.23015  1.0000 -0.131374646
C   C186      1.0  0.42278  0.08906  0.26985  1.0000 -0.131374646
C   C187      1.0  0.42278  0.41094  0.76985  1.0000 -0.131374646
C   C188      1.0  0.57722  0.91094  0.73015  1.0000 -0.131374646
C   C189      1.0  0.71559  0.42029  0.36102  1.0000 0.5497218296
C   C190      1.0  0.28441  0.92029  0.13898  1.0000 0.5497218296
C   C191      1.0  0.28441  0.57971  0.63898  1.0000 0.5497218296
C   C192      1.0  0.71558  0.07971  0.86102  1.0000 0.5497218296
C   C193      1.0  0.95492  0.35436  0.53037  1.0000 0.5870147459
C   C194      1.0  0.04508  0.85436  0.96963  1.0000 0.5870147459
C   C195      1.0  0.04508  0.64564  0.46963  1.0000 0.5870147459
C   C196      1.0  0.95492  0.14564  0.03037  1.0000 0.5870147459
C   C197      1.0  0.07636  0.35805  0.53028  1.0000 -0.0213215206
C   C198      1.0  0.92363  0.85805  0.96972  1.0000 -0.0213215206
C   C199      1.0  0.92363  0.64195  0.46972  1.0000 -0.0213215206
C   C200      1.0  0.07637  0.14195  0.03028  1.0000 -0.0213215206
C   C201      1.0  0.09721  0.35317  0.48254  1.0000 -0.1676198943
C   C202      1.0  0.90278  0.85317  0.01746  1.0000 -0.1676198943
C   C203      1.0  0.90278  0.64683  0.51746  1.0000 -0.1676198943
C   C204      1.0  0.09722  0.14683  0.98254  1.0000 -0.1676198943
C   C205      1.0  0.21185  0.35658  0.48147  1.0000 0.0809821608
C   C206      1.0  0.78815  0.85658  0.01853  1.0000 0.0809821608
C   C207      1.0  0.78815  0.64342  0.51853  1.0000 0.0809821608
C   C208      1.0  0.21185  0.14342  0.98147  1.0000 0.0809821608
C   C209      1.0  0.23561  0.35106  0.43273  1.0000 -0.1425535857
C   C210      1.0  0.76439  0.85106  0.06727  1.0000 -0.1425535857
C   C211      1.0  0.76439  0.64894  0.56727  1.0000 -0.1425535857
C   C212      1.0  0.23561  0.14894  0.93273  1.0000 -0.1425535857
C   C213      1.0  0.34796  0.35223  0.43362  1.0000 -0.1097664833
C   C214      1.0  0.65204  0.85223  0.06638  1.0000 -0.1097664833
C   C215      1.0  0.65204  0.64777  0.56638  1.0000 -0.1097664833
C   C216      1.0  0.34796  0.14777  0.93362  1.0000 -0.1097664833
C   C217      1.0  0.44162  0.35861  0.48358  1.0000 -0.0213215206
C   C218      1.0  0.55837  0.85861  0.01642  1.0000 -0.0213215206
C   C219      1.0  0.55837  0.64139  0.51642  1.0000 -0.0213215206
C   C220      1.0  0.44162  0.14139  0.98358  1.0000 -0.0213215206
C   C221      1.0  0.42090  0.36555  0.53121  1.0000 -0.1676198943
C   C222      1.0  0.57910  0.86555  0.96879  1.0000 -0.1676198943
C   C223      1.0  0.57910  0.63445  0.46879  1.0000 -0.1676198943
C   C224      1.0  0.42090  0.13445  0.03121  1.0000 -0.1676198943
C   C225      1.0  0.30529  0.36501  0.53127  1.0000 0.0809821608
C   C226      1.0  0.69471  0.86501  0.96873  1.0000 0.0809821608
C   C227      1.0  0.69471  0.63499  0.46873  1.0000 0.0809821608
C   C228      1.0  0.30528  0.13499  0.03127  1.0000 0.0809821608
C   C229      1.0  0.28086  0.37064  0.57991  1.0000 -0.1425535857
C   C230      1.0  0.71914  0.87064  0.92009  1.0000 -0.1425535857
C   C231      1.0  0.71914  0.62936  0.42009  1.0000 -0.1425535857
C   C232      1.0  0.28086  0.12936  0.07991  1.0000 -0.1425535857
C   C233      1.0  0.16937  0.36732  0.57972  1.0000 -0.1097664833
C   C234      1.0  0.83062  0.86732  0.92028  1.0000 -0.1097664833
C   C235      1.0  0.83062  0.63268  0.42028  1.0000 -0.1097664833
C   C236      1.0  0.16937  0.13268  0.07972  1.0000 -0.1097664833
C   C237      1.0  0.56432  0.35641  0.48480  1.0000 0.5839857012
C   C238      1.0  0.43568  0.85641  0.01520  1.0000 0.5839857012
C   C239      1.0  0.43568  0.64359  0.51520  1.0000 0.5839857012
C   C240      1.0  0.56432  0.14359  0.98480  1.0000 0.5839857012
N   N1        1.0  0.43954  0.75343  0.17118  1.0000 -0.1785644041
N   N2        1.0  0.56045  0.25343  0.32882  1.0000 -0.1785644041
N   N3        1.0  0.56046  0.24657  0.82882  1.0000 -0.1785644041
N   N4        1.0  0.43954  0.74657  0.67118  1.0000 -0.1785644041
N   N5        1.0  0.29373  0.80260  0.11098  1.0000 -0.1875803414
N   N6        1.0  0.70627  0.30260  0.38902  1.0000 -0.1875803414
N   N7        1.0  0.70627  0.19740  0.88902  1.0000 -0.1875803414
N   N8        1.0  0.29373  0.69740  0.61098  1.0000 -0.1875803414
N   N9        1.0  0.25539  0.72531  0.10770  1.0000 -0.1498169819
N   N10       1.0  0.74460  0.22531  0.39230  1.0000 -0.1498169819
N   N11       1.0  0.74460  0.27469  0.89230  1.0000 -0.1498169819
N   N12       1.0  0.25540  0.77469  0.60770  1.0000 -0.1498169819
N   N13       1.0  0.25721  0.76705  0.18687  1.0000 -0.1785644041
N   N14       1.0  0.74279  0.26705  0.31313  1.0000 -0.1785644041
N   N15       1.0  0.74279  0.23295  0.81313  1.0000 -0.1785644041
N   N16       1.0  0.25720  0.73295  0.68687  1.0000 -0.1785644041
N   N17       1.0  0.04251  0.72047  0.29377  1.0000 -0.1785644041
N   N18       1.0  0.95750  0.22047  0.20623  1.0000 -0.1785644041
N   N19       1.0  0.95749  0.27953  0.70623  1.0000 -0.1785644041
N   N20       1.0  0.04250  0.77953  0.79377  1.0000 -0.1785644041
N   N21       1.0  0.18890  0.67836  0.36462  1.0000 -0.1785644041
N   N22       1.0  0.81110  0.17836  0.13538  1.0000 -0.1785644041
N   N23       1.0  0.81110  0.32164  0.63538  1.0000 -0.1785644041
N   N24       1.0  0.18890  0.82164  0.86462  1.0000 -0.1785644041
N   N25       1.0  0.21077  0.75615  0.36012  1.0000 -0.1498169819
N   N26       1.0  0.78924  0.25615  0.13988  1.0000 -0.1498169819
N   N27       1.0  0.78924  0.24385  0.63988  1.0000 -0.1498169819
N   N28       1.0  0.21077  0.74385  0.86012  1.0000 -0.1498169819
N   N29       1.0  0.23744  0.71057  0.28976  1.0000 -0.1875803414
N   N30       1.0  0.76255  0.21057  0.21024  1.0000 -0.1875803414
N   N31       1.0  0.76255  0.28943  0.71024  1.0000 -0.1875803414
N   N32       1.0  0.23744  0.78943  0.78976  1.0000 -0.1875803414
O   O1        1.0  0.83200  0.74378  0.32403  1.0000 -0.5510642789
O   O2        1.0  0.16800  0.24378  0.17597  1.0000 -0.5510642789
O   O3        1.0  0.16800  0.25622  0.67597  1.0000 -0.5510642789
O   O4        1.0  0.83200  0.75622  0.82403  1.0000 -0.5510642789
O   O5        1.0  0.63716  0.73779  0.28632  1.0000 -0.5510642789
O   O6        1.0  0.36284  0.23779  0.21368  1.0000 -0.5510642789
O   O7        1.0  0.36284  0.26221  0.71368  1.0000 -0.5510642789
O   O8        1.0  0.63716  0.76221  0.78632  1.0000 -0.5510642789
O   O9        1.0  0.65726  0.75934  0.63765  1.0000 -0.5510642789
O   O10       1.0  0.34275  0.25934  0.86235  1.0000 -0.5510642789
O   O11       1.0  0.34274  0.24066  0.36235  1.0000 -0.5510642789
O   O12       1.0  0.65726  0.74066  0.13765  1.0000 -0.5510642789
O   O13       1.0  0.84374  0.78043  0.67381  1.0000 -0.5440257415
O   O14       1.0  0.15625  0.28043  0.82619  1.0000 -0.5440257415
O   O15       1.0  0.15626  0.21957  0.32619  1.0000 -0.5440257415
O   O16       1.0  0.84374  0.71957  0.17381  1.0000 -0.5440257415
O   O17       1.0  0.86477  0.79278  0.23855  1.0000 -0.5510642789
O   O18       1.0  0.13523  0.29278  0.26145  1.0000 -0.5510642789
O   O19       1.0  0.13524  0.20722  0.76145  1.0000 -0.5510642789
O   O20       1.0  0.86477  0.70722  0.73855  1.0000 -0.5510642789
O   O21       1.0  0.67324  0.80361  0.21808  1.0000 -0.5440257415
O   O22       1.0  0.32676  0.30361  0.28192  1.0000 -0.5440257415
O   O23       1.0  0.32675  0.19639  0.78192  1.0000 -0.5440257415
O   O24       1.0  0.67324  0.69639  0.71808  1.0000 -0.5440257415
O   O25       1.0  0.67173  0.08381  0.11171  1.0000 -0.5510642789
O   O26       1.0  0.32827  0.58381  0.38829  1.0000 -0.5510642789
O   O27       1.0  0.32827  0.91619  0.88829  1.0000 -0.5510642789
O   O28       1.0  0.67173  0.41619  0.61171  1.0000 -0.5510642789
O   O29       1.0  0.85986  0.07329  0.13756  1.0000 -0.5440257415
O   O30       1.0  0.14013  0.57329  0.36244  1.0000 -0.5440257415
O   O31       1.0  0.14014  0.92671  0.86244  1.0000 -0.5440257415
O   O32       1.0  0.85986  0.42671  0.63756  1.0000 -0.5440257415
O   O33       1.0  0.80493  0.67017  0.25823  1.0000 -0.5510642789
O   O34       1.0  0.19506  0.17017  0.24177  1.0000 -0.5510642789
O   O35       1.0  0.19506  0.32983  0.74177  1.0000 -0.5510642789
O   O36       1.0  0.80493  0.82983  0.75823  1.0000 -0.5510642789
O   O37       1.0  0.61533  0.67506  0.20685  1.0000 -0.5510642789
O   O38       1.0  0.38467  0.17506  0.29315  1.0000 -0.5510642789
O   O39       1.0  0.38467  0.32494  0.79315  1.0000 -0.5510642789
O   O40       1.0  0.61533  0.82494  0.70685  1.0000 -0.5510642789
O   O41       1.0  0.62194  0.40091  0.34044  1.0000 -0.5564732179
O   O42       1.0  0.37805  0.90091  0.15956  1.0000 -0.5564732179
O   O43       1.0  0.37805  0.59909  0.65956  1.0000 -0.5564732179
O   O44       1.0  0.62194  0.09909  0.84044  1.0000 -0.5564732179
O   O45       1.0  0.79829  0.40679  0.40329  1.0000 -0.5510642789
O   O46       1.0  0.20170  0.90679  0.09671  1.0000 -0.5510642789
O   O47       1.0  0.20171  0.59321  0.59671  1.0000 -0.5510642789
O   O48       1.0  0.79829  0.09321  0.90329  1.0000 -0.5510642789
O   O49       1.0  0.93849  0.36652  0.57274  1.0000 -0.5313986167
O   O50       1.0  0.06151  0.86652  0.92726  1.0000 -0.5313986167
O   O51       1.0  0.06151  0.63348  0.42726  1.0000 -0.5313986167
O   O52       1.0  0.93849  0.13348  0.07274  1.0000 -0.5313986167
O   O53       1.0  0.87701  0.33907  0.48867  1.0000 -0.5805405006
O   O54       1.0  0.12299  0.83907  0.01133  1.0000 -0.5805405006
O   O55       1.0  0.12299  0.66093  0.51133  1.0000 -0.5805405006
O   O56       1.0  0.87701  0.16093  0.98867  1.0000 -0.5805405006
O   O57       1.0  0.57922  0.36324  0.44016  1.0000 -0.5313986167
O   O58       1.0  0.42079  0.86324  0.05984  1.0000 -0.5313986167
O   O59       1.0  0.42079  0.63676  0.55984  1.0000 -0.5313986167
O   O60       1.0  0.57922  0.13676  0.94016  1.0000 -0.5313986167
O   O61       1.0  0.64343  0.34622  0.52865  1.0000 -0.5805405006
O   O62       1.0  0.35656  0.84622  0.97135  1.0000 -0.5805405006
O   O63       1.0  0.35656  0.65378  0.47135  1.0000 -0.5805405006
O   O64       1.0  0.64343  0.15378  0.02865  1.0000 -0.5805405006
