# DDEC6 charges by PACMAN v1.1 (https://github.com/mtap-research/PACMAN-charge/)
data_2011[Ni][uki]3[ASR]1
_chemical_formula_sum              "Ni8 H136 C120 N24 O24"
_cell_length_a       13.7495
_cell_length_b       13.7495
_cell_length_c       25.533
_cell_angle_alpha    90
_cell_angle_beta     90
_cell_angle_gamma    90

_symmetry_space_group_name_H-M    "P 1"
_symmetry_Int_Tables_number       1

loop_
  _symmetry_equiv_pos_as_xyz
  'x, y, z'

loop_
  _atom_site_type_symbol
  _atom_site_label
  _atom_site_symmetry_multiplicity
  _atom_site_fract_x
  _atom_site_fract_y
  _atom_site_fract_z
  _atom_site_occupancy
  _atom_site_charge
Ni  Ni1       1.0  0.90662  0.75094  0.97632  1.0000 0.6425091823
Ni  Ni2       1.0  0.75094  0.09338  0.02368  1.0000 0.6425091823
Ni  Ni3       1.0  0.09338  0.24906  0.97632  1.0000 0.6425091823
Ni  Ni4       1.0  0.24906  0.90662  0.02368  1.0000 0.6425091823
Ni  Ni5       1.0  0.59338  0.25094  0.47632  1.0000 0.6425091823
Ni  Ni6       1.0  0.25094  0.40662  0.52368  1.0000 0.6425091823
Ni  Ni7       1.0  0.40662  0.74906  0.47632  1.0000 0.6425091823
Ni  Ni8       1.0  0.74906  0.59338  0.52368  1.0000 0.6425091823
H   H1        1.0  0.79970  0.79270  0.05740  1.0000 0.2753369038
H   H2        1.0  0.79270  0.20030  0.94260  1.0000 0.2753369038
H   H3        1.0  0.20030  0.20730  0.05740  1.0000 0.2753369038
H   H4        1.0  0.20730  0.79970  0.94260  1.0000 0.2753369038
H   H5        1.0  0.70030  0.29270  0.55740  1.0000 0.2753369038
H   H6        1.0  0.29270  0.29970  0.44260  1.0000 0.2753369038
H   H7        1.0  0.29970  0.70730  0.55740  1.0000 0.2753369038
H   H8        1.0  0.70730  0.70030  0.44260  1.0000 0.2753369038
H   H9        1.0  0.96050  0.74610  0.09980  1.0000 0.0925561835
H   H10       1.0  0.74610  0.03950  0.90020  1.0000 0.0925561835
H   H11       1.0  0.03950  0.25390  0.09980  1.0000 0.0925561835
H   H12       1.0  0.25390  0.96050  0.90020  1.0000 0.0925561835
H   H13       1.0  0.53950  0.24610  0.59980  1.0000 0.0925561835
H   H14       1.0  0.24610  0.46050  0.40020  1.0000 0.0925561835
H   H15       1.0  0.46050  0.75390  0.59980  1.0000 0.0925561835
H   H16       1.0  0.75390  0.53950  0.40020  1.0000 0.0925561835
H   H17       1.0  0.86350  0.87210  0.13620  1.0000 0.1089388834
H   H18       1.0  0.87210  0.13650  0.86380  1.0000 0.1089388834
H   H19       1.0  0.13650  0.12790  0.13620  1.0000 0.1089388834
H   H20       1.0  0.12790  0.86350  0.86380  1.0000 0.1089388834
H   H21       1.0  0.63650  0.37210  0.63620  1.0000 0.1089388834
H   H22       1.0  0.37210  0.36350  0.36380  1.0000 0.1089388834
H   H23       1.0  0.36350  0.62790  0.63620  1.0000 0.1089388834
H   H24       1.0  0.62790  0.63650  0.36380  1.0000 0.1089388834
H   H25       1.0  0.97370  0.86840  0.15190  1.0000 0.1206381531
H   H26       1.0  0.86840  0.02630  0.84810  1.0000 0.1206381531
H   H27       1.0  0.02630  0.13160  0.15190  1.0000 0.1206381531
H   H28       1.0  0.13160  0.97370  0.84810  1.0000 0.1206381531
H   H29       1.0  0.52630  0.36840  0.65190  1.0000 0.1206381531
H   H30       1.0  0.36840  0.47370  0.34810  1.0000 0.1206381531
H   H31       1.0  0.47370  0.63160  0.65190  1.0000 0.1206381531
H   H32       1.0  0.63160  0.52630  0.34810  1.0000 0.1206381531
H   H33       1.0  0.93780  0.94360  0.11000  1.0000 0.140486609
H   H34       1.0  0.94360  0.06220  0.89000  1.0000 0.140486609
H   H35       1.0  0.06220  0.05640  0.11000  1.0000 0.140486609
H   H36       1.0  0.05640  0.93780  0.89000  1.0000 0.140486609
H   H37       1.0  0.56220  0.44360  0.61000  1.0000 0.140486609
H   H38       1.0  0.44360  0.43780  0.39000  1.0000 0.140486609
H   H39       1.0  0.43780  0.55640  0.61000  1.0000 0.140486609
H   H40       1.0  0.55640  0.56220  0.39000  1.0000 0.140486609
H   H41       1.0  0.07840  0.63450  0.94590  1.0000 0.1089388834
H   H42       1.0  0.63450  0.92160  0.05410  1.0000 0.1089388834
H   H43       1.0  0.92160  0.36550  0.94590  1.0000 0.1089388834
H   H44       1.0  0.36550  0.07840  0.05410  1.0000 0.1089388834
H   H45       1.0  0.42160  0.13450  0.44590  1.0000 0.1089388834
H   H46       1.0  0.13450  0.57840  0.55410  1.0000 0.1089388834
H   H47       1.0  0.57840  0.86550  0.44590  1.0000 0.1089388834
H   H48       1.0  0.86550  0.42160  0.55410  1.0000 0.1089388834
H   H49       1.0  0.14790  0.56480  0.87230  1.0000 0.140486609
H   H50       1.0  0.56480  0.85210  0.12770  1.0000 0.140486609
H   H51       1.0  0.85210  0.43520  0.87230  1.0000 0.140486609
H   H52       1.0  0.43520  0.14790  0.12770  1.0000 0.140486609
H   H53       1.0  0.35210  0.06480  0.37230  1.0000 0.140486609
H   H54       1.0  0.06480  0.64790  0.62770  1.0000 0.140486609
H   H55       1.0  0.64790  0.93520  0.37230  1.0000 0.140486609
H   H56       1.0  0.93520  0.35210  0.62770  1.0000 0.140486609
H   H57       1.0  0.94590  0.69560  0.78560  1.0000 0.1089388834
H   H58       1.0  0.69560  0.05410  0.21440  1.0000 0.1089388834
H   H59       1.0  0.05410  0.30440  0.78560  1.0000 0.1089388834
H   H60       1.0  0.30440  0.94590  0.21440  1.0000 0.1089388834
H   H61       1.0  0.55410  0.19560  0.28560  1.0000 0.1089388834
H   H62       1.0  0.19560  0.44590  0.71440  1.0000 0.1089388834
H   H63       1.0  0.44590  0.80440  0.28560  1.0000 0.1089388834
H   H64       1.0  0.80440  0.55410  0.71440  1.0000 0.1089388834
H   H65       1.0  0.87790  0.75740  0.86240  1.0000 0.1206381531
H   H66       1.0  0.75740  0.12210  0.13760  1.0000 0.1206381531
H   H67       1.0  0.12210  0.24260  0.86240  1.0000 0.1206381531
H   H68       1.0  0.24260  0.87790  0.13760  1.0000 0.1206381531
H   H69       1.0  0.62210  0.25740  0.36240  1.0000 0.1206381531
H   H70       1.0  0.25740  0.37790  0.63760  1.0000 0.1206381531
H   H71       1.0  0.37790  0.74260  0.36240  1.0000 0.1206381531
H   H72       1.0  0.74260  0.62210  0.63760  1.0000 0.1206381531
H   H73       1.0  0.14970  0.53460  0.77960  1.0000 0.2121423607
H   H74       1.0  0.53460  0.85030  0.22040  1.0000 0.2121423607
H   H75       1.0  0.85030  0.46540  0.77960  1.0000 0.2121423607
H   H76       1.0  0.46540  0.14970  0.22040  1.0000 0.2121423607
H   H77       1.0  0.35030  0.03460  0.27960  1.0000 0.2121423607
H   H78       1.0  0.03460  0.64970  0.72040  1.0000 0.2121423607
H   H79       1.0  0.64970  0.96540  0.27960  1.0000 0.2121423607
H   H80       1.0  0.96540  0.35030  0.72040  1.0000 0.2121423607
H   H81       1.0  0.83220  0.55660  0.95410  1.0000 0.0974774112
H   H82       1.0  0.55660  0.16780  0.04590  1.0000 0.0974774112
H   H83       1.0  0.16780  0.44340  0.95410  1.0000 0.0974774112
H   H84       1.0  0.44340  0.83220  0.04590  1.0000 0.0974774112
H   H85       1.0  0.66780  0.05660  0.45410  1.0000 0.0974774112
H   H86       1.0  0.05660  0.33220  0.54590  1.0000 0.0974774112
H   H87       1.0  0.33220  0.94340  0.45410  1.0000 0.0974774112
H   H88       1.0  0.94340  0.66780  0.54590  1.0000 0.0974774112
H   H89       1.0  0.68950  0.47420  0.93560  1.0000 0.1292864953
H   H90       1.0  0.47420  0.31050  0.06440  1.0000 0.1292864953
H   H91       1.0  0.31050  0.52580  0.93560  1.0000 0.1292864953
H   H92       1.0  0.52580  0.68950  0.06440  1.0000 0.1292864953
H   H93       1.0  0.81050  0.97420  0.43560  1.0000 0.1292864953
H   H94       1.0  0.97420  0.18950  0.56440  1.0000 0.1292864953
H   H95       1.0  0.18950  0.02580  0.43560  1.0000 0.1292864953
H   H96       1.0  0.02580  0.81050  0.56440  1.0000 0.1292864953
H   H97       1.0  0.55190  0.72990  0.94070  1.0000 0.140486609
H   H98       1.0  0.72990  0.44810  0.05930  1.0000 0.140486609
H   H99       1.0  0.44810  0.27010  0.94070  1.0000 0.140486609
H   H100      1.0  0.27010  0.55190  0.05930  1.0000 0.140486609
H   H101      1.0  0.94810  0.22990  0.44070  1.0000 0.140486609
H   H102      1.0  0.22990  0.05190  0.55930  1.0000 0.140486609
H   H103      1.0  0.05190  0.77010  0.44070  1.0000 0.140486609
H   H104      1.0  0.77010  0.94810  0.55930  1.0000 0.140486609
H   H105      1.0  0.69600  0.80320  0.95990  1.0000 0.1206381531
H   H106      1.0  0.80320  0.30400  0.04010  1.0000 0.1206381531
H   H107      1.0  0.30400  0.19680  0.95990  1.0000 0.1206381531
H   H108      1.0  0.19680  0.69600  0.04010  1.0000 0.1206381531
H   H109      1.0  0.80400  0.30320  0.45990  1.0000 0.1206381531
H   H110      1.0  0.30320  0.19600  0.54010  1.0000 0.1206381531
H   H111      1.0  0.19600  0.69680  0.45990  1.0000 0.1206381531
H   H112      1.0  0.69680  0.80400  0.54010  1.0000 0.1206381531
H   H113      1.0  0.45280  0.58570  0.92930  1.0000 0.1206381531
H   H114      1.0  0.58570  0.54720  0.07070  1.0000 0.1206381531
H   H115      1.0  0.54720  0.41430  0.92930  1.0000 0.1206381531
H   H116      1.0  0.41430  0.45280  0.07070  1.0000 0.1206381531
H   H117      1.0  0.04720  0.08570  0.42930  1.0000 0.1206381531
H   H118      1.0  0.08570  0.95280  0.57070  1.0000 0.1206381531
H   H119      1.0  0.95280  0.91430  0.42930  1.0000 0.1206381531
H   H120      1.0  0.91430  0.04720  0.57070  1.0000 0.1206381531
H   H121      1.0  0.13250  0.42290  0.81630  1.0000 0.256724668
H   H122      1.0  0.42290  0.86750  0.18370  1.0000 0.256724668
H   H123      1.0  0.86750  0.57710  0.81630  1.0000 0.256724668
H   H124      1.0  0.57710  0.13250  0.18370  1.0000 0.256724668
H   H125      1.0  0.36750  0.92290  0.31630  1.0000 0.256724668
H   H126      1.0  0.92290  0.63250  0.68370  1.0000 0.256724668
H   H127      1.0  0.63250  0.07710  0.31630  1.0000 0.256724668
H   H128      1.0  0.07710  0.36750  0.68370  1.0000 0.256724668
H   H129      1.0  0.05130  0.45320  0.78850  1.0000 0.1568798025
H   H130      1.0  0.45320  0.94870  0.21150  1.0000 0.1568798025
H   H131      1.0  0.94870  0.54680  0.78850  1.0000 0.1568798025
H   H132      1.0  0.54680  0.05130  0.21150  1.0000 0.1568798025
H   H133      1.0  0.44870  0.95320  0.28850  1.0000 0.1568798025
H   H134      1.0  0.95320  0.55130  0.71150  1.0000 0.1568798025
H   H135      1.0  0.55130  0.04680  0.28850  1.0000 0.1568798025
H   H136      1.0  0.04680  0.44870  0.71150  1.0000 0.1568798025
C   C1        1.0  0.03660  0.82780  0.04880  1.0000 0.5522046213
C   C2        1.0  0.82780  0.96340  0.95120  1.0000 0.5522046213
C   C3        1.0  0.96340  0.17220  0.04880  1.0000 0.5522046213
C   C4        1.0  0.17220  0.03660  0.95120  1.0000 0.5522046213
C   C5        1.0  0.46340  0.32780  0.54880  1.0000 0.5522046213
C   C6        1.0  0.32780  0.53660  0.45120  1.0000 0.5522046213
C   C7        1.0  0.53660  0.67220  0.54880  1.0000 0.5522046213
C   C8        1.0  0.67220  0.46340  0.45120  1.0000 0.5522046213
C   C9        1.0  0.94700  0.80750  0.08180  1.0000 0.0679960053
C   C10       1.0  0.80750  0.05300  0.91820  1.0000 0.0679960053
C   C11       1.0  0.05300  0.19250  0.08180  1.0000 0.0679960053
C   C12       1.0  0.19250  0.94700  0.91820  1.0000 0.0679960053
C   C13       1.0  0.55300  0.30750  0.58180  1.0000 0.0679960053
C   C14       1.0  0.30750  0.44700  0.41820  1.0000 0.0679960053
C   C15       1.0  0.44700  0.69250  0.58180  1.0000 0.0679960053
C   C16       1.0  0.69250  0.55300  0.41820  1.0000 0.0679960053
C   C17       1.0  0.92890  0.87910  0.12360  1.0000 -0.3895635243
C   C18       1.0  0.87910  0.07110  0.87640  1.0000 -0.3895635243
C   C19       1.0  0.07110  0.12090  0.12360  1.0000 -0.3895635243
C   C20       1.0  0.12090  0.92890  0.87640  1.0000 -0.3895635243
C   C21       1.0  0.57110  0.37910  0.62360  1.0000 -0.3895635243
C   C22       1.0  0.37910  0.42890  0.37640  1.0000 -0.3895635243
C   C23       1.0  0.42890  0.62090  0.62360  1.0000 -0.3895635243
C   C24       1.0  0.62090  0.57110  0.37640  1.0000 -0.3895635243
C   C25       1.0  0.05000  0.64550  0.91340  1.0000 0.0516125407
C   C26       1.0  0.64550  0.95000  0.08660  1.0000 0.0516125407
C   C27       1.0  0.95000  0.35450  0.91340  1.0000 0.0516125407
C   C28       1.0  0.35450  0.05000  0.08660  1.0000 0.0516125407
C   C29       1.0  0.45000  0.14550  0.41340  1.0000 0.0516125407
C   C30       1.0  0.14550  0.55000  0.58660  1.0000 0.0516125407
C   C31       1.0  0.55000  0.85450  0.41340  1.0000 0.0516125407
C   C32       1.0  0.85450  0.45000  0.58660  1.0000 0.0516125407
C   C33       1.0  0.09380  0.60490  0.86900  1.0000 -0.2511382081
C   C34       1.0  0.60490  0.90620  0.13100  1.0000 -0.2511382081
C   C35       1.0  0.90620  0.39510  0.86900  1.0000 -0.2511382081
C   C36       1.0  0.39510  0.09380  0.13100  1.0000 -0.2511382081
C   C37       1.0  0.40620  0.10490  0.36900  1.0000 -0.2511382081
C   C38       1.0  0.10490  0.59380  0.63100  1.0000 -0.2511382081
C   C39       1.0  0.59380  0.89510  0.36900  1.0000 -0.2511382081
C   C40       1.0  0.89510  0.40620  0.63100  1.0000 -0.2511382081
C   C41       1.0  0.05620  0.62460  0.82090  1.0000 0.0679960053
C   C42       1.0  0.62460  0.94380  0.17910  1.0000 0.0679960053
C   C43       1.0  0.94380  0.37540  0.82090  1.0000 0.0679960053
C   C44       1.0  0.37540  0.05620  0.17910  1.0000 0.0679960053
C   C45       1.0  0.44380  0.12460  0.32090  1.0000 0.0679960053
C   C46       1.0  0.12460  0.55620  0.67910  1.0000 0.0679960053
C   C47       1.0  0.55620  0.87540  0.32090  1.0000 0.0679960053
C   C48       1.0  0.87540  0.44380  0.67910  1.0000 0.0679960053
C   C49       1.0  0.97400  0.68160  0.81790  1.0000 -0.2511382081
C   C50       1.0  0.68160  0.02600  0.18210  1.0000 -0.2511382081
C   C51       1.0  0.02600  0.31840  0.81790  1.0000 -0.2511382081
C   C52       1.0  0.31840  0.97400  0.18210  1.0000 -0.2511382081
C   C53       1.0  0.52600  0.18160  0.31790  1.0000 -0.2511382081
C   C54       1.0  0.18160  0.47400  0.68210  1.0000 -0.2511382081
C   C55       1.0  0.47400  0.81840  0.31790  1.0000 -0.2511382081
C   C56       1.0  0.81840  0.52600  0.68210  1.0000 -0.2511382081
C   C57       1.0  0.93290  0.71830  0.86450  1.0000 0.0593564583
C   C58       1.0  0.71830  0.06710  0.13550  1.0000 0.0593564583
C   C59       1.0  0.06710  0.28170  0.86450  1.0000 0.0593564583
C   C60       1.0  0.28170  0.93290  0.13550  1.0000 0.0593564583
C   C61       1.0  0.56710  0.21830  0.36450  1.0000 0.0593564583
C   C62       1.0  0.21830  0.43290  0.63550  1.0000 0.0593564583
C   C63       1.0  0.43290  0.78170  0.36450  1.0000 0.0593564583
C   C64       1.0  0.78170  0.56710  0.63550  1.0000 0.0593564583
C   C65       1.0  0.10170  0.58120  0.77400  1.0000 -0.1071676274
C   C66       1.0  0.58120  0.89830  0.22600  1.0000 -0.1071676274
C   C67       1.0  0.89830  0.41880  0.77400  1.0000 -0.1071676274
C   C68       1.0  0.41880  0.10170  0.22600  1.0000 -0.1071676274
C   C69       1.0  0.39830  0.08120  0.27400  1.0000 -0.1071676274
C   C70       1.0  0.08120  0.60170  0.72600  1.0000 -0.1071676274
C   C71       1.0  0.60170  0.91880  0.27400  1.0000 -0.1071676274
C   C72       1.0  0.91880  0.39830  0.72600  1.0000 -0.1071676274
C   C73       1.0  0.77500  0.59250  0.95170  1.0000 0.0516125407
C   C74       1.0  0.59250  0.22500  0.04830  1.0000 0.0516125407
C   C75       1.0  0.22500  0.40750  0.95170  1.0000 0.0516125407
C   C76       1.0  0.40750  0.77500  0.04830  1.0000 0.0516125407
C   C77       1.0  0.72500  0.09250  0.45170  1.0000 0.0516125407
C   C78       1.0  0.09250  0.27500  0.54830  1.0000 0.0516125407
C   C79       1.0  0.27500  0.90750  0.45170  1.0000 0.0516125407
C   C80       1.0  0.90750  0.72500  0.54830  1.0000 0.0516125407
C   C81       1.0  0.68930  0.54120  0.94090  1.0000 -0.2274802725
C   C82       1.0  0.54120  0.31070  0.05910  1.0000 -0.2274802725
C   C83       1.0  0.31070  0.45880  0.94090  1.0000 -0.2274802725
C   C84       1.0  0.45880  0.68930  0.05910  1.0000 -0.2274802725
C   C85       1.0  0.81070  0.04120  0.44090  1.0000 -0.2274802725
C   C86       1.0  0.04120  0.18930  0.55910  1.0000 -0.2274802725
C   C87       1.0  0.18930  0.95880  0.44090  1.0000 -0.2274802725
C   C88       1.0  0.95880  0.81070  0.55910  1.0000 -0.2274802725
C   C89       1.0  0.60240  0.59610  0.93850  1.0000 0.140486609
C   C90       1.0  0.59610  0.39760  0.06150  1.0000 0.140486609
C   C91       1.0  0.39760  0.40390  0.93850  1.0000 0.140486609
C   C92       1.0  0.40390  0.60240  0.06150  1.0000 0.140486609
C   C93       1.0  0.89760  0.09610  0.43850  1.0000 0.140486609
C   C94       1.0  0.09610  0.10240  0.56150  1.0000 0.140486609
C   C95       1.0  0.10240  0.90390  0.43850  1.0000 0.140486609
C   C96       1.0  0.90390  0.89760  0.56150  1.0000 0.140486609
C   C97       1.0  0.60780  0.69220  0.94410  1.0000 -0.1892794042
C   C98       1.0  0.69220  0.39220  0.05590  1.0000 -0.1892794042
C   C99       1.0  0.39220  0.30780  0.94410  1.0000 -0.1892794042
C   C100      1.0  0.30780  0.60780  0.05590  1.0000 -0.1892794042
C   C101      1.0  0.89220  0.19220  0.44410  1.0000 -0.1892794042
C   C102      1.0  0.19220  0.10780  0.55590  1.0000 -0.1892794042
C   C103      1.0  0.10780  0.80780  0.44410  1.0000 -0.1892794042
C   C104      1.0  0.80780  0.89220  0.55590  1.0000 -0.1892794042
C   C105      1.0  0.69550  0.73620  0.95490  1.0000 0.0395665856
C   C106      1.0  0.73620  0.30450  0.04510  1.0000 0.0395665856
C   C107      1.0  0.30450  0.26380  0.95490  1.0000 0.0395665856
C   C108      1.0  0.26380  0.69550  0.04510  1.0000 0.0395665856
C   C109      1.0  0.80450  0.23620  0.45490  1.0000 0.0395665856
C   C110      1.0  0.23620  0.19550  0.54510  1.0000 0.0395665856
C   C111      1.0  0.19550  0.76380  0.45490  1.0000 0.0395665856
C   C112      1.0  0.76380  0.80450  0.54510  1.0000 0.0395665856
C   C113      1.0  0.50730  0.54620  0.93300  1.0000 -0.136999807
C   C114      1.0  0.54620  0.49270  0.06700  1.0000 -0.136999807
C   C115      1.0  0.49270  0.45380  0.93300  1.0000 -0.136999807
C   C116      1.0  0.45380  0.50730  0.06700  1.0000 -0.136999807
C   C117      1.0  0.99270  0.04620  0.43300  1.0000 -0.136999807
C   C118      1.0  0.04620  0.00730  0.56700  1.0000 -0.136999807
C   C119      1.0  0.00730  0.95380  0.43300  1.0000 -0.136999807
C   C120      1.0  0.95380  0.99270  0.56700  1.0000 -0.136999807
N   N1        1.0  0.86230  0.78760  0.04750  1.0000 -0.6955647791
N   N2        1.0  0.78760  0.13770  0.95250  1.0000 -0.6955647791
N   N3        1.0  0.13770  0.21240  0.04750  1.0000 -0.6955647791
N   N4        1.0  0.21240  0.86230  0.95250  1.0000 -0.6955647791
N   N5        1.0  0.63770  0.28760  0.54750  1.0000 -0.6955647791
N   N6        1.0  0.28760  0.36230  0.45250  1.0000 -0.6955647791
N   N7        1.0  0.36230  0.71240  0.54750  1.0000 -0.6955647791
N   N8        1.0  0.71240  0.63770  0.45250  1.0000 -0.6955647791
N   N9        1.0  0.97040  0.69870  0.91120  1.0000 -0.2215719639
N   N10       1.0  0.69870  0.02960  0.08880  1.0000 -0.2215719639
N   N11       1.0  0.02960  0.30130  0.91120  1.0000 -0.2215719639
N   N12       1.0  0.30130  0.97040  0.08880  1.0000 -0.2215719639
N   N13       1.0  0.52960  0.19870  0.41120  1.0000 -0.2215719639
N   N14       1.0  0.19870  0.47040  0.58880  1.0000 -0.2215719639
N   N15       1.0  0.47040  0.80130  0.41120  1.0000 -0.2215719639
N   N16       1.0  0.80130  0.52960  0.58880  1.0000 -0.2215719639
N   N17       1.0  0.78150  0.68740  0.95880  1.0000 -0.210397395
N   N18       1.0  0.68740  0.21850  0.04120  1.0000 -0.210397395
N   N19       1.0  0.21850  0.31260  0.95880  1.0000 -0.210397395
N   N20       1.0  0.31260  0.78150  0.04120  1.0000 -0.210397395
N   N21       1.0  0.71850  0.18740  0.45880  1.0000 -0.210397395
N   N22       1.0  0.18740  0.28150  0.54120  1.0000 -0.210397395
N   N23       1.0  0.28150  0.81260  0.45880  1.0000 -0.210397395
N   N24       1.0  0.81260  0.71850  0.54120  1.0000 -0.210397395
O   O1        1.0  0.03090  0.79820  0.00009  1.0000 -0.526262554
O   O2        1.0  0.79820  0.96910  0.99991  1.0000 -0.526262554
O   O3        1.0  0.96910  0.20180  0.00009  1.0000 -0.526262554
O   O4        1.0  0.20180  0.03090  0.99991  1.0000 -0.526262554
O   O5        1.0  0.46910  0.29820  0.50009  1.0000 -0.526262554
O   O6        1.0  0.29820  0.53090  0.49991  1.0000 -0.526262554
O   O7        1.0  0.53090  0.70180  0.50009  1.0000 -0.526262554
O   O8        1.0  0.70180  0.46910  0.49991  1.0000 -0.526262554
O   O9        1.0  0.10930  0.86350  0.06774  1.0000 -0.5241709377
O   O10       1.0  0.86350  0.89070  0.93226  1.0000 -0.5241709377
O   O11       1.0  0.89070  0.13650  0.06774  1.0000 -0.5241709377
O   O12       1.0  0.13650  0.10930  0.93226  1.0000 -0.5241709377
O   O13       1.0  0.39070  0.36350  0.56774  1.0000 -0.5241709377
O   O14       1.0  0.36350  0.60930  0.43226  1.0000 -0.5241709377
O   O15       1.0  0.60930  0.63650  0.56774  1.0000 -0.5241709377
O   O16       1.0  0.63650  0.39070  0.43226  1.0000 -0.5241709377
O   O17       1.0  0.09800  0.47200  0.80800  1.0000 -0.3952638681
O   O18       1.0  0.47200  0.90200  0.19200  1.0000 -0.3895635243
O   O19       1.0  0.90200  0.52800  0.80800  1.0000 -0.3952638681
O   O20       1.0  0.52800  0.09800  0.19200  1.0000 -0.3895635243
O   O21       1.0  0.40200  0.97200  0.30800  1.0000 -0.3952638681
O   O22       1.0  0.97200  0.59800  0.69200  1.0000 -0.3952638681
O   O23       1.0  0.59800  0.02800  0.30800  1.0000 -0.3952638681
O   O24       1.0  0.02800  0.40200  0.69200  1.0000 -0.3952638681
