# DDEC6 charges by PACMAN v1.1 (https://github.com/mtap-research/PACMAN-charge/)
data_2011[Zn][nan]3[ASR]1
_chemical_formula_sum              "Zn16 H192 C240 N32 O64"
_cell_length_a       12.3274
_cell_length_b       30.5413
_cell_length_c       26.0198
_cell_angle_alpha    90
_cell_angle_beta     109.73
_cell_angle_gamma    90

_symmetry_space_group_name_H-M    "P 1"
_symmetry_Int_Tables_number       1

loop_
  _symmetry_equiv_pos_as_xyz
  'x, y, z'

loop_
  _atom_site_type_symbol
  _atom_site_label
  _atom_site_symmetry_multiplicity
  _atom_site_fract_x
  _atom_site_fract_y
  _atom_site_fract_z
  _atom_site_occupancy
  _atom_site_charge
Zn  Zn1       1.0  0.37454  0.26574  0.79867  1.0000 0.8196700134
Zn  Zn2       1.0  0.62546  0.76574  0.70133  1.0000 0.8196700134
Zn  Zn3       1.0  0.62546  0.73426  0.20133  1.0000 0.8196700134
Zn  Zn4       1.0  0.37454  0.23426  0.29867  1.0000 0.8196700134
Zn  Zn5       1.0  0.12401  0.27439  0.75161  1.0000 0.8196700134
Zn  Zn6       1.0  0.87599  0.77439  0.74839  1.0000 0.8196700134
Zn  Zn7       1.0  0.87599  0.72561  0.24839  1.0000 0.8196700134
Zn  Zn8       1.0  0.12401  0.22561  0.25161  1.0000 0.8196700134
Zn  Zn9       1.0  0.72080  0.14734  0.93788  1.0000 0.8196700134
Zn  Zn10      1.0  0.27920  0.64734  0.56212  1.0000 0.8251541303
Zn  Zn11      1.0  0.27920  0.85266  0.06212  1.0000 0.8251541303
Zn  Zn12      1.0  0.72080  0.35266  0.43788  1.0000 0.8196700134
Zn  Zn13      1.0  0.22578  0.86963  0.91863  1.0000 0.8196700134
Zn  Zn14      1.0  0.77422  0.36963  0.58137  1.0000 0.8196700134
Zn  Zn15      1.0  0.77422  0.13037  0.08137  1.0000 0.8196700134
Zn  Zn16      1.0  0.22578  0.63037  0.41863  1.0000 0.8196700134
H   H1        1.0  0.54820  0.19230  0.83830  1.0000 0.1201703941
H   H2        1.0  0.45180  0.69230  0.66170  1.0000 0.1201703941
H   H3        1.0  0.45180  0.80770  0.16170  1.0000 0.1201703941
H   H4        1.0  0.54820  0.30770  0.33830  1.0000 0.1201703941
H   H5        1.0  0.52250  0.21180  0.89020  1.0000 0.1098890364
H   H6        1.0  0.47750  0.71180  0.60980  1.0000 0.1098890364
H   H7        1.0  0.47750  0.78820  0.10980  1.0000 0.1098890364
H   H8        1.0  0.52250  0.28820  0.39020  1.0000 0.1098890364
H   H9        1.0  0.61120  0.29320  0.78750  1.0000 0.1098890364
H   H10       1.0  0.38880  0.79320  0.71250  1.0000 0.1098890364
H   H11       1.0  0.38880  0.70680  0.21250  1.0000 0.1098890364
H   H12       1.0  0.61120  0.20680  0.28750  1.0000 0.1098890364
H   H13       1.0  0.60290  0.24150  0.77640  1.0000 0.1098890364
H   H14       1.0  0.39710  0.74150  0.72360  1.0000 0.1098890364
H   H15       1.0  0.39710  0.75850  0.22360  1.0000 0.1098890364
H   H16       1.0  0.60290  0.25850  0.27640  1.0000 0.1098890364
H   H17       1.0  0.53820  0.29060  0.90860  1.0000 0.1201703941
H   H18       1.0  0.46180  0.79060  0.59140  1.0000 0.1201703941
H   H19       1.0  0.46180  0.70940  0.09140  1.0000 0.1201703941
H   H20       1.0  0.53820  0.20940  0.40860  1.0000 0.1201703941
H   H21       1.0  0.57300  0.32300  0.86840  1.0000 0.1098890364
H   H22       1.0  0.42700  0.82300  0.63160  1.0000 0.1098890364
H   H23       1.0  0.42700  0.67700  0.13160  1.0000 0.1098890364
H   H24       1.0  0.57300  0.17700  0.36840  1.0000 0.1098890364
H   H25       1.0  0.74300  0.19320  0.83570  1.0000 0.1098890364
H   H26       1.0  0.25700  0.69320  0.66430  1.0000 0.1098890364
H   H27       1.0  0.25700  0.80680  0.16430  1.0000 0.1098890364
H   H28       1.0  0.74300  0.30680  0.33570  1.0000 0.1098890364
H   H29       1.0  0.84660  0.21200  0.88650  1.0000 0.1098890364
H   H30       1.0  0.15340  0.71200  0.61350  1.0000 0.1098890364
H   H31       1.0  0.15340  0.78800  0.11350  1.0000 0.1098890364
H   H32       1.0  0.84660  0.28800  0.38650  1.0000 0.1098890364
H   H33       1.0  0.80740  0.24230  0.96530  1.0000 0.1098890364
H   H34       1.0  0.19260  0.74230  0.53470  1.0000 0.1098890364
H   H35       1.0  0.19260  0.75770  0.03470  1.0000 0.1098890364
H   H36       1.0  0.80740  0.25770  0.46530  1.0000 0.1098890364
H   H37       1.0  0.67850  0.24220  0.96660  1.0000 0.1098890364
H   H38       1.0  0.32150  0.74220  0.53340  1.0000 0.1098890364
H   H39       1.0  0.32150  0.75780  0.03340  1.0000 0.1098890364
H   H40       1.0  0.67850  0.25780  0.46660  1.0000 0.1098890364
H   H41       1.0  0.76130  0.32230  0.86570  1.0000 0.1002553141
H   H42       1.0  0.23870  0.82230  0.63430  1.0000 0.1002553141
H   H43       1.0  0.23870  0.67770  0.13430  1.0000 0.1002553141
H   H44       1.0  0.76130  0.17770  0.36570  1.0000 0.1002553141
H   H45       1.0  0.85680  0.29060  0.90510  1.0000 0.1002553141
H   H46       1.0  0.14320  0.79060  0.59490  1.0000 0.1002553141
H   H47       1.0  0.14320  0.70940  0.09490  1.0000 0.1002553141
H   H48       1.0  0.85680  0.20940  0.40510  1.0000 0.1002553141
H   H49       1.0  0.97390  0.30980  0.64660  1.0000 0.1098890364
H   H50       1.0  0.02610  0.80980  0.85340  1.0000 0.1098890364
H   H51       1.0  0.02610  0.69020  0.35340  1.0000 0.1098890364
H   H52       1.0  0.97390  0.19020  0.14660  1.0000 0.1098890364
H   H53       1.0  0.94870  0.34130  0.69050  1.0000 0.1201703941
H   H54       1.0  0.05130  0.84130  0.80950  1.0000 0.1201703941
H   H55       1.0  0.05130  0.65870  0.30950  1.0000 0.1201703941
H   H56       1.0  0.94870  0.15870  0.19050  1.0000 0.1201703941
H   H57       1.0  0.92620  0.21070  0.70570  1.0000 0.1098890364
H   H58       1.0  0.07380  0.71070  0.79430  1.0000 0.1098890364
H   H59       1.0  0.07380  0.78930  0.29430  1.0000 0.1098890364
H   H60       1.0  0.92620  0.28930  0.20570  1.0000 0.1098890364
H   H61       1.0  0.96120  0.23000  0.65630  1.0000 0.1201703941
H   H62       1.0  0.03880  0.73000  0.84370  1.0000 0.1201703941
H   H63       1.0  0.03880  0.77000  0.34370  1.0000 0.1201703941
H   H64       1.0  0.96120  0.27000  0.15630  1.0000 0.1201703941
H   H65       1.0  0.89600  0.31080  0.76490  1.0000 0.1098890364
H   H66       1.0  0.10400  0.81080  0.73510  1.0000 0.1098890364
H   H67       1.0  0.10400  0.68920  0.23510  1.0000 0.1098890364
H   H68       1.0  0.89600  0.18920  0.26490  1.0000 0.1098890364
H   H69       1.0  0.88760  0.25880  0.77100  1.0000 0.1002553141
H   H70       1.0  0.11240  0.75880  0.72900  1.0000 0.1002553141
H   H71       1.0  0.11240  0.74120  0.22900  1.0000 0.1002553141
H   H72       1.0  0.88760  0.24120  0.27100  1.0000 0.1002553141
H   H73       1.0  0.82160  0.26790  0.58210  1.0000 0.1002553141
H   H74       1.0  0.17840  0.76790  0.91790  1.0000 0.1002553141
H   H75       1.0  0.17840  0.73210  0.41790  1.0000 0.1002553141
H   H76       1.0  0.82160  0.23210  0.08210  1.0000 0.1002553141
H   H77       1.0  0.69110  0.27250  0.58120  1.0000 0.1002553141
H   H78       1.0  0.30890  0.77250  0.91880  1.0000 0.1002553141
H   H79       1.0  0.30890  0.72750  0.41880  1.0000 0.1002553141
H   H80       1.0  0.69110  0.22750  0.08120  1.0000 0.1002553141
H   H81       1.0  0.65070  0.32170  0.64970  1.0000 0.1098890364
H   H82       1.0  0.34930  0.82170  0.85030  1.0000 0.1098890364
H   H83       1.0  0.34930  0.67830  0.35030  1.0000 0.1098890364
H   H84       1.0  0.65070  0.17830  0.14970  1.0000 0.1098890364
H   H85       1.0  0.75400  0.34820  0.69270  1.0000 0.1098890364
H   H86       1.0  0.24600  0.84820  0.80730  1.0000 0.1098890364
H   H87       1.0  0.24600  0.65180  0.30730  1.0000 0.1098890364
H   H88       1.0  0.75400  0.15180  0.19270  1.0000 0.1098890364
H   H89       1.0  0.64080  0.24310  0.65670  1.0000 0.1002553141
H   H90       1.0  0.35920  0.74310  0.84330  1.0000 0.1002553141
H   H91       1.0  0.35920  0.75690  0.34330  1.0000 0.1002553141
H   H92       1.0  0.64080  0.25690  0.15670  1.0000 0.1002553141
H   H93       1.0  0.73520  0.21820  0.70570  1.0000 0.1002553141
H   H94       1.0  0.26480  0.71820  0.79430  1.0000 0.1002553141
H   H95       1.0  0.26480  0.78180  0.29430  1.0000 0.1002553141
H   H96       1.0  0.73520  0.28180  0.20570  1.0000 0.1002553141
H   H97       1.0  0.10950  0.24800  0.58350  1.0000 0.1201703941
H   H98       1.0  0.89050  0.74800  0.91650  1.0000 0.1201703941
H   H99       1.0  0.89050  0.75200  0.41650  1.0000 0.1201703941
H   H100      1.0  0.10950  0.25200  0.08350  1.0000 0.1201703941
H   H101      1.0  0.02130  0.23360  0.48440  1.0000 0.1098890364
H   H102      1.0  0.97870  0.73360  0.01560  1.0000 0.1098890364
H   H103      1.0  0.97870  0.76640  0.51560  1.0000 0.1098890364
H   H104      1.0  0.02130  0.26640  0.98440  1.0000 0.1098890364
H   H105      1.0  0.03930  0.22600  0.40000  1.0000 0.1098890364
H   H106      1.0  0.96070  0.72600  0.10000  1.0000 0.1098890364
H   H107      1.0  0.96070  0.77400  0.60000  1.0000 0.1098890364
H   H108      1.0  0.03930  0.27400  0.90000  1.0000 0.1098890364
H   H109      1.0  0.38600  0.23950  0.46440  1.0000 0.1201703941
H   H110      1.0  0.61400  0.73950  0.03560  1.0000 0.1201703941
H   H111      1.0  0.61400  0.76050  0.53560  1.0000 0.1201703941
H   H112      1.0  0.38600  0.26050  0.96440  1.0000 0.1201703941
H   H113      1.0  0.47380  0.25300  0.56540  1.0000 0.1098890364
H   H114      1.0  0.52620  0.75300  0.93460  1.0000 0.1098890364
H   H115      1.0  0.52620  0.74700  0.43460  1.0000 0.1098890364
H   H116      1.0  0.47380  0.24700  0.06540  1.0000 0.1098890364
H   H117      1.0  0.45500  0.26570  0.64930  1.0000 0.1098890364
H   H118      1.0  0.54500  0.76570  0.85070  1.0000 0.1098890364
H   H119      1.0  0.54500  0.73430  0.35070  1.0000 0.1098890364
H   H120      1.0  0.45500  0.23430  0.14930  1.0000 0.1098890364
H   H121      1.0  0.03950  0.13930  0.76000  1.0000 0.1201703941
H   H122      1.0  0.96050  0.63930  0.74000  1.0000 0.1201703941
H   H123      1.0  0.96050  0.86070  0.24000  1.0000 0.1201703941
H   H124      1.0  0.03950  0.36070  0.26000  1.0000 0.1201703941
H   H125      1.0  0.01110  0.06730  0.77510  1.0000 0.1201703941
H   H126      1.0  0.98890  0.56730  0.72490  1.0000 0.1201703941
H   H127      1.0  0.98890  0.93270  0.22490  1.0000 0.1201703941
H   H128      1.0  0.01110  0.43270  0.27510  1.0000 0.1201703941
H   H129      1.0  0.09280  0.99450  0.81100  1.0000 0.1201703941
H   H130      1.0  0.90720  0.49450  0.68900  1.0000 0.1201703941
H   H131      1.0  0.90720  0.00550  0.18900  1.0000 0.1201703941
H   H132      1.0  0.09280  0.50550  0.31100  1.0000 0.1201703941
H   H133      1.0  0.43200  0.97810  0.87310  1.0000 0.1201703941
H   H134      1.0  0.56800  0.47810  0.62690  1.0000 0.1201703941
H   H135      1.0  0.56800  0.02190  0.12690  1.0000 0.1201703941
H   H136      1.0  0.43200  0.52190  0.37310  1.0000 0.1201703941
H   H137      1.0  0.46730  0.04970  0.85140  1.0000 0.1201703941
H   H138      1.0  0.53270  0.54970  0.64860  1.0000 0.1201703941
H   H139      1.0  0.53270  0.95030  0.14860  1.0000 0.1201703941
H   H140      1.0  0.46730  0.45030  0.35140  1.0000 0.1201703941
H   H141      1.0  0.38450  0.12300  0.81560  1.0000 0.1301985556
H   H142      1.0  0.61550  0.62300  0.68440  1.0000 0.1301985556
H   H143      1.0  0.61550  0.87700  0.18440  1.0000 0.1301985556
H   H144      1.0  0.38450  0.37700  0.31560  1.0000 0.1301985556
H   H145      1.0  0.12610  0.40820  0.69840  1.0000 0.1301985556
H   H146      1.0  0.87390  0.90820  0.80160  1.0000 0.1301985556
H   H147      1.0  0.87390  0.59180  0.30160  1.0000 0.1301985556
H   H148      1.0  0.12610  0.09180  0.19840  1.0000 0.1301985556
H   H149      1.0  0.05870  0.47440  0.63830  1.0000 0.1301985556
H   H150      1.0  0.94130  0.97440  0.86170  1.0000 0.1301985556
H   H151      1.0  0.94130  0.52560  0.36170  1.0000 0.1301985556
H   H152      1.0  0.05870  0.02560  0.13830  1.0000 0.1301985556
H   H153      1.0  0.09560  0.54300  0.61220  1.0000 0.1301985556
H   H154      1.0  0.90440  0.04300  0.88780  1.0000 0.1301985556
H   H155      1.0  0.90440  0.45700  0.38780  1.0000 0.1301985556
H   H156      1.0  0.09560  0.95700  0.11220  1.0000 0.1301985556
H   H157      1.0  0.42570  0.53760  0.71130  1.0000 0.1201703941
H   H158      1.0  0.57430  0.03760  0.78870  1.0000 0.1201703941
H   H159      1.0  0.57430  0.46240  0.28870  1.0000 0.1201703941
H   H160      1.0  0.42570  0.96240  0.21130  1.0000 0.1201703941
H   H161      1.0  0.49400  0.47040  0.76750  1.0000 0.1301985556
H   H162      1.0  0.50600  0.97040  0.73250  1.0000 0.1301985556
H   H163      1.0  0.50600  0.52960  0.23250  1.0000 0.1301985556
H   H164      1.0  0.49400  0.02960  0.26750  1.0000 0.1301985556
H   H165      1.0  0.46090  0.40160  0.79580  1.0000 0.1201703941
H   H166      1.0  0.53910  0.90160  0.70420  1.0000 0.1201703941
H   H167      1.0  0.53910  0.59840  0.20420  1.0000 0.1201703941
H   H168      1.0  0.46090  0.09840  0.29580  1.0000 0.1201703941
H   H169      1.0  0.02430  0.15350  0.94990  1.0000 0.1201703941
H   H170      1.0  0.97570  0.65350  0.55010  1.0000 0.1201703941
H   H171      1.0  0.97570  0.84650  0.05010  1.0000 0.1201703941
H   H172      1.0  0.02430  0.34650  0.44990  1.0000 0.1201703941
H   H173      1.0  0.16660  0.15650  0.90300  1.0000 0.1201703941
H   H174      1.0  0.83340  0.65650  0.59700  1.0000 0.1201703941
H   H175      1.0  0.83340  0.84350  0.09700  1.0000 0.1201703941
H   H176      1.0  0.16660  0.34350  0.40300  1.0000 0.1201703941
H   H177      1.0  0.35660  0.15400  0.90510  1.0000 0.1201703941
H   H178      1.0  0.64340  0.65400  0.59490  1.0000 0.1201703941
H   H179      1.0  0.64340  0.84600  0.09490  1.0000 0.1201703941
H   H180      1.0  0.35660  0.34600  0.40510  1.0000 0.1201703941
H   H181      1.0  0.47200  0.13570  0.06820  1.0000 0.1201703941
H   H182      1.0  0.52800  0.63570  0.43180  1.0000 0.1201703941
H   H183      1.0  0.52800  0.86430  0.93180  1.0000 0.1201703941
H   H184      1.0  0.47200  0.36430  0.56820  1.0000 0.1201703941
H   H185      1.0  0.32720  0.12900  0.11620  1.0000 0.1201703941
H   H186      1.0  0.67280  0.62900  0.38380  1.0000 0.1201703941
H   H187      1.0  0.67280  0.87100  0.88380  1.0000 0.1201703941
H   H188      1.0  0.32720  0.37100  0.61620  1.0000 0.1201703941
H   H189      1.0  0.13860  0.12930  0.11350  1.0000 0.1201703941
H   H190      1.0  0.86140  0.62930  0.38650  1.0000 0.1201703941
H   H191      1.0  0.86140  0.87070  0.88650  1.0000 0.1201703941
H   H192      1.0  0.13860  0.37070  0.61350  1.0000 0.1201703941
C   C1        1.0  0.57080  0.21530  0.86680  1.0000 -0.0373015954
C   C2        1.0  0.42920  0.71530  0.63320  1.0000 -0.0373015954
C   C3        1.0  0.42920  0.78470  0.13320  1.0000 -0.0373015954
C   C4        1.0  0.57080  0.28470  0.36680  1.0000 -0.0373015954
C   C5        1.0  0.62390  0.26410  0.80530  1.0000 -0.029200301
C   C6        1.0  0.37610  0.76410  0.69470  1.0000 -0.029200301
C   C7        1.0  0.37610  0.73590  0.19470  1.0000 -0.029200301
C   C8        1.0  0.62390  0.23590  0.30530  1.0000 -0.029200301
C   C9        1.0  0.58600  0.29350  0.88490  1.0000 -0.0373015954
C   C10       1.0  0.41400  0.79350  0.61510  1.0000 -0.0373015954
C   C11       1.0  0.41400  0.70650  0.11510  1.0000 -0.0373015954
C   C12       1.0  0.58600  0.20650  0.38490  1.0000 -0.0373015954
C   C13       1.0  0.76400  0.21580  0.86460  1.0000 -0.029200301
C   C14       1.0  0.23600  0.71580  0.63540  1.0000 -0.029200301
C   C15       1.0  0.23600  0.78420  0.13540  1.0000 -0.029200301
C   C16       1.0  0.76400  0.28420  0.36460  1.0000 -0.029200301
C   C17       1.0  0.72530  0.24530  0.94250  1.0000 -0.029200301
C   C18       1.0  0.27470  0.74530  0.55750  1.0000 -0.029200301
C   C19       1.0  0.27470  0.75470  0.05750  1.0000 -0.029200301
C   C20       1.0  0.72530  0.25470  0.44250  1.0000 -0.029200301
C   C21       1.0  0.77410  0.29290  0.88270  1.0000 -0.029200301
C   C22       1.0  0.22590  0.79290  0.61730  1.0000 -0.029200301
C   C23       1.0  0.22590  0.70710  0.11730  1.0000 -0.029200301
C   C24       1.0  0.77410  0.20710  0.38270  1.0000 -0.029200301
C   C25       1.0  0.92640  0.31340  0.67030  1.0000 -0.0373015954
C   C26       1.0  0.07360  0.81340  0.82970  1.0000 -0.0373015954
C   C27       1.0  0.07360  0.68660  0.32970  1.0000 -0.0373015954
C   C28       1.0  0.92640  0.18660  0.17030  1.0000 -0.0373015954
C   C29       1.0  0.91320  0.23520  0.67950  1.0000 -0.029200301
C   C30       1.0  0.08680  0.73520  0.82050  1.0000 -0.029200301
C   C31       1.0  0.08680  0.76480  0.32050  1.0000 -0.029200301
C   C32       1.0  0.91320  0.26480  0.17950  1.0000 -0.029200301
C   C33       1.0  0.87450  0.28300  0.74430  1.0000 -0.029200301
C   C34       1.0  0.12550  0.78300  0.75570  1.0000 -0.029200301
C   C35       1.0  0.12550  0.71700  0.25570  1.0000 -0.029200301
C   C36       1.0  0.87450  0.21700  0.24430  1.0000 -0.029200301
C   C37       1.0  0.77300  0.27210  0.60520  1.0000 -0.029200301
C   C38       1.0  0.22700  0.77210  0.89480  1.0000 -0.029200301
C   C39       1.0  0.22700  0.72790  0.39480  1.0000 -0.029200301
C   C40       1.0  0.77300  0.22790  0.10520  1.0000 -0.029200301
C   C41       1.0  0.73340  0.32040  0.67230  1.0000 -0.029200301
C   C42       1.0  0.26660  0.82040  0.82770  1.0000 -0.029200301
C   C43       1.0  0.26660  0.67960  0.32770  1.0000 -0.029200301
C   C44       1.0  0.73340  0.17960  0.17230  1.0000 -0.029200301
C   C45       1.0  0.72320  0.24280  0.67970  1.0000 -0.029200301
C   C46       1.0  0.27680  0.74280  0.82030  1.0000 -0.029200301
C   C47       1.0  0.27680  0.75720  0.32030  1.0000 -0.029200301
C   C48       1.0  0.72320  0.25720  0.17970  1.0000 -0.029200301
C   C49       1.0  0.26970  0.26220  0.68020  1.0000 0.5811886476
C   C50       1.0  0.73030  0.76220  0.81980  1.0000 0.5811886476
C   C51       1.0  0.73030  0.73780  0.31980  1.0000 0.5811886476
C   C52       1.0  0.26970  0.23780  0.18020  1.0000 0.5811886476
C   C53       1.0  0.28040  0.25580  0.62480  1.0000 -0.0171591586
C   C54       1.0  0.71960  0.75580  0.87520  1.0000 -0.0171591586
C   C55       1.0  0.71960  0.74420  0.37520  1.0000 -0.0171591586
C   C56       1.0  0.28040  0.24420  0.12480  1.0000 -0.0171591586
C   C57       1.0  0.18320  0.24860  0.57940  1.0000 -0.1603962092
C   C58       1.0  0.81680  0.74860  0.92060  1.0000 -0.1603962092
C   C59       1.0  0.81680  0.75140  0.42060  1.0000 -0.1603962092
C   C60       1.0  0.18320  0.25140  0.07940  1.0000 -0.1603962092
C   C61       1.0  0.19170  0.24240  0.52840  1.0000 0.0794591878
C   C62       1.0  0.80830  0.74240  0.97160  1.0000 0.0794591878
C   C63       1.0  0.80830  0.75760  0.47160  1.0000 0.0794591878
C   C64       1.0  0.19170  0.25760  0.02840  1.0000 0.0794591878
C   C65       1.0  0.09570  0.23520  0.48120  1.0000 -0.1603962092
C   C66       1.0  0.90430  0.73520  0.01880  1.0000 -0.1603962092
C   C67       1.0  0.90430  0.76480  0.51880  1.0000 -0.1603962092
C   C68       1.0  0.09570  0.26480  0.98120  1.0000 -0.1603962092
C   C69       1.0  0.10610  0.23030  0.43120  1.0000 -0.1390366545
C   C70       1.0  0.89390  0.73030  0.06880  1.0000 -0.1390366545
C   C71       1.0  0.89390  0.76970  0.56880  1.0000 -0.1390366545
C   C72       1.0  0.10610  0.26970  0.93120  1.0000 -0.1390366545
C   C73       1.0  0.21550  0.23170  0.42550  1.0000 -0.0105415965
C   C74       1.0  0.78450  0.73170  0.07450  1.0000 -0.0105415965
C   C75       1.0  0.78450  0.76830  0.57450  1.0000 -0.0105415965
C   C76       1.0  0.21550  0.26830  0.92550  1.0000 -0.0105415965
C   C77       1.0  0.31280  0.23830  0.46900  1.0000 -0.1713470108
C   C78       1.0  0.68720  0.73830  0.03100  1.0000 -0.1603962092
C   C79       1.0  0.68720  0.76170  0.53100  1.0000 -0.1603962092
C   C80       1.0  0.31280  0.26170  0.96900  1.0000 -0.1603962092
C   C81       1.0  0.30290  0.24380  0.52290  1.0000 0.0861898813
C   C82       1.0  0.69710  0.74380  0.97710  1.0000 0.0861898813
C   C83       1.0  0.69710  0.75620  0.47710  1.0000 0.0861898813
C   C84       1.0  0.30290  0.25620  0.02290  1.0000 0.0861898813
C   C85       1.0  0.39960  0.25210  0.56890  1.0000 -0.1603962092
C   C86       1.0  0.60040  0.75210  0.93110  1.0000 -0.1603962092
C   C87       1.0  0.60040  0.74790  0.43110  1.0000 -0.1603962092
C   C88       1.0  0.39960  0.24790  0.06890  1.0000 -0.1603962092
C   C89       1.0  0.38900  0.25890  0.61870  1.0000 -0.1313510547
C   C90       1.0  0.61100  0.75890  0.88130  1.0000 -0.1313510547
C   C91       1.0  0.61100  0.74110  0.38130  1.0000 -0.1313510547
C   C92       1.0  0.38900  0.24110  0.11870  1.0000 -0.1313510547
C   C93       1.0  0.22590  0.22720  0.36930  1.0000 0.5811886476
C   C94       1.0  0.77410  0.72720  0.13070  1.0000 0.5811886476
C   C95       1.0  0.77410  0.77280  0.63070  1.0000 0.5811886476
C   C96       1.0  0.22590  0.27280  0.86930  1.0000 0.5811886476
C   C97       1.0  0.22980  0.18640  0.78110  1.0000 0.5861319946
C   C98       1.0  0.77020  0.68640  0.71890  1.0000 0.5861319946
C   C99       1.0  0.77020  0.81360  0.21890  1.0000 0.5861319946
C   C100      1.0  0.22980  0.31360  0.28110  1.0000 0.5861319946
C   C101      1.0  0.21610  0.13830  0.78720  1.0000 -0.029200301
C   C102      1.0  0.78390  0.63830  0.71280  1.0000 -0.029200301
C   C103      1.0  0.78390  0.86170  0.21280  1.0000 -0.029200301
C   C104      1.0  0.21610  0.36170  0.28720  1.0000 -0.029200301
C   C105      1.0  0.10430  0.12070  0.77490  1.0000 -0.1313510547
C   C106      1.0  0.89570  0.62070  0.72510  1.0000 -0.1313510547
C   C107      1.0  0.89570  0.87930  0.22510  1.0000 -0.1313510547
C   C108      1.0  0.10430  0.37930  0.27490  1.0000 -0.1313510547
C   C109      1.0  0.08740  0.07820  0.78400  1.0000 -0.1516577957
C   C110      1.0  0.91260  0.57820  0.71600  1.0000 -0.1516577957
C   C111      1.0  0.91260  0.92180  0.21600  1.0000 -0.1516577957
C   C112      1.0  0.08740  0.42180  0.28400  1.0000 -0.1516577957
C   C113      1.0  0.18220  0.04970  0.80670  1.0000 0.0861898813
C   C114      1.0  0.81780  0.54970  0.69330  1.0000 0.0861898813
C   C115      1.0  0.81780  0.95030  0.19330  1.0000 0.0794591878
C   C116      1.0  0.18220  0.45030  0.30670  1.0000 0.0861898813
C   C117      1.0  0.16840  0.00610  0.81950  1.0000 -0.1713470108
C   C118      1.0  0.83160  0.50610  0.68050  1.0000 -0.1713470108
C   C119      1.0  0.83160  0.99390  0.18050  1.0000 -0.1713470108
C   C120      1.0  0.16840  0.49390  0.31950  1.0000 -0.1713470108
C   C121      1.0  0.26140  0.97970  0.84390  1.0000 -0.0024049093
C   C122      1.0  0.73860  0.47970  0.65610  1.0000 -0.0024049093
C   C123      1.0  0.73860  0.02030  0.15610  1.0000 -0.0024049093
C   C124      1.0  0.26140  0.52030  0.34390  1.0000 -0.0024049093
C   C125      1.0  0.36810  0.99660  0.85570  1.0000 -0.1152106403
C   C126      1.0  0.63190  0.49660  0.64430  1.0000 -0.1152106403
C   C127      1.0  0.63190  0.00340  0.14430  1.0000 -0.1152106403
C   C128      1.0  0.36810  0.50340  0.35570  1.0000 -0.1152106403
C   C129      1.0  0.39050  0.03970  0.84390  1.0000 -0.1516577957
C   C130      1.0  0.60950  0.53970  0.65610  1.0000 -0.1516577957
C   C131      1.0  0.60950  0.96030  0.15610  1.0000 -0.1516577957
C   C132      1.0  0.39050  0.46030  0.34390  1.0000 -0.1516577957
C   C133      1.0  0.29540  0.06800  0.82040  1.0000 0.0794591878
C   C134      1.0  0.70460  0.56800  0.67960  1.0000 0.0794591878
C   C135      1.0  0.70460  0.93200  0.17960  1.0000 0.0794591878
C   C136      1.0  0.29540  0.43200  0.32040  1.0000 0.0794591878
C   C137      1.0  0.30910  0.11170  0.80860  1.0000 -0.1390366545
C   C138      1.0  0.69090  0.61170  0.69140  1.0000 -0.1390366545
C   C139      1.0  0.69090  0.88830  0.19140  1.0000 -0.1390366545
C   C140      1.0  0.30910  0.38830  0.30860  1.0000 -0.1390366545
C   C141      1.0  0.23990  0.93410  0.86110  1.0000 0.5422045337
C   C142      1.0  0.76010  0.43410  0.63890  1.0000 0.5422045337
C   C143      1.0  0.76010  0.06590  0.13890  1.0000 0.5422045337
C   C144      1.0  0.23990  0.56590  0.36110  1.0000 0.5422045337
C   C145      1.0  0.27230  0.35180  0.76500  1.0000 0.5811886476
C   C146      1.0  0.72770  0.85180  0.73500  1.0000 0.5811886476
C   C147      1.0  0.72770  0.64820  0.23500  1.0000 0.5811886476
C   C148      1.0  0.27230  0.14820  0.26500  1.0000 0.5811886476
C   C149      1.0  0.28980  0.39830  0.74850  1.0000 -0.0105415965
C   C150      1.0  0.71020  0.89830  0.75150  1.0000 -0.0105415965
C   C151      1.0  0.71020  0.60170  0.25150  1.0000 -0.0105415965
C   C152      1.0  0.28980  0.10170  0.24850  1.0000 -0.0105415965
C   C153      1.0  0.20060  0.42110  0.71220  1.0000 -0.1603962092
C   C154      1.0  0.79940  0.92110  0.78780  1.0000 -0.1603962092
C   C155      1.0  0.79940  0.57890  0.28780  1.0000 -0.1603962092
C   C156      1.0  0.20060  0.07890  0.21220  1.0000 -0.1603962092
C   C157      1.0  0.21840  0.46300  0.69530  1.0000 0.0794591878
C   C158      1.0  0.78160  0.96300  0.80470  1.0000 0.0794591878
C   C159      1.0  0.78160  0.53700  0.30470  1.0000 0.0794591878
C   C160      1.0  0.21840  0.03700  0.19530  1.0000 0.0794591878
C   C161      1.0  0.13300  0.48690  0.65470  1.0000 -0.1516577957
C   C162      1.0  0.86700  0.98690  0.84530  1.0000 -0.1516577957
C   C163      1.0  0.86700  0.51310  0.34530  1.0000 -0.1516577957
C   C164      1.0  0.13300  0.01310  0.15470  1.0000 -0.1516577957
C   C165      1.0  0.15540  0.52740  0.63870  1.0000 -0.1101743106
C   C166      1.0  0.84460  0.02740  0.86130  1.0000 -0.104888293
C   C167      1.0  0.84460  0.47260  0.36130  1.0000 -0.1101743106
C   C168      1.0  0.15540  0.97260  0.13870  1.0000 -0.1101743106
C   C169      1.0  0.26320  0.54610  0.66020  1.0000 -0.0024049093
C   C170      1.0  0.73680  0.04610  0.83980  1.0000 -0.0024049093
C   C171      1.0  0.73680  0.45390  0.33980  1.0000 -0.0024049093
C   C172      1.0  0.26320  0.95390  0.16020  1.0000 -0.0024049093
C   C173      1.0  0.35130  0.52480  0.69760  1.0000 -0.1603962092
C   C174      1.0  0.64870  0.02480  0.80240  1.0000 -0.1603962092
C   C175      1.0  0.64870  0.47520  0.30240  1.0000 -0.1603962092
C   C176      1.0  0.35130  0.97520  0.19760  1.0000 -0.1603962092
C   C177      1.0  0.32990  0.48230  0.71600  1.0000 0.0794591878
C   C178      1.0  0.67010  0.98230  0.78400  1.0000 0.0794591878
C   C179      1.0  0.67010  0.51770  0.28400  1.0000 0.0794591878
C   C180      1.0  0.32990  0.01770  0.21600  1.0000 0.0794591878
C   C181      1.0  0.41900  0.45810  0.75340  1.0000 -0.1516577957
C   C182      1.0  0.58100  0.95810  0.74660  1.0000 -0.1516577957
C   C183      1.0  0.58100  0.54190  0.24660  1.0000 -0.1516577957
C   C184      1.0  0.41900  0.04190  0.25340  1.0000 -0.1516577957
C   C185      1.0  0.40000  0.41720  0.77000  1.0000 -0.1313510547
C   C186      1.0  0.60000  0.91720  0.73000  1.0000 -0.1313510547
C   C187      1.0  0.60000  0.58280  0.23000  1.0000 -0.1313510547
C   C188      1.0  0.40000  0.08280  0.27000  1.0000 -0.1313510547
C   C189      1.0  0.29670  0.59060  0.63940  1.0000 0.5422045337
C   C190      1.0  0.70330  0.09060  0.86060  1.0000 0.5422045337
C   C191      1.0  0.70330  0.40940  0.36060  1.0000 0.5422045337
C   C192      1.0  0.29670  0.90940  0.13940  1.0000 0.5422045337
C   C193      1.0  0.94350  0.14730  0.03170  1.0000 0.5811886476
C   C194      1.0  0.05650  0.64730  0.46830  1.0000 0.5811886476
C   C195      1.0  0.05650  0.85270  0.96830  1.0000 0.5811886476
C   C196      1.0  0.94350  0.35270  0.53170  1.0000 0.5811886476
C   C197      1.0  0.06340  0.14330  0.03020  1.0000 -0.029200301
C   C198      1.0  0.93660  0.64330  0.46980  1.0000 -0.029200301
C   C199      1.0  0.93660  0.85670  0.96980  1.0000 -0.029200301
C   C200      1.0  0.06340  0.35670  0.53020  1.0000 -0.029200301
C   C201      1.0  0.08560  0.14820  0.98300  1.0000 -0.1516577957
C   C202      1.0  0.91440  0.64820  0.51700  1.0000 -0.1516577957
C   C203      1.0  0.91440  0.85180  0.01700  1.0000 -0.1516577957
C   C204      1.0  0.08560  0.35180  0.48300  1.0000 -0.1516577957
C   C205      1.0  0.20580  0.14540  0.98310  1.0000 0.0794591878
C   C206      1.0  0.79420  0.64540  0.51690  1.0000 0.0794591878
C   C207      1.0  0.79420  0.85460  0.01690  1.0000 0.0794591878
C   C208      1.0  0.20580  0.35460  0.48310  1.0000 0.0794591878
C   C209      1.0  0.22770  0.15160  0.93640  1.0000 -0.1313510547
C   C210      1.0  0.77230  0.65160  0.56360  1.0000 -0.1313510547
C   C211      1.0  0.77230  0.84840  0.06360  1.0000 -0.1313510547
C   C212      1.0  0.22770  0.34840  0.43640  1.0000 -0.1313510547
C   C213      1.0  0.34000  0.15080  0.93800  1.0000 -0.1101743106
C   C214      1.0  0.66000  0.65080  0.56200  1.0000 -0.1101743106
C   C215      1.0  0.66000  0.84920  0.06200  1.0000 -0.1101743106
C   C216      1.0  0.34000  0.34920  0.43800  1.0000 -0.1101743106
C   C217      1.0  0.43360  0.14510  0.98930  1.0000 -0.0373015954
C   C218      1.0  0.56640  0.64510  0.51070  1.0000 -0.0373015954
C   C219      1.0  0.56640  0.85490  0.01070  1.0000 -0.0373015954
C   C220      1.0  0.43360  0.35490  0.48930  1.0000 -0.0373015954
C   C221      1.0  0.41040  0.13930  0.03470  1.0000 -0.1313510547
C   C222      1.0  0.58960  0.63930  0.46530  1.0000 -0.1313510547
C   C223      1.0  0.58960  0.86070  0.96530  1.0000 -0.1313510547
C   C224      1.0  0.41040  0.36070  0.53470  1.0000 -0.1313510547
C   C225      1.0  0.28830  0.13840  0.03450  1.0000 0.0794591878
C   C226      1.0  0.71170  0.63840  0.46550  1.0000 0.0794591878
C   C227      1.0  0.71170  0.86160  0.96550  1.0000 0.0794591878
C   C228      1.0  0.28830  0.36160  0.53450  1.0000 0.0794591878
C   C229      1.0  0.26600  0.13330  0.08260  1.0000 -0.1390366545
C   C230      1.0  0.73400  0.63330  0.41740  1.0000 -0.1390366545
C   C231      1.0  0.73400  0.86670  0.91740  1.0000 -0.1390366545
C   C232      1.0  0.26600  0.36670  0.58260  1.0000 -0.1390366545
C   C233      1.0  0.15600  0.13440  0.08110  1.0000 -0.1101743106
C   C234      1.0  0.84400  0.63440  0.41890  1.0000 -0.1101743106
C   C235      1.0  0.84400  0.86560  0.91890  1.0000 -0.1101743106
C   C236      1.0  0.15600  0.36560  0.58110  1.0000 -0.1101743106
C   C237      1.0  0.55250  0.14830  0.98890  1.0000 0.5811886476
C   C238      1.0  0.44750  0.64830  0.51110  1.0000 0.5811886476
C   C239      1.0  0.44750  0.85170  0.01110  1.0000 0.5811886476
C   C240      1.0  0.55250  0.35170  0.48890  1.0000 0.5811886476
N   N1        1.0  0.54920  0.25940  0.84030  1.0000 -0.1713470108
N   N2        1.0  0.45080  0.75940  0.65970  1.0000 -0.1713470108
N   N3        1.0  0.45080  0.74060  0.15970  1.0000 -0.1713470108
N   N4        1.0  0.54920  0.24060  0.34030  1.0000 -0.1713470108
N   N5        1.0  0.69390  0.20960  0.90050  1.0000 -0.190661684
N   N6        1.0  0.30610  0.70960  0.59950  1.0000 -0.190661684
N   N7        1.0  0.30610  0.79040  0.09950  1.0000 -0.190661684
N   N8        1.0  0.69390  0.29040  0.40050  1.0000 -0.190661684
N   N9        1.0  0.74700  0.25930  0.83920  1.0000 -0.190661684
N   N10       1.0  0.25300  0.75930  0.66080  1.0000 -0.190661684
N   N11       1.0  0.25300  0.74070  0.16080  1.0000 -0.190661684
N   N12       1.0  0.74700  0.24070  0.33920  1.0000 -0.190661684
N   N13       1.0  0.70650  0.28880  0.91780  1.0000 -0.1313510547
N   N14       1.0  0.29350  0.78880  0.58220  1.0000 -0.1313510547
N   N15       1.0  0.29350  0.71120  0.08220  1.0000 -0.1313510547
N   N16       1.0  0.70650  0.21120  0.41780  1.0000 -0.1313510547
N   N17       1.0  0.94890  0.27650  0.70960  1.0000 -0.1839300869
N   N18       1.0  0.05110  0.77650  0.79040  1.0000 -0.1839300869
N   N19       1.0  0.05110  0.72350  0.29040  1.0000 -0.1839300869
N   N20       1.0  0.94890  0.22350  0.20960  1.0000 -0.1839300869
N   N21       1.0  0.80360  0.31510  0.63630  1.0000 -0.190661684
N   N22       1.0  0.19640  0.81510  0.86370  1.0000 -0.190661684
N   N23       1.0  0.19640  0.68490  0.36370  1.0000 -0.190661684
N   N24       1.0  0.80360  0.18490  0.13630  1.0000 -0.190661684
N   N25       1.0  0.79290  0.23610  0.64550  1.0000 -0.1390366545
N   N26       1.0  0.20710  0.73610  0.85450  1.0000 -0.1390366545
N   N27       1.0  0.20710  0.76390  0.35450  1.0000 -0.1390366545
N   N28       1.0  0.79290  0.26390  0.14550  1.0000 -0.1390366545
N   N29       1.0  0.75200  0.28440  0.71050  1.0000 -0.1839300869
N   N30       1.0  0.24800  0.78440  0.78950  1.0000 -0.1839300869
N   N31       1.0  0.24800  0.71560  0.28950  1.0000 -0.1839300869
N   N32       1.0  0.75200  0.21560  0.21050  1.0000 -0.1839300869
O   O1        1.0  0.17020  0.26160  0.68370  1.0000 -0.5498055062
O   O2        1.0  0.82980  0.76160  0.81630  1.0000 -0.5498055062
O   O3        1.0  0.82980  0.73840  0.31630  1.0000 -0.5498055062
O   O4        1.0  0.17020  0.23840  0.18370  1.0000 -0.5498055062
O   O5        1.0  0.36290  0.26760  0.71990  1.0000 -0.5498055062
O   O6        1.0  0.63710  0.76760  0.78010  1.0000 -0.5498055062
O   O7        1.0  0.63710  0.73240  0.28010  1.0000 -0.5498055062
O   O8        1.0  0.36290  0.23240  0.21990  1.0000 -0.5498055062
O   O9        1.0  0.32350  0.23500  0.36490  1.0000 -0.5602551056
O   O10       1.0  0.67650  0.73500  0.13510  1.0000 -0.5602551056
O   O11       1.0  0.67650  0.76500  0.63510  1.0000 -0.5602551056
O   O12       1.0  0.32350  0.26500  0.86490  1.0000 -0.5602551056
O   O13       1.0  0.13810  0.21600  0.33110  1.0000 -0.5298892809
O   O14       1.0  0.86190  0.71600  0.16890  1.0000 -0.5298892809
O   O15       1.0  0.86190  0.78400  0.66890  1.0000 -0.5298892809
O   O16       1.0  0.13810  0.28400  0.83110  1.0000 -0.5298892809
O   O17       1.0  0.13940  0.20980  0.76800  1.0000 -0.5602551056
O   O18       1.0  0.86060  0.70980  0.73200  1.0000 -0.5602551056
O   O19       1.0  0.86060  0.79020  0.23200  1.0000 -0.5602551056
O   O20       1.0  0.13940  0.29020  0.26800  1.0000 -0.5602551056
O   O21       1.0  0.32970  0.20075  0.78890  1.0000 -0.5376452956
O   O22       1.0  0.67030  0.70075  0.71110  1.0000 -0.5376452956
O   O23       1.0  0.67030  0.79925  0.21110  1.0000 -0.5376452956
O   O24       1.0  0.32970  0.29925  0.28890  1.0000 -0.5376452956
O   O25       1.0  0.32770  0.91260  0.88710  1.0000 -0.5498055062
O   O26       1.0  0.67230  0.41260  0.61290  1.0000 -0.5498055062
O   O27       1.0  0.67230  0.08740  0.11290  1.0000 -0.5498055062
O   O28       1.0  0.32770  0.58740  0.38710  1.0000 -0.5498055062
O   O29       1.0  0.14130  0.91940  0.84640  1.0000 -0.5298892809
O   O30       1.0  0.85870  0.41940  0.65360  1.0000 -0.5298892809
O   O31       1.0  0.85870  0.08060  0.15360  1.0000 -0.5298892809
O   O32       1.0  0.14130  0.58060  0.34640  1.0000 -0.5298892809
O   O33       1.0  0.17150  0.33700  0.74580  1.0000 -0.5376452956
O   O34       1.0  0.82850  0.83700  0.75420  1.0000 -0.5376452956
O   O35       1.0  0.82850  0.66300  0.25420  1.0000 -0.5376452956
O   O36       1.0  0.17150  0.16300  0.24580  1.0000 -0.5376452956
O   O37       1.0  0.35840  0.33230  0.79550  1.0000 -0.5376452956
O   O38       1.0  0.64160  0.83230  0.70450  1.0000 -0.5376452956
O   O39       1.0  0.64160  0.66770  0.20450  1.0000 -0.5376452956
O   O40       1.0  0.35840  0.16770  0.29550  1.0000 -0.5376452956
O   O41       1.0  0.38430  0.60880  0.66320  1.0000 -0.5107254191
O   O42       1.0  0.61570  0.10880  0.83680  1.0000 -0.5107254191
O   O43       1.0  0.61570  0.39120  0.33680  1.0000 -0.5107254191
O   O44       1.0  0.38430  0.89120  0.16320  1.0000 -0.5107254191
O   O45       1.0  0.21850  0.60310  0.59600  1.0000 -0.5498055062
O   O46       1.0  0.78150  0.10310  0.90400  1.0000 -0.5498055062
O   O47       1.0  0.78150  0.39690  0.40400  1.0000 -0.5498055062
O   O48       1.0  0.21850  0.89690  0.09600  1.0000 -0.5498055062
O   O49       1.0  0.92850  0.13300  0.07350  1.0000 -0.5107254191
O   O50       1.0  0.07150  0.63300  0.42650  1.0000 -0.5107254191
O   O51       1.0  0.07150  0.86700  0.92650  1.0000 -0.5107254191
O   O52       1.0  0.92850  0.36700  0.57350  1.0000 -0.5107254191
O   O53       1.0  0.86790  0.16600  0.99260  1.0000 -0.5856365515
O   O54       1.0  0.13210  0.66600  0.50740  1.0000 -0.5856365515
O   O55       1.0  0.13210  0.83400  0.00740  1.0000 -0.5856365515
O   O56       1.0  0.86790  0.33400  0.49260  1.0000 -0.5856365515
O   O57       1.0  0.56690  0.14120  0.94370  1.0000 -0.5298892809
O   O58       1.0  0.43310  0.64120  0.55630  1.0000 -0.5298892809
O   O59       1.0  0.43310  0.85880  0.05630  1.0000 -0.5298892809
O   O60       1.0  0.56690  0.35880  0.44370  1.0000 -0.5298892809
O   O61       1.0  0.63280  0.15920  0.03120  1.0000 -0.5719962968
O   O62       1.0  0.36720  0.65920  0.46880  1.0000 -0.5719962968
O   O63       1.0  0.36720  0.84080  0.96880  1.0000 -0.5719962968
O   O64       1.0  0.63280  0.34080  0.53120  1.0000 -0.5719962968
