# DDEC6 charges by PACMAN v1.1 (https://github.com/mtap-research/PACMAN-charge/)
data_2011[Eu][nan]3[ASR]1
_chemical_formula_sum              "Eu8 H16 C56 N16 O48"
_cell_length_a       10.943
_cell_length_b       11.828
_cell_length_c       19.261
_cell_angle_alpha    90
_cell_angle_beta     90
_cell_angle_gamma    90

_symmetry_space_group_name_H-M    "P 1"
_symmetry_Int_Tables_number       1

loop_
  _symmetry_equiv_pos_as_xyz
  'x, y, z'

loop_
  _atom_site_type_symbol
  _atom_site_label
  _atom_site_symmetry_multiplicity
  _atom_site_fract_x
  _atom_site_fract_y
  _atom_site_fract_z
  _atom_site_occupancy
  _atom_site_charge
Eu  Eu1       1.0  0.13755  0.15751  0.89699  1.0000 1.9316542286
Eu  Eu2       1.0  0.86245  0.84249  0.39699  1.0000 1.9316542286
Eu  Eu3       1.0  0.63755  0.34249  0.39699  1.0000 1.9316542286
Eu  Eu4       1.0  0.36245  0.65751  0.89699  1.0000 1.9316542286
Eu  Eu5       1.0  0.61894  0.97153  0.68254  1.0000 1.9789171356
Eu  Eu6       1.0  0.38106  0.02847  0.18254  1.0000 1.9789171356
Eu  Eu7       1.0  0.11894  0.52847  0.18254  1.0000 1.9789171356
Eu  Eu8       1.0  0.88106  0.47153  0.68254  1.0000 1.9789171356
H   H1        1.0  0.35440  0.00550  0.79230  1.0000 0.111320785
H   H2        1.0  0.64560  0.99450  0.29230  1.0000 0.111320785
H   H3        1.0  0.85440  0.49450  0.29230  1.0000 0.111320785
H   H4        1.0  0.14560  0.50550  0.79230  1.0000 0.111320785
H   H5        1.0  0.22950  0.24990  0.62750  1.0000 0.1695883395
H   H6        1.0  0.77050  0.75010  0.12750  1.0000 0.1695883395
H   H7        1.0  0.72950  0.25010  0.12750  1.0000 0.1695883395
H   H8        1.0  0.27050  0.74990  0.62750  1.0000 0.1695883395
H   H9        1.0  0.87040  0.10150  0.78330  1.0000 0.111320785
H   H10       1.0  0.12960  0.89850  0.28330  1.0000 0.111320785
H   H11       1.0  0.37040  0.39850  0.28330  1.0000 0.111320785
H   H12       1.0  0.62960  0.60150  0.78330  1.0000 0.111320785
H   H13       1.0  0.00640  0.74110  0.79710  1.0000 0.1514902215
H   H14       1.0  0.99360  0.25890  0.29710  1.0000 0.1514902215
H   H15       1.0  0.50640  0.75890  0.29710  1.0000 0.1514902215
H   H16       1.0  0.49360  0.24110  0.79710  1.0000 0.1514902215
C   C1        1.0  0.33130  0.05840  0.75910  1.0000 0.2619062763
C   C2        1.0  0.66870  0.94160  0.25910  1.0000 0.2619062763
C   C3        1.0  0.83130  0.44160  0.25910  1.0000 0.2619062763
C   C4        1.0  0.16870  0.55840  0.75910  1.0000 0.2619062763
C   C5        1.0  0.36440  0.14210  0.65600  1.0000 0.1642372448
C   C6        1.0  0.63560  0.85790  0.15600  1.0000 0.1642372448
C   C7        1.0  0.86440  0.35790  0.15600  1.0000 0.1695883395
C   C8        1.0  0.13560  0.64210  0.65600  1.0000 0.1642372448
C   C9        1.0  0.25730  0.20310  0.66290  1.0000 -0.1609744739
C   C10       1.0  0.74270  0.79690  0.16290  1.0000 -0.1609744739
C   C11       1.0  0.75730  0.29690  0.16290  1.0000 -0.1609744739
C   C12       1.0  0.24270  0.70310  0.66290  1.0000 -0.1609744739
C   C13       1.0  0.19420  0.19220  0.72320  1.0000 0.1440214205
C   C14       1.0  0.80580  0.80780  0.22320  1.0000 0.1440214205
C   C15       1.0  0.69420  0.30780  0.22320  1.0000 0.1440214205
C   C16       1.0  0.30580  0.69220  0.72320  1.0000 0.1440214205
C   C17       1.0  0.08650  0.26730  0.74120  1.0000 0.5866615016
C   C18       1.0  0.91350  0.73270  0.24120  1.0000 0.5866615016
C   C19       1.0  0.58650  0.23270  0.24120  1.0000 0.5866615016
C   C20       1.0  0.41350  0.76730  0.74120  1.0000 0.5866615016
C   C21       1.0  0.44850  0.16000  0.59380  1.0000 0.5499059398
C   C22       1.0  0.55150  0.84000  0.09380  1.0000 0.5499059398
C   C23       1.0  0.94850  0.34000  0.09380  1.0000 0.5499059398
C   C24       1.0  0.05150  0.66000  0.59380  1.0000 0.5499059398
C   C25       1.0  0.89830  0.02740  0.78590  1.0000 0.2619062763
C   C26       1.0  0.10170  0.97260  0.28590  1.0000 0.2619062763
C   C27       1.0  0.39830  0.47260  0.28590  1.0000 0.2619062763
C   C28       1.0  0.60170  0.52740  0.78590  1.0000 0.2619062763
C   C29       1.0  0.87340  0.84380  0.75780  1.0000 0.1695883395
C   C30       1.0  0.12660  0.15620  0.25780  1.0000 0.1695883395
C   C31       1.0  0.37340  0.65620  0.25780  1.0000 0.1695883395
C   C32       1.0  0.62660  0.34380  0.75780  1.0000 0.1695883395
C   C33       1.0  0.97920  0.81540  0.79370  1.0000 -0.1662969898
C   C34       1.0  0.02080  0.18460  0.29370  1.0000 -0.1662969898
C   C35       1.0  0.47920  0.68460  0.29370  1.0000 -0.1662969898
C   C36       1.0  0.52080  0.31540  0.79370  1.0000 -0.1662969898
C   C37       1.0  0.04050  0.90270  0.82370  1.0000 0.1514902215
C   C38       1.0  0.95950  0.09730  0.32370  1.0000 0.1514902215
C   C39       1.0  0.54050  0.59730  0.32370  1.0000 0.1514902215
C   C40       1.0  0.45950  0.40270  0.82370  1.0000 0.1514902215
C   C41       1.0  0.16030  0.88400  0.86240  1.0000 0.5982714284
C   C42       1.0  0.83970  0.11600  0.36240  1.0000 0.5982714284
C   C43       1.0  0.66030  0.61600  0.36240  1.0000 0.5982714284
C   C44       1.0  0.33970  0.38400  0.86240  1.0000 0.5982714284
C   C45       1.0  0.79620  0.75080  0.72260  1.0000 0.5982714284
C   C46       1.0  0.20380  0.24920  0.22260  1.0000 0.5982714284
C   C47       1.0  0.29620  0.74920  0.22260  1.0000 0.5982714284
C   C48       1.0  0.70380  0.25080  0.72260  1.0000 0.5982714284
C   C49       1.0  0.67720  0.87950  0.52690  1.0000 0.5075814712
C   C50       1.0  0.32280  0.12050  0.02690  1.0000 0.5075814712
C   C51       1.0  0.17720  0.62050  0.02690  1.0000 0.5075814712
C   C52       1.0  0.82280  0.37950  0.52690  1.0000 0.5075814712
C   C53       1.0  0.79890  0.93180  0.55140  1.0000 0.5233118374
C   C54       1.0  0.20110  0.06820  0.05140  1.0000 0.5233118374
C   C55       1.0  0.29890  0.56820  0.05140  1.0000 0.5233118374
C   C56       1.0  0.70110  0.43180  0.55140  1.0000 0.5233118374
N   N1        1.0  0.23010  0.11610  0.77170  1.0000 -0.3718057957
N   N2        1.0  0.76990  0.88390  0.27170  1.0000 -0.3718057957
N   N3        1.0  0.73010  0.38390  0.27170  1.0000 -0.3718057957
N   N4        1.0  0.26990  0.61610  0.77170  1.0000 -0.3718057957
N   N5        1.0  0.40260  0.06840  0.70430  1.0000 -0.3950890463
N   N6        1.0  0.59740  0.93160  0.20430  1.0000 -0.3950890463
N   N7        1.0  0.90260  0.43160  0.20430  1.0000 -0.3945841652
N   N8        1.0  0.09740  0.56840  0.70430  1.0000 -0.3950890463
N   N9        1.0  0.00110  0.00930  0.82270  1.0000 -0.3811218899
N   N10       1.0  0.99890  0.99070  0.32270  1.0000 -0.3811218899
N   N11       1.0  0.50110  0.49070  0.32270  1.0000 -0.3811218899
N   N12       1.0  0.49890  0.50930  0.82270  1.0000 -0.3811218899
N   N13       1.0  0.83250  0.94890  0.75270  1.0000 -0.3556308311
N   N14       1.0  0.16750  0.05110  0.25270  1.0000 -0.3556308311
N   N15       1.0  0.33250  0.55110  0.25270  1.0000 -0.3556308311
N   N16       1.0  0.66750  0.44890  0.75270  1.0000 -0.3556308311
O   O1        1.0  0.04560  0.25950  0.80160  1.0000 -0.6507055473
O   O2        1.0  0.95440  0.74050  0.30160  1.0000 -0.6507055473
O   O3        1.0  0.54560  0.24050  0.30160  1.0000 -0.6507055473
O   O4        1.0  0.45440  0.75950  0.80160  1.0000 -0.6507055473
O   O5        1.0  0.04920  0.33333  0.69500  1.0000 -0.6000421357
O   O6        1.0  0.95080  0.66667  0.19500  1.0000 -0.6000421357
O   O7        1.0  0.54920  0.16667  0.19500  1.0000 -0.6000421357
O   O8        1.0  0.45080  0.83333  0.69500  1.0000 -0.6000421357
O   O9        1.0  0.54610  0.10350  0.59300  1.0000 -0.6093747379
O   O10       1.0  0.45390  0.89650  0.09300  1.0000 -0.6093747379
O   O11       1.0  0.04610  0.39650  0.09300  1.0000 -0.6093747379
O   O12       1.0  0.95390  0.60350  0.59300  1.0000 -0.6093747379
O   O13       1.0  0.41460  0.23080  0.55060  1.0000 -0.5022158113
O   O14       1.0  0.58540  0.76920  0.05060  1.0000 -0.5022158113
O   O15       1.0  0.91460  0.26920  0.05060  1.0000 -0.5022158113
O   O16       1.0  0.08540  0.73080  0.55060  1.0000 -0.5022158113
O   O17       1.0  0.20500  0.96470  0.89570  1.0000 -0.6093747379
O   O18       1.0  0.79500  0.03530  0.39570  1.0000 -0.6093747379
O   O19       1.0  0.70500  0.53530  0.39570  1.0000 -0.6093747379
O   O20       1.0  0.29500  0.46470  0.89570  1.0000 -0.6093747379
O   O21       1.0  0.20750  0.78830  0.85420  1.0000 -0.6093747379
O   O22       1.0  0.79250  0.21170  0.35420  1.0000 -0.6093747379
O   O23       1.0  0.70750  0.71170  0.35420  1.0000 -0.6093747379
O   O24       1.0  0.29250  0.28830  0.85420  1.0000 -0.6093747379
O   O25       1.0  0.69950  0.78260  0.69350  1.0000 -0.6000421357
O   O26       1.0  0.30050  0.21740  0.19350  1.0000 -0.6000421357
O   O27       1.0  0.19950  0.71740  0.19350  1.0000 -0.6000421357
O   O28       1.0  0.80050  0.28260  0.69350  1.0000 -0.6000421357
O   O29       1.0  0.83350  0.65140  0.72640  1.0000 -0.6566727322
O   O30       1.0  0.16650  0.34860  0.22640  1.0000 -0.6566727322
O   O31       1.0  0.33350  0.84860  0.22640  1.0000 -0.6566727322
O   O32       1.0  0.66650  0.15140  0.72640  1.0000 -0.6566727322
O   O33       1.0  0.59180  0.87590  0.57100  1.0000 -0.5582121026
O   O34       1.0  0.40820  0.12410  0.07100  1.0000 -0.5582121026
O   O35       1.0  0.09180  0.62410  0.07100  1.0000 -0.5582121026
O   O36       1.0  0.90820  0.37590  0.57100  1.0000 -0.5582121026
O   O37       1.0  0.67340  0.84670  0.46530  1.0000 -0.574133144
O   O38       1.0  0.32660  0.15330  0.96530  1.0000 -0.574133144
O   O39       1.0  0.17340  0.65330  0.96530  1.0000 -0.574133144
O   O40       1.0  0.82660  0.34670  0.46530  1.0000 -0.574133144
O   O41       1.0  0.79530  0.98540  0.60810  1.0000 -0.5928231042
O   O42       1.0  0.20470  0.01460  0.10810  1.0000 -0.5928231042
O   O43       1.0  0.29530  0.51460  0.10810  1.0000 -0.5928231042
O   O44       1.0  0.70470  0.48540  0.60810  1.0000 -0.5928231042
O   O45       1.0  0.89020  0.91820  0.51360  1.0000 -0.5790189218
O   O46       1.0  0.10980  0.08180  0.01360  1.0000 -0.5790189218
O   O47       1.0  0.39020  0.58180  0.01360  1.0000 -0.5790189218
O   O48       1.0  0.60980  0.41820  0.51360  1.0000 -0.5790189218
