# DDEC6 charges by PACMAN v1.1 (https://github.com/mtap-research/PACMAN-charge/)
data_2011[Ni][nan]3[ASR]8
_chemical_formula_sum              "Ni4 H60 C80 N8 O18"
_cell_length_a       20.1107
_cell_length_b       18.0525
_cell_length_c       14.0495
_cell_angle_alpha    76.4507
_cell_angle_beta     60.7708
_cell_angle_gamma    42.7785

_symmetry_space_group_name_H-M    "P 1"
_symmetry_Int_Tables_number       1

loop_
  _symmetry_equiv_pos_as_xyz
  'x, y, z'

loop_
  _atom_site_type_symbol
  _atom_site_label
  _atom_site_symmetry_multiplicity
  _atom_site_fract_x
  _atom_site_fract_y
  _atom_site_fract_z
  _atom_site_occupancy
  _atom_site_charge
Ni  Ni1       1.0  0.39151  0.63443  0.08909  1.0000 0.7839266534
Ni  Ni2       1.0  0.63443  0.39151  0.88497  1.0000 0.7839266534
Ni  Ni3       1.0  0.16091  0.36503  0.85849  1.0000 0.7839266534
Ni  Ni4       1.0  0.36503  0.16091  0.61557  1.0000 0.7839266534
H   H1        1.0  0.47100  0.46300  0.97900  1.0000 0.3602870578
H   H2        1.0  0.46300  0.47100  0.08700  1.0000 0.3602870578
H   H3        1.0  0.27100  0.16300  0.77900  1.0000 0.3602870578
H   H4        1.0  0.16300  0.27100  0.78700  1.0000 0.3602870578
H   H5        1.0  0.14430  0.79030  0.22930  1.0000 0.1118616925
H   H6        1.0  0.79030  0.14430  0.83610  1.0000 0.1118616925
H   H7        1.0  0.02070  0.41390  0.10570  1.0000 0.1118616925
H   H8        1.0  0.41390  0.02070  0.45970  1.0000 0.1118616925
H   H9        1.0  0.98920  0.87340  0.22400  1.0000 0.133193242
H   H10       1.0  0.87340  0.98920  0.91340  1.0000 0.133193242
H   H11       1.0  0.02600  0.33660  0.26080  1.0000 0.133193242
H   H12       1.0  0.33660  0.02600  0.37660  1.0000 0.133193242
H   H13       1.0  0.18670  0.72490  0.89610  1.0000 0.1399977679
H   H14       1.0  0.72490  0.18670  0.19230  1.0000 0.1399977679
H   H15       1.0  0.35390  0.05770  0.06330  1.0000 0.1399977679
H   H16       1.0  0.05770  0.35390  0.52510  1.0000 0.1399977679
H   H17       1.0  0.33610  0.64610  0.91490  1.0000 0.1118616925
H   H18       1.0  0.64610  0.33610  0.10290  1.0000 0.1118616925
H   H19       1.0  0.33510  0.14710  0.91390  1.0000 0.1118616925
H   H20       1.0  0.14710  0.33510  0.60390  1.0000 0.1118616925
H   H21       1.0  0.99050  0.84470  0.97610  1.0000 0.0996774609
H   H22       1.0  0.84470  0.99050  0.18870  1.0000 0.0996774609
H   H23       1.0  0.27390  0.06130  0.25950  1.0000 0.0996774609
H   H24       1.0  0.06130  0.27390  0.40530  1.0000 0.0996774609
H   H25       1.0  0.92920  0.79400  0.19340  1.0000 0.0996774609
H   H26       1.0  0.79400  0.92920  0.08340  1.0000 0.0996774609
H   H27       1.0  0.05660  0.16660  0.32080  1.0000 0.0996774609
H   H28       1.0  0.16660  0.05660  0.45600  1.0000 0.0996774609
H   H29       1.0  0.11050  0.59290  0.08910  1.0000 0.1451001565
H   H30       1.0  0.59290  0.11050  0.20750  1.0000 0.1451001565
H   H31       1.0  0.16090  0.04250  0.13950  1.0000 0.1451001565
H   H32       1.0  0.04250  0.16090  0.65710  1.0000 0.1451001565
H   H33       1.0  0.20130  0.43630  0.97970  1.0000 0.1118616925
H   H34       1.0  0.43630  0.20130  0.38270  1.0000 0.1118616925
H   H35       1.0  0.27030  0.86730  0.04870  1.0000 0.1118616925
H   H36       1.0  0.86730  0.27030  0.81370  1.0000 0.1118616925
H   H37       1.0  0.94540  0.61180  0.93240  1.0000 0.11945016
H   H38       1.0  0.61180  0.94540  0.51040  1.0000 0.11945016
H   H39       1.0  0.31760  0.73960  0.30460  1.0000 0.11945016
H   H40       1.0  0.73960  0.31760  0.63820  1.0000 0.11945016
H   H41       1.0  0.85520  0.77580  0.02800  1.0000 0.133193242
H   H42       1.0  0.77580  0.85520  0.34100  1.0000 0.133193242
H   H43       1.0  0.22200  0.90900  0.39480  1.0000 0.133193242
H   H44       1.0  0.90900  0.22200  0.47420  1.0000 0.133193242
H   H45       1.0  0.62590  0.55250  0.61890  1.0000 0.1118616925
H   H46       1.0  0.55250  0.62590  0.20270  1.0000 0.1118616925
H   H47       1.0  0.63110  0.04730  0.62410  1.0000 0.1118616925
H   H48       1.0  0.04730  0.63110  0.69750  1.0000 0.1118616925
H   H49       1.0  0.65300  0.63780  0.47900  1.0000 0.1118616925
H   H50       1.0  0.63780  0.65300  0.23020  1.0000 0.1118616925
H   H51       1.0  0.77100  0.01980  0.59700  1.0000 0.1118616925
H   H52       1.0  0.01980  0.77100  0.61220  1.0000 0.1118616925
H   H53       1.0  0.55210  0.82270  0.51690  1.0000 0.1118616925
H   H54       1.0  0.82270  0.55210  0.10830  1.0000 0.1118616925
H   H55       1.0  0.73310  0.14170  0.69790  1.0000 0.1118616925
H   H56       1.0  0.14170  0.73310  0.42730  1.0000 0.1118616925
H   H57       1.0  0.40560  0.83400  0.84760  1.0000 0.11945016
H   H58       1.0  0.83400  0.40560  0.91280  1.0000 0.11945016
H   H59       1.0  0.40240  0.33720  0.84440  1.0000 0.11945016
H   H60       1.0  0.33720  0.40240  0.41600  1.0000 0.11945016
C   C1        1.0  0.15280  0.77660  0.16160  1.0000 0.0822332135
C   C2        1.0  0.77660  0.15280  0.90900  1.0000 0.0822332135
C   C3        1.0  0.08840  0.34100  0.09720  1.0000 0.0822332135
C   C4        1.0  0.34100  0.08840  0.47340  1.0000 0.0822332135
C   C5        1.0  0.05930  0.82690  0.15950  1.0000 -0.2159728868
C   C6        1.0  0.82690  0.05930  0.95430  1.0000 -0.2159728868
C   C7        1.0  0.09050  0.29570  0.19070  1.0000 -0.2159728868
C   C8        1.0  0.29570  0.09050  0.42310  1.0000 -0.2159728868
C   C9        1.0  0.07130  0.80690  0.05890  1.0000 0.1399977679
C   C10       1.0  0.80690  0.07130  0.06290  1.0000 0.1399977679
C   C11       1.0  0.19110  0.18710  0.17870  1.0000 0.1399977679
C   C12       1.0  0.18710  0.19110  0.44310  1.0000 0.1399977679
C   C13       1.0  0.17590  0.73910  0.96510  1.0000 -0.2121229495
C   C14       1.0  0.73910  0.17590  0.11990  1.0000 -0.2121229495
C   C15       1.0  0.28490  0.13010  0.07410  1.0000 -0.2121229495
C   C16       1.0  0.13010  0.28490  0.51090  1.0000 -0.2121229495
C   C17       1.0  0.26500  0.69240  0.97800  1.0000 0.1118616925
C   C18       1.0  0.69240  0.26500  0.06460  1.0000 0.1118616925
C   C19       1.0  0.27200  0.18540  0.98500  1.0000 0.1118616925
C   C20       1.0  0.18540  0.27200  0.55760  1.0000 0.1118616925
C   C21       1.0  0.97190  0.85430  0.05470  1.0000 -0.1094702395
C   C22       1.0  0.85430  0.97190  0.11910  1.0000 -0.1094702395
C   C23       1.0  0.19530  0.13090  0.27810  1.0000 -0.1094702395
C   C24       1.0  0.13090  0.19530  0.39570  1.0000 -0.1094702395
C   C25       1.0  0.92470  0.80810  0.12330  1.0000 -0.1094702395
C   C26       1.0  0.80810  0.92470  0.14390  1.0000 -0.1094702395
C   C27       1.0  0.12670  0.10610  0.32530  1.0000 -0.1094702395
C   C28       1.0  0.10610  0.12670  0.44190  1.0000 -0.1094702395
C   C29       1.0  0.97470  0.70490  0.06190  1.0000 0.1399977679
C   C30       1.0  0.70490  0.97470  0.25850  1.0000 0.1399977679
C   C31       1.0  0.18810  0.99150  0.27530  1.0000 0.1399977679
C   C32       1.0  0.99150  0.18810  0.54510  1.0000 0.1399977679
C   C33       1.0  0.07800  0.59940  0.05280  1.0000 -0.2121229495
C   C34       1.0  0.59940  0.07800  0.26980  1.0000 -0.2121229495
C   C35       1.0  0.19720  0.98020  0.17200  1.0000 -0.2121229495
C   C36       1.0  0.98020  0.19720  0.65060  1.0000 -0.2121229495
C   C37       1.0  0.13070  0.50570  0.98970  1.0000 0.0865513241
C   C38       1.0  0.50570  0.13070  0.37390  1.0000 0.0865513241
C   C39       1.0  0.26030  0.87610  0.11930  1.0000 0.0865513241
C   C40       1.0  0.87610  0.26030  0.74430  1.0000 0.0865513241
C   C41       1.0  0.98150  0.60870  0.95970  1.0000 0.11945016
C   C42       1.0  0.60870  0.98150  0.45010  1.0000 0.11945016
C   C43       1.0  0.29030  0.79990  0.26850  1.0000 0.11945016
C   C44       1.0  0.79990  0.29030  0.64130  1.0000 0.11945016
C   C45       1.0  0.92610  0.70770  0.01870  1.0000 -0.2265045246
C   C46       1.0  0.70770  0.92610  0.34750  1.0000 -0.2265045246
C   C47       1.0  0.23130  0.90250  0.32390  1.0000 -0.2265045246
C   C48       1.0  0.90250  0.23130  0.54230  1.0000 -0.2265045246
C   C49       1.0  0.51880  0.68100  0.74820  1.0000 -0.0135511908
C   C50       1.0  0.68100  0.51880  0.05200  1.0000 -0.0135511908
C   C51       1.0  0.50180  0.19800  0.73120  1.0000 -0.0135511908
C   C52       1.0  0.19800  0.50180  0.56900  1.0000 -0.0135511908
C   C53       1.0  0.58840  0.62560  0.63700  1.0000 -0.1094702395
C   C54       1.0  0.62560  0.58840  0.14900  1.0000 -0.1094702395
C   C55       1.0  0.61300  0.10100  0.66160  1.0000 -0.1094702395
C   C56       1.0  0.10100  0.61300  0.62440  1.0000 -0.1094702395
C   C57       1.0  0.60240  0.67780  0.55320  1.0000 -0.1187436556
C   C58       1.0  0.67780  0.60240  0.16660  1.0000 -0.1187436556
C   C59       1.0  0.69680  0.08340  0.64760  1.0000 -0.1187436556
C   C60       1.0  0.08340  0.69680  0.57220  1.0000 -0.1187436556
C   C61       1.0  0.54410  0.78730  0.57530  1.0000 -0.1187436556
C   C62       1.0  0.78730  0.54410  0.09330  1.0000 -0.1187436556
C   C63       1.0  0.67470  0.15670  0.70590  1.0000 -0.1187436556
C   C64       1.0  0.15670  0.67470  0.46270  1.0000 -0.1187436556
C   C65       1.0  0.47090  0.84590  0.68930  1.0000 -0.0260776042
C   C66       1.0  0.84590  0.47090  0.99390  1.0000 -0.0260776042
C   C67       1.0  0.56070  0.25610  0.77910  1.0000 -0.0260776042
C   C68       1.0  0.25610  0.56070  0.40410  1.0000 -0.0260776042
C   C69       1.0  0.45670  0.79430  0.77310  1.0000 -0.130557747
C   C70       1.0  0.79430  0.45670  0.97590  1.0000 -0.130557747
C   C71       1.0  0.47690  0.27410  0.79330  1.0000 -0.130557747
C   C72       1.0  0.27410  0.47690  0.45570  1.0000 -0.130557747
C   C73       1.0  0.50700  0.62180  0.84160  1.0000 0.5658345098
C   C74       1.0  0.62180  0.50700  0.02960  1.0000 0.5658345098
C   C75       1.0  0.40840  0.22040  0.74300  1.0000 0.5658345098
C   C76       1.0  0.22040  0.40840  0.62820  1.0000 0.5658345098
C   C77       1.0  0.40530  0.96790  0.71510  1.0000 0.560540306
C   C78       1.0  0.96790  0.40530  0.91170  1.0000 0.560540306
C   C79       1.0  0.53490  0.33830  0.84470  1.0000 0.560540306
C   C80       1.0  0.33830  0.53490  0.28210  1.0000 0.560540306
N   N1        1.0  0.25570  0.70930  0.07330  1.0000 -0.2389276375
N   N2        1.0  0.70930  0.25570  0.96170  1.0000 -0.2389276375
N   N3        1.0  0.17670  0.28830  0.99430  1.0000 -0.2389276375
N   N4        1.0  0.28830  0.17670  0.54070  1.0000 -0.2389276375
N   N5        1.0  0.08200  0.51260  0.94180  1.0000 -0.2121229495
N   N6        1.0  0.51260  0.08200  0.46360  1.0000 -0.2121229495
N   N7        1.0  0.30820  0.78640  0.16800  1.0000 -0.2121229495
N   N8        1.0  0.78640  0.30820  0.73740  1.0000 -0.2121229495
O   O1        1.0  0.44714  0.67234  0.94046  1.0000 -0.5539880221
O   O2        1.0  0.67234  0.44714  0.94006  1.0000 -0.5550092583
O   O3        1.0  0.30954  0.30994  0.80286  1.0000 -0.5550092583
O   O4        1.0  0.30994  0.30954  0.57766  1.0000 -0.5539880221
O   O5        1.0  0.55809  0.52385  0.80951  1.0000 -0.5539880221
O   O6        1.0  0.52385  0.55809  0.10855  1.0000 -0.5539880221
O   O7        1.0  0.44049  0.14145  0.69191  1.0000 -0.5539880221
O   O8        1.0  0.14145  0.44049  0.72615  1.0000 -0.5539880221
O   O9        1.0  0.33060  0.02480  0.81140  1.0000 -0.5425250505
O   O10       1.0  0.02480  0.33060  0.83320  1.0000 -0.5425250505
O   O11       1.0  0.43860  0.41680  0.91940  1.0000 -0.5425250505
O   O12       1.0  0.41680  0.43860  0.22520  1.0000 -0.5425250505
O   O13       1.0  0.43541  0.00321  0.63099  1.0000 -0.5980579978
O   O14       1.0  0.00321  0.43541  0.93039  1.0000 -0.5980579978
O   O15       1.0  0.61901  0.31961  0.81459  1.0000 -0.5980579978
O   O16       1.0  0.31961  0.61901  0.24679  1.0000 -0.5980579978
O   O17       1.0  0.47670  0.47670  0.02330  1.0000 -0.6173241561
O   O18       1.0  0.22670  0.22670  0.77330  1.0000 -0.6173241561
