# DDEC6 charges by PACMAN v1.1 (https://github.com/mtap-research/PACMAN-charge/)
data_2011[Cd][scu]3[ASR]2
_chemical_formula_sum              "Cd8 H64 C120 O32"
_cell_length_a       11.4137
_cell_length_b       16.592
_cell_length_c       26.041
_cell_angle_alpha    90
_cell_angle_beta     95.29
_cell_angle_gamma    90

_symmetry_space_group_name_H-M    "P 1"
_symmetry_Int_Tables_number       1

loop_
  _symmetry_equiv_pos_as_xyz
  'x, y, z'

loop_
  _atom_site_type_symbol
  _atom_site_label
  _atom_site_symmetry_multiplicity
  _atom_site_fract_x
  _atom_site_fract_y
  _atom_site_fract_z
  _atom_site_occupancy
  _atom_site_charge
Cd  Cd1       1.0  0.88591  0.05887  0.96078  1.0000 1.0107396822
Cd  Cd2       1.0  0.11409  0.55887  0.53922  1.0000 1.0107396822
Cd  Cd3       1.0  0.11409  0.94113  0.03922  1.0000 1.0107396822
Cd  Cd4       1.0  0.88591  0.44113  0.46078  1.0000 1.0107396822
Cd  Cd5       1.0  0.83183  0.26612  0.96306  1.0000 1.1317620257
Cd  Cd6       1.0  0.16817  0.76612  0.53694  1.0000 1.1317620257
Cd  Cd7       1.0  0.16817  0.73388  0.03694  1.0000 1.1317620257
Cd  Cd8       1.0  0.83183  0.23388  0.46306  1.0000 1.1317620257
H   H1        1.0  0.25040  0.08830  0.77860  1.0000 0.118146616
H   H2        1.0  0.74960  0.58830  0.72140  1.0000 0.118146616
H   H3        1.0  0.74960  0.91170  0.22140  1.0000 0.118146616
H   H4        1.0  0.25040  0.41170  0.27860  1.0000 0.118146616
H   H5        1.0  0.14320  0.07810  0.84990  1.0000 0.118146616
H   H6        1.0  0.85680  0.57810  0.65010  1.0000 0.118146616
H   H7        1.0  0.85680  0.92190  0.15010  1.0000 0.118146616
H   H8        1.0  0.14320  0.42190  0.34990  1.0000 0.118146616
H   H9        1.0  0.04840  0.31160  0.83260  1.0000 0.118146616
H   H10       1.0  0.95160  0.81160  0.66740  1.0000 0.118146616
H   H11       1.0  0.95160  0.68840  0.16740  1.0000 0.118146616
H   H12       1.0  0.04840  0.18840  0.33260  1.0000 0.118146616
H   H13       1.0  0.15570  0.32090  0.76120  1.0000 0.118146616
H   H14       1.0  0.84430  0.82090  0.73880  1.0000 0.118146616
H   H15       1.0  0.84430  0.67910  0.23880  1.0000 0.118146616
H   H16       1.0  0.15570  0.17910  0.26120  1.0000 0.118146616
H   H17       1.0  0.31800  0.12510  0.62130  1.0000 0.1128678637
H   H18       1.0  0.68200  0.62510  0.87870  1.0000 0.1128678637
H   H19       1.0  0.68200  0.87490  0.37870  1.0000 0.1128678637
H   H20       1.0  0.31800  0.37490  0.12130  1.0000 0.1128678637
H   H21       1.0  0.41030  0.12030  0.54530  1.0000 0.1295596974
H   H22       1.0  0.58970  0.62030  0.95470  1.0000 0.1295596974
H   H23       1.0  0.58970  0.87970  0.45470  1.0000 0.1295596974
H   H24       1.0  0.41030  0.37970  0.04530  1.0000 0.1295596974
H   H25       1.0  0.68300  0.24730  0.61450  1.0000 0.118146616
H   H26       1.0  0.31700  0.74730  0.88550  1.0000 0.118146616
H   H27       1.0  0.31700  0.75270  0.38550  1.0000 0.118146616
H   H28       1.0  0.68300  0.25270  0.11450  1.0000 0.118146616
H   H29       1.0  0.59300  0.24680  0.69050  1.0000 0.1128678637
H   H30       1.0  0.40700  0.74680  0.80950  1.0000 0.1128678637
H   H31       1.0  0.40700  0.75320  0.30950  1.0000 0.1128678637
H   H32       1.0  0.59300  0.25320  0.19050  1.0000 0.1128678637
H   H33       1.0  0.44490  0.27010  0.79880  1.0000 0.118146616
H   H34       1.0  0.55510  0.77010  0.70120  1.0000 0.118146616
H   H35       1.0  0.55510  0.72990  0.20120  1.0000 0.118146616
H   H36       1.0  0.44490  0.22990  0.29880  1.0000 0.118146616
H   H37       1.0  0.58090  0.24070  0.86880  1.0000 0.1295596974
H   H38       1.0  0.41910  0.74070  0.63120  1.0000 0.1295596974
H   H39       1.0  0.41910  0.75930  0.13120  1.0000 0.1295596974
H   H40       1.0  0.58090  0.25930  0.36880  1.0000 0.1295596974
H   H41       1.0  0.64570  0.02600  0.80380  1.0000 0.118146616
H   H42       1.0  0.35430  0.52600  0.69620  1.0000 0.118146616
H   H43       1.0  0.35430  0.97400  0.19620  1.0000 0.118146616
H   H44       1.0  0.64570  0.47400  0.30380  1.0000 0.118146616
H   H45       1.0  0.51270  0.05860  0.73380  1.0000 0.118146616
H   H46       1.0  0.48730  0.55860  0.76620  1.0000 0.118146616
H   H47       1.0  0.48730  0.94140  0.26620  1.0000 0.118146616
H   H48       1.0  0.51270  0.44140  0.23380  1.0000 0.118146616
H   H49       1.0  0.06400  0.17300  0.66810  1.0000 0.118146616
H   H50       1.0  0.93600  0.67300  0.83190  1.0000 0.118146616
H   H51       1.0  0.93600  0.82700  0.33190  1.0000 0.118146616
H   H52       1.0  0.06400  0.32700  0.16810  1.0000 0.118146616
H   H53       1.0  0.95320  0.23380  0.59950  1.0000 0.1295596974
H   H54       1.0  0.04680  0.73380  0.90050  1.0000 0.1295596974
H   H55       1.0  0.04680  0.76620  0.40050  1.0000 0.1295596974
H   H56       1.0  0.95320  0.26620  0.09950  1.0000 0.1295596974
H   H57       1.0  0.20720  0.40130  0.59040  1.0000 0.118146616
H   H58       1.0  0.79280  0.90130  0.90960  1.0000 0.118146616
H   H59       1.0  0.79280  0.59870  0.40960  1.0000 0.118146616
H   H60       1.0  0.20720  0.09870  0.09040  1.0000 0.118146616
H   H61       1.0  0.32120  0.33900  0.65830  1.0000 0.118146616
H   H62       1.0  0.67880  0.83900  0.84170  1.0000 0.118146616
H   H63       1.0  0.67880  0.66100  0.34170  1.0000 0.118146616
H   H64       1.0  0.32120  0.16100  0.15830  1.0000 0.118146616
C   C1        1.0  0.38750  0.18970  0.71240  1.0000 -0.0308944808
C   C2        1.0  0.61250  0.68970  0.78760  1.0000 -0.0308944808
C   C3        1.0  0.61250  0.81030  0.28760  1.0000 -0.0308944808
C   C4        1.0  0.38750  0.31030  0.21240  1.0000 -0.0308944808
C   C5        1.0  0.27490  0.21210  0.71450  1.0000 -0.0308944808
C   C6        1.0  0.72510  0.71210  0.78550  1.0000 -0.0308944808
C   C7        1.0  0.72510  0.78790  0.28550  1.0000 -0.0308944808
C   C8        1.0  0.27490  0.28790  0.21450  1.0000 -0.0308944808
C   C9        1.0  0.21170  0.20550  0.76190  1.0000 0.0796360832
C   C10       1.0  0.78830  0.70550  0.73810  1.0000 0.0796360832
C   C11       1.0  0.78830  0.79450  0.23810  1.0000 0.0796360832
C   C12       1.0  0.21170  0.29450  0.26190  1.0000 0.0796360832
C   C13       1.0  0.20860  0.13390  0.78940  1.0000 -0.1589022398
C   C14       1.0  0.79140  0.63390  0.71060  1.0000 -0.1589022398
C   C15       1.0  0.79140  0.86610  0.21060  1.0000 -0.1589022398
C   C16       1.0  0.20860  0.36610  0.28940  1.0000 -0.1589022398
C   C17       1.0  0.14590  0.12790  0.83210  1.0000 -0.0901731766
C   C18       1.0  0.85410  0.62790  0.66790  1.0000 -0.0901731766
C   C19       1.0  0.85410  0.87210  0.16790  1.0000 -0.0901731766
C   C20       1.0  0.14590  0.37210  0.33210  1.0000 -0.0901731766
C   C21       1.0  0.08680  0.19420  0.84910  1.0000 -0.0423317832
C   C22       1.0  0.91320  0.69420  0.65090  1.0000 -0.0423317832
C   C23       1.0  0.91320  0.80580  0.15090  1.0000 -0.0423317832
C   C24       1.0  0.08680  0.30580  0.34910  1.0000 -0.0423317832
C   C25       1.0  0.08990  0.26590  0.82190  1.0000 -0.0833857688
C   C26       1.0  0.91010  0.76590  0.67810  1.0000 -0.0833857688
C   C27       1.0  0.91010  0.73410  0.17810  1.0000 -0.0833857688
C   C28       1.0  0.08990  0.23410  0.32190  1.0000 -0.0833857688
C   C29       1.0  0.15300  0.27110  0.77910  1.0000 -0.1589022398
C   C30       1.0  0.84700  0.77110  0.72090  1.0000 -0.1589022398
C   C31       1.0  0.84700  0.72890  0.22090  1.0000 -0.1589022398
C   C32       1.0  0.15300  0.22890  0.27910  1.0000 -0.1589022398
C   C33       1.0  0.44500  0.18800  0.66330  1.0000 0.0704900751
C   C34       1.0  0.55500  0.68800  0.83670  1.0000 0.0704900751
C   C35       1.0  0.55500  0.81200  0.33670  1.0000 0.0704900751
C   C36       1.0  0.44500  0.31200  0.16330  1.0000 0.0704900751
C   C37       1.0  0.39280  0.14990  0.62000  1.0000 -0.1589022398
C   C38       1.0  0.60720  0.64990  0.88000  1.0000 -0.1589022398
C   C39       1.0  0.60720  0.85010  0.38000  1.0000 -0.1589022398
C   C40       1.0  0.39280  0.35010  0.12000  1.0000 -0.1589022398
C   C41       1.0  0.44750  0.14710  0.57470  1.0000 -0.0901731766
C   C42       1.0  0.55250  0.64710  0.92530  1.0000 -0.0901731766
C   C43       1.0  0.55250  0.85290  0.42530  1.0000 -0.0901731766
C   C44       1.0  0.44750  0.35290  0.07470  1.0000 -0.0901731766
C   C45       1.0  0.55640  0.18330  0.57200  1.0000 -0.0308944808
C   C46       1.0  0.44360  0.68330  0.92800  1.0000 -0.0308944808
C   C47       1.0  0.44360  0.81670  0.42800  1.0000 -0.0308944808
C   C48       1.0  0.55640  0.31670  0.07200  1.0000 -0.0308944808
C   C49       1.0  0.60900  0.22150  0.61570  1.0000 -0.0957529714
C   C50       1.0  0.39100  0.72150  0.88430  1.0000 -0.0957529714
C   C51       1.0  0.39100  0.77850  0.38430  1.0000 -0.0957529714
C   C52       1.0  0.60900  0.27850  0.11570  1.0000 -0.0957529714
C   C53       1.0  0.55440  0.22220  0.66060  1.0000 -0.1589022398
C   C54       1.0  0.44560  0.72220  0.83940  1.0000 -0.1589022398
C   C55       1.0  0.44560  0.77780  0.33940  1.0000 -0.1589022398
C   C56       1.0  0.55440  0.27780  0.16060  1.0000 -0.1589022398
C   C57       1.0  0.46670  0.16740  0.75910  1.0000 0.0796360832
C   C58       1.0  0.53330  0.66740  0.74090  1.0000 0.0796360832
C   C59       1.0  0.53330  0.83260  0.24090  1.0000 0.0796360832
C   C60       1.0  0.46670  0.33260  0.25910  1.0000 0.0796360832
C   C61       1.0  0.48680  0.22060  0.79950  1.0000 -0.1589022398
C   C62       1.0  0.51320  0.72060  0.70050  1.0000 -0.1589022398
C   C63       1.0  0.51320  0.77940  0.20050  1.0000 -0.1589022398
C   C64       1.0  0.48680  0.27940  0.29950  1.0000 -0.1589022398
C   C65       1.0  0.56760  0.20300  0.84140  1.0000 -0.0833857688
C   C66       1.0  0.43240  0.70300  0.65860  1.0000 -0.0833857688
C   C67       1.0  0.43240  0.79700  0.15860  1.0000 -0.0833857688
C   C68       1.0  0.56760  0.29700  0.34140  1.0000 -0.0833857688
C   C69       1.0  0.62810  0.13160  0.84340  1.0000 -0.0423317832
C   C70       1.0  0.37190  0.63160  0.65660  1.0000 -0.0423317832
C   C71       1.0  0.37190  0.86840  0.15660  1.0000 -0.0423317832
C   C72       1.0  0.62810  0.36840  0.34340  1.0000 -0.0423317832
C   C73       1.0  0.60610  0.07640  0.80280  1.0000 -0.0901731766
C   C74       1.0  0.39390  0.57640  0.69720  1.0000 -0.0901731766
C   C75       1.0  0.39390  0.92360  0.19720  1.0000 -0.0901731766
C   C76       1.0  0.60610  0.42360  0.30280  1.0000 -0.0901731766
C   C77       1.0  0.52630  0.09590  0.76140  1.0000 -0.1589022398
C   C78       1.0  0.47370  0.59590  0.73860  1.0000 -0.1589022398
C   C79       1.0  0.47370  0.90410  0.23860  1.0000 -0.1589022398
C   C80       1.0  0.52630  0.40410  0.26140  1.0000 -0.1589022398
C   C81       1.0  0.20400  0.24950  0.66960  1.0000 0.0796360832
C   C82       1.0  0.79600  0.74950  0.83040  1.0000 0.0796360832
C   C83       1.0  0.79600  0.75050  0.33040  1.0000 0.0796360832
C   C84       1.0  0.20400  0.25050  0.16960  1.0000 0.0796360832
C   C85       1.0  0.09370  0.21920  0.65210  1.0000 -0.1499698331
C   C86       1.0  0.90630  0.71920  0.84790  1.0000 -0.1499698331
C   C87       1.0  0.90630  0.78080  0.34790  1.0000 -0.1499698331
C   C88       1.0  0.09370  0.28080  0.15210  1.0000 -0.1499698331
C   C89       1.0  0.02750  0.25570  0.61170  1.0000 -0.0901731766
C   C90       1.0  0.97250  0.75570  0.88830  1.0000 -0.0901731766
C   C91       1.0  0.97250  0.74430  0.38830  1.0000 -0.0901731766
C   C92       1.0  0.02750  0.24430  0.11170  1.0000 -0.0901731766
C   C93       1.0  0.06830  0.32410  0.58870  1.0000 -0.0423317832
C   C94       1.0  0.93170  0.82410  0.91130  1.0000 -0.0423317832
C   C95       1.0  0.93170  0.67590  0.41130  1.0000 -0.0423317832
C   C96       1.0  0.06830  0.17590  0.08870  1.0000 -0.0423317832
C   C97       1.0  0.17830  0.35470  0.60620  1.0000 -0.0833857688
C   C98       1.0  0.82170  0.85470  0.89380  1.0000 -0.0833857688
C   C99       1.0  0.82170  0.64530  0.39380  1.0000 -0.0833857688
C   C100      1.0  0.17830  0.14530  0.10620  1.0000 -0.0833857688
C   C101      1.0  0.24620  0.31770  0.64660  1.0000 -0.1499698331
C   C102      1.0  0.75380  0.81770  0.85340  1.0000 -0.1499698331
C   C103      1.0  0.75380  0.68230  0.35340  1.0000 -0.1499698331
C   C104      1.0  0.24620  0.18230  0.14660  1.0000 -0.1499698331
C   C105      1.0  0.99630  0.36550  0.54610  1.0000 0.5971013586
C   C106      1.0  0.00370  0.86550  0.95390  1.0000 0.5971013586
C   C107      1.0  0.00370  0.63450  0.45390  1.0000 0.5971013586
C   C108      1.0  0.99630  0.13450  0.04610  1.0000 0.5971013586
C   C109      1.0  0.71610  0.11130  0.88700  1.0000 0.5752810518
C   C110      1.0  0.28390  0.61130  0.61300  1.0000 0.5752810518
C   C111      1.0  0.28390  0.88870  0.11300  1.0000 0.5752810518
C   C112      1.0  0.71610  0.38870  0.38700  1.0000 0.5752810518
C   C113      1.0  0.01620  0.18670  0.89470  1.0000 0.5883378069
C   C114      1.0  0.98380  0.68670  0.60530  1.0000 0.5883378069
C   C115      1.0  0.98380  0.81330  0.10530  1.0000 0.5883378069
C   C116      1.0  0.01620  0.31330  0.39470  1.0000 0.5883378069
C   C117      1.0  0.61860  0.17960  0.52360  1.0000 0.5560106615
C   C118      1.0  0.38140  0.67960  0.97640  1.0000 0.5560106615
C   C119      1.0  0.38140  0.82040  0.47640  1.0000 0.5560106615
C   C120      1.0  0.61860  0.32040  0.02360  1.0000 0.5560106615
O   O1        1.0  0.72790  0.15790  0.92542  1.0000 -0.5908385684
O   O2        1.0  0.27210  0.65790  0.57458  1.0000 -0.5908385684
O   O3        1.0  0.27210  0.84210  0.07458  1.0000 -0.5908385684
O   O4        1.0  0.72790  0.34210  0.42542  1.0000 -0.5908385684
O   O5        1.0  0.77580  0.04810  0.88401  1.0000 -0.541867134
O   O6        1.0  0.22420  0.54810  0.61599  1.0000 -0.541867134
O   O7        1.0  0.22420  0.95190  0.11599  1.0000 -0.541867134
O   O8        1.0  0.77580  0.45190  0.38401  1.0000 -0.541867134
O   O9        1.0  0.02160  0.12190  0.91878  1.0000 -0.541867134
O   O10       1.0  0.97840  0.62190  0.58122  1.0000 -0.541867134
O   O11       1.0  0.97840  0.87810  0.08122  1.0000 -0.541867134
O   O12       1.0  0.02160  0.37810  0.41878  1.0000 -0.541867134
O   O13       1.0  0.95540  0.24850  0.90458  1.0000 -0.6017538627
O   O14       1.0  0.04460  0.74850  0.59542  1.0000 -0.6017538627
O   O15       1.0  0.04460  0.75150  0.09542  1.0000 -0.6017538627
O   O16       1.0  0.95540  0.25150  0.40458  1.0000 -0.6017538627
O   O17       1.0  0.71070  0.21920  0.52338  1.0000 -0.5681244154
O   O18       1.0  0.28930  0.71920  0.97662  1.0000 -0.5681244154
O   O19       1.0  0.28930  0.78080  0.47662  1.0000 -0.5681244154
O   O20       1.0  0.71070  0.28080  0.02338  1.0000 -0.5681244154
O   O21       1.0  0.57400  0.13720  0.48750  1.0000 -0.541867134
O   O22       1.0  0.42600  0.63720  0.01250  1.0000 -0.541867134
O   O23       1.0  0.42600  0.86280  0.51250  1.0000 -0.541867134
O   O24       1.0  0.57400  0.36280  0.98750  1.0000 -0.541867134
O   O25       1.0  0.01980  0.43650  0.53498  1.0000 -0.5485809614
O   O26       1.0  0.98020  0.93650  0.96502  1.0000 -0.5485809614
O   O27       1.0  0.98020  0.56350  0.46502  1.0000 -0.5485809614
O   O28       1.0  0.01980  0.06350  0.03498  1.0000 -0.5485809614
O   O29       1.0  0.91180  0.32950  0.52229  1.0000 -0.5681244154
O   O30       1.0  0.08820  0.82950  0.97771  1.0000 -0.5681244154
O   O31       1.0  0.08820  0.67050  0.47771  1.0000 -0.5681244154
O   O32       1.0  0.91180  0.17050  0.02229  1.0000 -0.5681244154
