# DDEC6 charges by PACMAN v1.1 (https://github.com/mtap-research/PACMAN-charge/)
data_2011[Zn][pcu]3[ASR]14
_chemical_formula_sum              "Zn8 H80 C160 N16 O48"
_cell_length_a       24.6098
_cell_length_b       24.6098
_cell_length_c       15.436
_cell_angle_alpha    73.421
_cell_angle_beta     106.579
_cell_angle_gamma    143.823

_symmetry_space_group_name_H-M    "P 1"
_symmetry_Int_Tables_number       1

loop_
  _symmetry_equiv_pos_as_xyz
  'x, y, z'

loop_
  _atom_site_type_symbol
  _atom_site_label
  _atom_site_symmetry_multiplicity
  _atom_site_fract_x
  _atom_site_fract_y
  _atom_site_fract_z
  _atom_site_occupancy
  _atom_site_charge
Zn  Zn1       1.0  0.35326  0.15446  0.57209  1.0000 0.837466107
Zn  Zn2       1.0  0.84554  0.64674  0.07209  1.0000 0.837466107
Zn  Zn3       1.0  0.92143  0.59007  0.13281  1.0000 0.8317742956
Zn  Zn4       1.0  0.40993  0.07857  0.63281  1.0000 0.8317742956
Zn  Zn5       1.0  0.15446  0.35326  0.92791  1.0000 0.837466107
Zn  Zn6       1.0  0.64674  0.84554  0.42791  1.0000 0.837466107
Zn  Zn7       1.0  0.59007  0.92143  0.36719  1.0000 0.8317742956
Zn  Zn8       1.0  0.07857  0.40993  0.86719  1.0000 0.8317742956
H   H1        1.0  0.66750  0.48150  0.84940  1.0000 0.1212181734
H   H2        1.0  0.51850  0.33250  0.34940  1.0000 0.1212181734
H   H3        1.0  0.56230  0.37510  0.74140  1.0000 0.1212181734
H   H4        1.0  0.62490  0.43770  0.24140  1.0000 0.1212181734
H   H5        1.0  0.64630  0.27770  0.83200  1.0000 0.1212181734
H   H6        1.0  0.72230  0.35370  0.33200  1.0000 0.1212181734
H   H7        1.0  0.75020  0.38220  0.94110  1.0000 0.1212181734
H   H8        1.0  0.61780  0.24980  0.44110  1.0000 0.1212181734
H   H9        1.0  0.24940  0.90580  0.85070  1.0000 0.1212181734
H   H10       1.0  0.09420  0.75060  0.35070  1.0000 0.1212181734
H   H11       1.0  0.14650  0.79850  0.96110  1.0000 0.1212181734
H   H12       1.0  0.20150  0.85350  0.46110  1.0000 0.1212181734
H   H13       1.0  0.06320  0.89700  0.89840  1.0000 0.1286262226
H   H14       1.0  0.10300  0.93680  0.39840  1.0000 0.1286262226
H   H15       1.0  0.16910  0.00590  0.78980  1.0000 0.1212181734
H   H16       1.0  0.99410  0.83090  0.28980  1.0000 0.1212181734
H   H17       1.0  0.23830  0.15330  0.60770  1.0000 0.1212181734
H   H18       1.0  0.84670  0.76170  0.10770  1.0000 0.1212181734
H   H19       1.0  0.20370  0.22130  0.54960  1.0000 0.146254388
H   H20       1.0  0.77870  0.79630  0.04960  1.0000 0.146254388
H   H21       1.0  0.35520  0.34600  0.34100  1.0000 0.1421001193
H   H22       1.0  0.65400  0.64480  0.84100  1.0000 0.1421001193
H   H23       1.0  0.38860  0.27620  0.40880  1.0000 0.1212181734
H   H24       1.0  0.72380  0.61140  0.90880  1.0000 0.1212181734
H   H25       1.0  0.35830  0.53990  0.50470  1.0000 0.1286262226
H   H26       1.0  0.46010  0.64170  0.00470  1.0000 0.1286262226
H   H27       1.0  0.31260  0.59940  0.45390  1.0000 0.1286262226
H   H28       1.0  0.40060  0.68740  0.95390  1.0000 0.1286262226
H   H29       1.0  0.04150  0.33050  0.12990  1.0000 0.1212181734
H   H30       1.0  0.66950  0.95850  0.62990  1.0000 0.1212181734
H   H31       1.0  0.09260  0.27600  0.17740  1.0000 0.1286262226
H   H32       1.0  0.72400  0.90740  0.67740  1.0000 0.1286262226
H   H33       1.0  0.03380  0.61080  0.05210  1.0000 0.1286262226
H   H34       1.0  0.38920  0.96620  0.55210  1.0000 0.1286262226
H   H35       1.0  0.11230  0.58750  0.09070  1.0000 0.146254388
H   H36       1.0  0.41250  0.88770  0.59070  1.0000 0.146254388
H   H37       1.0  0.04130  0.50210  0.34650  1.0000 0.1421001193
H   H38       1.0  0.49790  0.95870  0.84650  1.0000 0.1421001193
H   H39       1.0  0.96290  0.52610  0.30030  1.0000 0.1212181734
H   H40       1.0  0.47390  0.03710  0.80030  1.0000 0.1212181734
H   H41       1.0  0.48150  0.66750  0.65060  1.0000 0.1212181734
H   H42       1.0  0.33250  0.51850  0.15060  1.0000 0.1212181734
H   H43       1.0  0.37510  0.56230  0.75860  1.0000 0.1212181734
H   H44       1.0  0.43770  0.62490  0.25860  1.0000 0.1212181734
H   H45       1.0  0.27770  0.64630  0.66800  1.0000 0.1212181734
H   H46       1.0  0.35370  0.72230  0.16800  1.0000 0.1212181734
H   H47       1.0  0.38220  0.75020  0.55890  1.0000 0.1212181734
H   H48       1.0  0.24980  0.61780  0.05890  1.0000 0.1212181734
H   H49       1.0  0.90580  0.24940  0.64930  1.0000 0.1212181734
H   H50       1.0  0.75060  0.09420  0.14930  1.0000 0.1212181734
H   H51       1.0  0.79850  0.14650  0.53890  1.0000 0.1212181734
H   H52       1.0  0.85350  0.20150  0.03890  1.0000 0.1212181734
H   H53       1.0  0.89700  0.06320  0.60160  1.0000 0.1286262226
H   H54       1.0  0.93680  0.10300  0.10160  1.0000 0.1286262226
H   H55       1.0  0.00590  0.16910  0.71020  1.0000 0.1212181734
H   H56       1.0  0.83090  0.99410  0.21020  1.0000 0.1212181734
H   H57       1.0  0.15330  0.23830  0.89230  1.0000 0.1212181734
H   H58       1.0  0.76170  0.84670  0.39230  1.0000 0.1212181734
H   H59       1.0  0.22130  0.20370  0.95040  1.0000 0.146254388
H   H60       1.0  0.79630  0.77870  0.45040  1.0000 0.146254388
H   H61       1.0  0.34600  0.35520  0.15900  1.0000 0.1421001193
H   H62       1.0  0.64480  0.65400  0.65900  1.0000 0.1421001193
H   H63       1.0  0.27620  0.38860  0.09120  1.0000 0.1212181734
H   H64       1.0  0.61140  0.72380  0.59120  1.0000 0.1212181734
H   H65       1.0  0.53990  0.35830  0.99530  1.0000 0.1286262226
H   H66       1.0  0.64170  0.46010  0.49530  1.0000 0.1286262226
H   H67       1.0  0.59940  0.31260  0.04610  1.0000 0.1286262226
H   H68       1.0  0.68740  0.40060  0.54610  1.0000 0.1286262226
H   H69       1.0  0.33050  0.04150  0.37010  1.0000 0.1212181734
H   H70       1.0  0.95850  0.66950  0.87010  1.0000 0.1212181734
H   H71       1.0  0.27600  0.09260  0.32260  1.0000 0.1286262226
H   H72       1.0  0.90740  0.72400  0.82260  1.0000 0.1286262226
H   H73       1.0  0.61080  0.03380  0.44790  1.0000 0.1286262226
H   H74       1.0  0.96620  0.38920  0.94790  1.0000 0.1286262226
H   H75       1.0  0.58750  0.11230  0.40930  1.0000 0.146254388
H   H76       1.0  0.88770  0.41250  0.90930  1.0000 0.146254388
H   H77       1.0  0.50210  0.04130  0.15350  1.0000 0.1421001193
H   H78       1.0  0.95870  0.49790  0.65350  1.0000 0.1421001193
H   H79       1.0  0.52610  0.96290  0.19970  1.0000 0.1212181734
H   H80       1.0  0.03710  0.47390  0.69970  1.0000 0.1212181734
C   C1        1.0  0.78537  0.50983  0.97630  1.0000 0.5800094468
C   C2        1.0  0.49017  0.21463  0.47630  1.0000 0.5800094468
C   C3        1.0  0.71940  0.44240  0.90610  1.0000 -0.0292274167
C   C4        1.0  0.55760  0.28060  0.40610  1.0000 -0.0292274167
C   C5        1.0  0.66304  0.43996  0.84620  1.0000 -0.1191556144
C   C6        1.0  0.56004  0.33696  0.34620  1.0000 -0.1191556144
C   C7        1.0  0.60042  0.37658  0.78220  1.0000 -0.1001945865
C   C8        1.0  0.62342  0.39958  0.28220  1.0000 -0.1001945865
C   C9        1.0  0.59262  0.31478  0.77680  1.0000 -0.0247464442
C   C10       1.0  0.68522  0.40738  0.27680  1.0000 -0.0247464442
C   C11       1.0  0.65004  0.31856  0.83610  1.0000 -0.1108796063
C   C12       1.0  0.68144  0.34996  0.33610  1.0000 -0.1108796063
C   C13       1.0  0.71209  0.38091  0.90040  1.0000 -0.1108796063
C   C14       1.0  0.61909  0.28791  0.40040  1.0000 -0.1108796063
C   C15       1.0  0.52132  0.24428  0.70980  1.0000 0.5800094468
C   C16       1.0  0.75572  0.47868  0.20980  1.0000 0.5800094468
C   C17       1.0  0.27950  0.02730  0.73350  1.0000 0.5916755063
C   C18       1.0  0.97270  0.72050  0.23350  1.0000 0.5916755063
C   C19       1.0  0.21772  0.96428  0.80850  1.0000 -0.0292274167
C   C20       1.0  0.03572  0.78228  0.30850  1.0000 -0.0292274167
C   C21       1.0  0.21103  0.90337  0.86020  1.0000 -0.1001945865
C   C22       1.0  0.09663  0.78897  0.36020  1.0000 -0.1001945865
C   C23       1.0  0.14981  0.83939  0.92540  1.0000 -0.1108796063
C   C24       1.0  0.16061  0.85019  0.42540  1.0000 -0.1108796063
C   C25       1.0  0.09173  0.83487  0.93890  1.0000 -0.0247464442
C   C26       1.0  0.16513  0.90827  0.43890  1.0000 -0.0247464442
C   C27       1.0  0.10047  0.89813  0.88840  1.0000 -0.1108796063
C   C28       1.0  0.10187  0.89953  0.38840  1.0000 -0.1108796063
C   C29       1.0  0.16321  0.96279  0.82370  1.0000 -0.1001945865
C   C30       1.0  0.03721  0.83679  0.32370  1.0000 -0.1001945865
C   C31       1.0  0.01747  0.75853  0.00320  1.0000 0.5710341198
C   C32       1.0  0.24147  0.98253  0.50320  1.0000 0.5710341198
C   C33       1.0  0.26374  0.19426  0.55380  1.0000 0.1011676055
C   C34       1.0  0.80574  0.73626  0.05380  1.0000 0.1011676055
C   C35       1.0  0.24204  0.23376  0.51950  1.0000 -0.2000556029
C   C36       1.0  0.76624  0.75796  0.01950  1.0000 -0.2000556029
C   C37       1.0  0.27734  0.29186  0.44010  1.0000 0.2217155204
C   C38       1.0  0.70814  0.72266  0.94010  1.0000 0.2217155204
C   C39       1.0  0.33171  0.30769  0.39670  1.0000 -0.1911706316
C   C40       1.0  0.69231  0.66829  0.89670  1.0000 -0.1911706316
C   C41       1.0  0.35083  0.26537  0.43770  1.0000 0.1085317613
C   C42       1.0  0.73463  0.64917  0.93770  1.0000 0.1085317613
C   C43       1.0  0.29940  0.40580  0.44940  1.0000 0.4399895109
C   C44       1.0  0.59420  0.70060  0.94940  1.0000 0.4399895109
C   C45       1.0  0.27532  0.44768  0.41240  1.0000 -0.0525629229
C   C46       1.0  0.55232  0.72468  0.91240  1.0000 -0.0525629229
C   C47       1.0  0.31290  0.51610  0.45440  1.0000 -0.0760839569
C   C48       1.0  0.48390  0.68710  0.95440  1.0000 -0.0760839569
C   C49       1.0  0.28561  0.55159  0.42440  1.0000 -0.0687772638
C   C50       1.0  0.44841  0.71439  0.92440  1.0000 -0.0687772638
C   C51       1.0  0.21941  0.51679  0.35150  1.0000 -0.0642768021
C   C52       1.0  0.48321  0.78059  0.85150  1.0000 -0.0642768021
C   C53       1.0  0.18784  0.55116  0.32250  1.0000 0.4334913504
C   C54       1.0  0.44884  0.81216  0.82250  1.0000 0.4334913504
C   C55       1.0  0.08038  0.44462  0.19930  1.0000 0.4399895109
C   C56       1.0  0.55538  0.91962  0.69930  1.0000 0.4399895109
C   C57       1.0  0.11548  0.41332  0.22890  1.0000 -0.0525629229
C   C58       1.0  0.58668  0.88452  0.72890  1.0000 -0.0525629229
C   C59       1.0  0.08414  0.35166  0.18240  1.0000 -0.0687772638
C   C60       1.0  0.64834  0.91586  0.68240  1.0000 -0.0687772638
C   C61       1.0  0.11427  0.31833  0.21130  1.0000 -0.0687772638
C   C62       1.0  0.68167  0.88573  0.71130  1.0000 -0.0687772638
C   C63       1.0  0.17416  0.34664  0.28750  1.0000 -0.0642768021
C   C64       1.0  0.65336  0.82584  0.78750  1.0000 -0.0642768021
C   C65       1.0  0.19889  0.30531  0.32130  1.0000 0.4399895109
C   C66       1.0  0.69469  0.80111  0.82130  1.0000 0.4399895109
C   C67       1.0  0.21086  0.41434  0.33600  1.0000 0.0312925925
C   C68       1.0  0.58566  0.78914  0.83600  1.0000 0.0312925925
C   C69       1.0  0.18224  0.44896  0.30490  1.0000 0.0353313668
C   C70       1.0  0.55104  0.81776  0.80490  1.0000 0.0353313668
C   C71       1.0  0.03483  0.58777  0.11260  1.0000 0.1085317613
C   C72       1.0  0.41223  0.96517  0.61260  1.0000 0.1085317613
C   C73       1.0  0.08109  0.57351  0.13460  1.0000 -0.2103447768
C   C74       1.0  0.42649  0.91891  0.63460  1.0000 -0.2103447768
C   C75       1.0  0.08104  0.53796  0.22260  1.0000 0.2217155204
C   C76       1.0  0.46204  0.91896  0.72260  1.0000 0.2217155204
C   C77       1.0  0.03923  0.52297  0.28510  1.0000 -0.2103447768
C   C78       1.0  0.47703  0.96077  0.78510  1.0000 -0.2103447768
C   C79       1.0  0.99369  0.53871  0.25720  1.0000 0.1011676055
C   C80       1.0  0.46129  0.00631  0.75720  1.0000 0.1011676055
C   C81       1.0  0.50983  0.78537  0.52370  1.0000 0.5800094468
C   C82       1.0  0.21463  0.49017  0.02370  1.0000 0.5800094468
C   C83       1.0  0.44240  0.71940  0.59390  1.0000 -0.0292274167
C   C84       1.0  0.28060  0.55760  0.09390  1.0000 -0.0292274167
C   C85       1.0  0.43996  0.66304  0.65380  1.0000 -0.1191556144
C   C86       1.0  0.33696  0.56004  0.15380  1.0000 -0.1191556144
C   C87       1.0  0.37658  0.60042  0.71780  1.0000 -0.1001945865
C   C88       1.0  0.39958  0.62342  0.21780  1.0000 -0.1001945865
C   C89       1.0  0.31478  0.59262  0.72320  1.0000 -0.0247464442
C   C90       1.0  0.40738  0.68522  0.22320  1.0000 -0.0247464442
C   C91       1.0  0.31856  0.65004  0.66390  1.0000 -0.1108796063
C   C92       1.0  0.34996  0.68144  0.16390  1.0000 -0.1108796063
C   C93       1.0  0.38091  0.71209  0.59960  1.0000 -0.1108796063
C   C94       1.0  0.28791  0.61909  0.09960  1.0000 -0.1108796063
C   C95       1.0  0.24428  0.52132  0.79020  1.0000 0.5800094468
C   C96       1.0  0.47868  0.75572  0.29020  1.0000 0.5800094468
C   C97       1.0  0.02730  0.27950  0.76650  1.0000 0.5916755063
C   C98       1.0  0.72050  0.97270  0.26650  1.0000 0.5916755063
C   C99       1.0  0.96428  0.21772  0.69150  1.0000 -0.0292274167
C   C100      1.0  0.78228  0.03572  0.19150  1.0000 -0.0292274167
C   C101      1.0  0.90337  0.21103  0.63980  1.0000 -0.1001945865
C   C102      1.0  0.78897  0.09663  0.13980  1.0000 -0.1001945865
C   C103      1.0  0.83939  0.14981  0.57460  1.0000 -0.1108796063
C   C104      1.0  0.85019  0.16061  0.07460  1.0000 -0.1108796063
C   C105      1.0  0.83487  0.09173  0.56110  1.0000 -0.0247464442
C   C106      1.0  0.90827  0.16513  0.06110  1.0000 -0.0247464442
C   C107      1.0  0.89813  0.10047  0.61160  1.0000 -0.1108796063
C   C108      1.0  0.89953  0.10187  0.11160  1.0000 -0.1108796063
C   C109      1.0  0.96279  0.16321  0.67630  1.0000 -0.1001945865
C   C110      1.0  0.83679  0.03721  0.17630  1.0000 -0.1001945865
C   C111      1.0  0.75853  0.01747  0.49680  1.0000 0.5710341198
C   C112      1.0  0.98253  0.24147  0.99680  1.0000 0.5710341198
C   C113      1.0  0.19426  0.26374  0.94620  1.0000 0.1011676055
C   C114      1.0  0.73626  0.80574  0.44620  1.0000 0.1011676055
C   C115      1.0  0.23376  0.24204  0.98050  1.0000 -0.2000556029
C   C116      1.0  0.75796  0.76624  0.48050  1.0000 -0.2000556029
C   C117      1.0  0.29186  0.27734  0.05990  1.0000 0.2217155204
C   C118      1.0  0.72266  0.70814  0.55990  1.0000 0.2217155204
C   C119      1.0  0.30769  0.33171  0.10330  1.0000 -0.1911706316
C   C120      1.0  0.66829  0.69231  0.60330  1.0000 -0.1911706316
C   C121      1.0  0.26537  0.35083  0.06230  1.0000 0.1085317613
C   C122      1.0  0.64917  0.73463  0.56230  1.0000 0.1085317613
C   C123      1.0  0.40580  0.29940  0.05060  1.0000 0.4399895109
C   C124      1.0  0.70060  0.59420  0.55060  1.0000 0.4399895109
C   C125      1.0  0.44768  0.27532  0.08760  1.0000 -0.0525629229
C   C126      1.0  0.72468  0.55232  0.58760  1.0000 -0.0525629229
C   C127      1.0  0.51610  0.31290  0.04560  1.0000 -0.0760839569
C   C128      1.0  0.68710  0.48390  0.54560  1.0000 -0.0760839569
C   C129      1.0  0.55159  0.28561  0.07560  1.0000 -0.0687772638
C   C130      1.0  0.71439  0.44841  0.57560  1.0000 -0.0687772638
C   C131      1.0  0.51679  0.21941  0.14850  1.0000 -0.0642768021
C   C132      1.0  0.78059  0.48321  0.64850  1.0000 -0.0642768021
C   C133      1.0  0.55116  0.18784  0.17750  1.0000 0.4334913504
C   C134      1.0  0.81216  0.44884  0.67750  1.0000 0.4334913504
C   C135      1.0  0.44462  0.08038  0.30070  1.0000 0.4399895109
C   C136      1.0  0.91962  0.55538  0.80070  1.0000 0.4399895109
C   C137      1.0  0.41332  0.11548  0.27110  1.0000 -0.0525629229
C   C138      1.0  0.88452  0.58668  0.77110  1.0000 -0.0525629229
C   C139      1.0  0.35166  0.08414  0.31760  1.0000 -0.0687772638
C   C140      1.0  0.91586  0.64834  0.81760  1.0000 -0.0687772638
C   C141      1.0  0.31833  0.11427  0.28870  1.0000 -0.0687772638
C   C142      1.0  0.88573  0.68167  0.78870  1.0000 -0.0687772638
C   C143      1.0  0.34664  0.17416  0.21250  1.0000 -0.0642768021
C   C144      1.0  0.82584  0.65336  0.71250  1.0000 -0.0642768021
C   C145      1.0  0.30531  0.19889  0.17870  1.0000 0.4399895109
C   C146      1.0  0.80111  0.69469  0.67870  1.0000 0.4399895109
C   C147      1.0  0.41434  0.21086  0.16400  1.0000 0.0312925925
C   C148      1.0  0.78914  0.58566  0.66400  1.0000 0.0312925925
C   C149      1.0  0.44896  0.18224  0.19510  1.0000 0.0353313668
C   C150      1.0  0.81776  0.55104  0.69510  1.0000 0.0353313668
C   C151      1.0  0.58777  0.03483  0.38740  1.0000 0.1085317613
C   C152      1.0  0.96517  0.41223  0.88740  1.0000 0.1085317613
C   C153      1.0  0.57351  0.08109  0.36540  1.0000 -0.2000556029
C   C154      1.0  0.91891  0.42649  0.86540  1.0000 -0.2000556029
C   C155      1.0  0.53796  0.08104  0.27740  1.0000 0.2217155204
C   C156      1.0  0.91896  0.46204  0.77740  1.0000 0.2217155204
C   C157      1.0  0.52297  0.03923  0.21490  1.0000 -0.2103447768
C   C158      1.0  0.96077  0.47703  0.71490  1.0000 -0.2103447768
C   C159      1.0  0.53871  0.99369  0.24280  1.0000 0.1011676055
C   C160      1.0  0.00631  0.46129  0.74280  1.0000 0.1011676055
N   N1        1.0  0.31855  0.21025  0.51570  1.0000 -0.2103447768
N   N2        1.0  0.78975  0.68145  0.01570  1.0000 -0.2103447768
N   N3        1.0  0.99113  0.57087  0.17210  1.0000 -0.2169143843
N   N4        1.0  0.42913  0.00887  0.67210  1.0000 -0.2169143843
N   N5        1.0  0.25801  0.33619  0.40210  1.0000 -0.2409898105
N   N6        1.0  0.66381  0.74199  0.90210  1.0000 -0.2409898105
N   N7        1.0  0.12097  0.51383  0.24730  1.0000 -0.2263605732
N   N8        1.0  0.48617  0.87903  0.74730  1.0000 -0.2263605732
N   N9        1.0  0.21025  0.31855  0.98430  1.0000 -0.2103447768
N   N10       1.0  0.68145  0.78975  0.48430  1.0000 -0.2103447768
N   N11       1.0  0.57087  0.99113  0.32790  1.0000 -0.2169143843
N   N12       1.0  0.00887  0.42913  0.82790  1.0000 -0.2169143843
N   N13       1.0  0.33619  0.25801  0.09790  1.0000 -0.2409898105
N   N14       1.0  0.74199  0.66381  0.59790  1.0000 -0.2409898105
N   N15       1.0  0.51383  0.12097  0.25270  1.0000 -0.2263605732
N   N16       1.0  0.87903  0.48617  0.75270  1.0000 -0.2263605732
O   O1        1.0  0.78616  0.56144  0.97930  1.0000 -0.5669740575
O   O2        1.0  0.43856  0.21384  0.47930  1.0000 -0.5669740575
O   O3        1.0  0.83657  0.51123  0.02740  1.0000 -0.5328729438
O   O4        1.0  0.48877  0.16343  0.52740  1.0000 -0.5328729438
O   O5        1.0  0.47031  0.24329  0.65990  1.0000 -0.5480540718
O   O6        1.0  0.75671  0.52969  0.15990  1.0000 -0.5480540718
O   O7        1.0  0.51460  0.18760  0.70980  1.0000 -0.537734701
O   O8        1.0  0.81240  0.48540  0.20980  1.0000 -0.537734701
O   O9        1.0  0.27911  0.07809  0.68290  1.0000 -0.5480540718
O   O10       1.0  0.92191  0.72089  0.18290  1.0000 -0.5480540718
O   O11       1.0  0.32505  0.02355  0.72270  1.0000 -0.5480540718
O   O12       1.0  0.97645  0.67495  0.22270  1.0000 -0.5480540718
O   O13       1.0  0.96320  0.75360  0.00630  1.0000 -0.5328729438
O   O14       1.0  0.24640  0.03680  0.50630  1.0000 -0.5328729438
O   O15       1.0  0.01445  0.70435  0.04540  1.0000 -0.5480540718
O   O16       1.0  0.29565  0.98555  0.54540  1.0000 -0.5480540718
O   O17       1.0  0.35274  0.42926  0.51700  1.0000 -0.4241206559
O   O18       1.0  0.57074  0.64726  0.01700  1.0000 -0.4241206559
O   O19       1.0  0.16842  0.24658  0.28510  1.0000 -0.4142644319
O   O20       1.0  0.75342  0.83158  0.78510  1.0000 -0.4142644319
O   O21       1.0  0.21599  0.60841  0.36130  1.0000 -0.4241206559
O   O22       1.0  0.39159  0.78401  0.86130  1.0000 -0.4241206559
O   O23       1.0  0.02069  0.41351  0.13750  1.0000 -0.4142644319
O   O24       1.0  0.58649  0.97931  0.63750  1.0000 -0.4142644319
O   O25       1.0  0.56144  0.78616  0.52070  1.0000 -0.5669740575
O   O26       1.0  0.21384  0.43856  0.02070  1.0000 -0.5669740575
O   O27       1.0  0.51123  0.83657  0.47260  1.0000 -0.5328729438
O   O28       1.0  0.16343  0.48877  0.97260  1.0000 -0.5328729438
O   O29       1.0  0.24329  0.47031  0.84010  1.0000 -0.5480540718
O   O30       1.0  0.52969  0.75671  0.34010  1.0000 -0.5480540718
O   O31       1.0  0.18760  0.51460  0.79020  1.0000 -0.537734701
O   O32       1.0  0.48540  0.81240  0.29020  1.0000 -0.537734701
O   O33       1.0  0.07809  0.27911  0.81710  1.0000 -0.5480540718
O   O34       1.0  0.72089  0.92191  0.31710  1.0000 -0.5480540718
O   O35       1.0  0.02355  0.32505  0.77730  1.0000 -0.5480540718
O   O36       1.0  0.67495  0.97645  0.27730  1.0000 -0.5480540718
O   O37       1.0  0.75360  0.96320  0.49370  1.0000 -0.5328729438
O   O38       1.0  0.03680  0.24640  0.99370  1.0000 -0.5328729438
O   O39       1.0  0.70435  0.01445  0.45460  1.0000 -0.5480540718
O   O40       1.0  0.98555  0.29565  0.95460  1.0000 -0.5480540718
O   O41       1.0  0.42926  0.35274  0.98300  1.0000 -0.4241206559
O   O42       1.0  0.64726  0.57074  0.48300  1.0000 -0.4241206559
O   O43       1.0  0.24658  0.16842  0.21490  1.0000 -0.4142644319
O   O44       1.0  0.83158  0.75342  0.71490  1.0000 -0.4142644319
O   O45       1.0  0.60841  0.21599  0.13870  1.0000 -0.4241206559
O   O46       1.0  0.78401  0.39159  0.63870  1.0000 -0.4241206559
O   O47       1.0  0.41351  0.02069  0.36250  1.0000 -0.4142644319
O   O48       1.0  0.97931  0.58649  0.86250  1.0000 -0.4142644319
