# DDEC6 charges by PACMAN v1.1 (https://github.com/mtap-research/PACMAN-charge/)
data_2011[Co][nan]3[ASR]1
_chemical_formula_sum              "Co18 H84 C180 N24 O90"
_cell_length_a       20.2937
_cell_length_b       20.2937
_cell_length_c       20.2937
_cell_angle_alpha    85.0058
_cell_angle_beta     85.0058
_cell_angle_gamma    85.0058

_symmetry_space_group_name_H-M    "P 1"
_symmetry_Int_Tables_number       1

loop_
  _symmetry_equiv_pos_as_xyz
  'x, y, z'

loop_
  _atom_site_type_symbol
  _atom_site_label
  _atom_site_symmetry_multiplicity
  _atom_site_fract_x
  _atom_site_fract_y
  _atom_site_fract_z
  _atom_site_occupancy
  _atom_site_charge
Co  Co1       1.0  0.97461  0.27793  0.97461  1.0000 1.0481841274
Co  Co2       1.0  0.27793  0.97461  0.97461  1.0000 1.0428497264
Co  Co3       1.0  0.97461  0.97461  0.27793  1.0000 1.0428497264
Co  Co4       1.0  0.02539  0.02539  0.72207  1.0000 1.0428497264
Co  Co5       1.0  0.02539  0.72207  0.02539  1.0000 1.0428497264
Co  Co6       1.0  0.72207  0.02539  0.02539  1.0000 1.0428497264
Co  Co7       1.0  0.92337  0.44428  0.92337  1.0000 0.8675170847
Co  Co8       1.0  0.44428  0.92337  0.92337  1.0000 0.8621881911
Co  Co9       1.0  0.92337  0.92337  0.44428  1.0000 0.8621881911
Co  Co10      1.0  0.07663  0.07663  0.55572  1.0000 0.8675170847
Co  Co11      1.0  0.07663  0.55572  0.07663  1.0000 0.8621881911
Co  Co12      1.0  0.55572  0.07663  0.07663  1.0000 0.8675170847
Co  Co13      1.0  0.43757  0.43757  0.98680  1.0000 0.8964952636
Co  Co14      1.0  0.43757  0.98680  0.43757  1.0000 0.8964952636
Co  Co15      1.0  0.98680  0.43757  0.43757  1.0000 0.8964952636
Co  Co16      1.0  0.56243  0.01320  0.56243  1.0000 0.8964952636
Co  Co17      1.0  0.01320  0.56243  0.56243  1.0000 0.8964952636
Co  Co18      1.0  0.56243  0.56243  0.01320  1.0000 0.8964952636
H   H1        1.0  0.77690  0.22310  0.00000  1.0000 0.1373279509
H   H2        1.0  0.22310  0.00000  0.77690  1.0000 0.1373279509
H   H3        1.0  0.00000  0.77690  0.22310  1.0000 0.1373279509
H   H4        1.0  0.22310  0.77690  0.00000  1.0000 0.1373279509
H   H5        1.0  0.77690  0.00000  0.22310  1.0000 0.1373279509
H   H6        1.0  0.00000  0.22310  0.77690  1.0000 0.1373279509
H   H7        1.0  0.87900  0.61310  0.73260  1.0000 0.1373279509
H   H8        1.0  0.61310  0.73260  0.87900  1.0000 0.1373279509
H   H9        1.0  0.73260  0.87900  0.61310  1.0000 0.1373279509
H   H10       1.0  0.12100  0.26740  0.38690  1.0000 0.1373279509
H   H11       1.0  0.26740  0.38690  0.12100  1.0000 0.1373279509
H   H12       1.0  0.38690  0.12100  0.26740  1.0000 0.1373279509
H   H13       1.0  0.12100  0.38690  0.26740  1.0000 0.1373279509
H   H14       1.0  0.38690  0.26740  0.12100  1.0000 0.1373279509
H   H15       1.0  0.26740  0.12100  0.38690  1.0000 0.1373279509
H   H16       1.0  0.87900  0.73260  0.61310  1.0000 0.1373279509
H   H17       1.0  0.73260  0.61310  0.87900  1.0000 0.1373279509
H   H18       1.0  0.61310  0.87900  0.73260  1.0000 0.1373279509
H   H19       1.0  0.93020  0.52240  0.78830  1.0000 0.1094446842
H   H20       1.0  0.52240  0.78830  0.93020  1.0000 0.1094446842
H   H21       1.0  0.78830  0.93020  0.52240  1.0000 0.1094446842
H   H22       1.0  0.06980  0.21170  0.47760  1.0000 0.1094446842
H   H23       1.0  0.21170  0.47760  0.06980  1.0000 0.1094446842
H   H24       1.0  0.47760  0.06980  0.21170  1.0000 0.1094446842
H   H25       1.0  0.06980  0.47760  0.21170  1.0000 0.1094446842
H   H26       1.0  0.47760  0.21170  0.06980  1.0000 0.1094446842
H   H27       1.0  0.21170  0.06980  0.47760  1.0000 0.1094446842
H   H28       1.0  0.93020  0.78830  0.52240  1.0000 0.1094446842
H   H29       1.0  0.78830  0.52240  0.93020  1.0000 0.1094446842
H   H30       1.0  0.52240  0.93020  0.78830  1.0000 0.1094446842
H   H31       1.0  0.71770  0.41720  0.98360  1.0000 0.1199821208
H   H32       1.0  0.41720  0.98360  0.71770  1.0000 0.1199821208
H   H33       1.0  0.98360  0.71770  0.41720  1.0000 0.1199821208
H   H34       1.0  0.28230  0.01640  0.58280  1.0000 0.1199821208
H   H35       1.0  0.01640  0.58280  0.28230  1.0000 0.1199821208
H   H36       1.0  0.58280  0.28230  0.01640  1.0000 0.1199821208
H   H37       1.0  0.28230  0.58280  0.01640  1.0000 0.1199821208
H   H38       1.0  0.58280  0.01640  0.28230  1.0000 0.1199821208
H   H39       1.0  0.01640  0.28230  0.58280  1.0000 0.1199821208
H   H40       1.0  0.71770  0.98360  0.41720  1.0000 0.1199821208
H   H41       1.0  0.98360  0.41720  0.71770  1.0000 0.1199821208
H   H42       1.0  0.41720  0.71770  0.98360  1.0000 0.1199821208
H   H43       1.0  0.33520  0.48180  0.21540  1.0000 0.1373279509
H   H44       1.0  0.48180  0.21540  0.33520  1.0000 0.1373279509
H   H45       1.0  0.21540  0.33520  0.48180  1.0000 0.1373279509
H   H46       1.0  0.66480  0.78460  0.51820  1.0000 0.1373279509
H   H47       1.0  0.78460  0.51820  0.66480  1.0000 0.1373279509
H   H48       1.0  0.51820  0.66480  0.78460  1.0000 0.1373279509
H   H49       1.0  0.66480  0.51820  0.78460  1.0000 0.1373279509
H   H50       1.0  0.51820  0.78460  0.66480  1.0000 0.1373279509
H   H51       1.0  0.78460  0.66480  0.51820  1.0000 0.1373279509
H   H52       1.0  0.33520  0.21540  0.48180  1.0000 0.1373279509
H   H53       1.0  0.21540  0.48180  0.33520  1.0000 0.1373279509
H   H54       1.0  0.48180  0.33520  0.21540  1.0000 0.1373279509
H   H55       1.0  0.18200  0.18200  0.97200  1.0000 0.1373279509
H   H56       1.0  0.18200  0.97200  0.18200  1.0000 0.1373279509
H   H57       1.0  0.97200  0.18200  0.18200  1.0000 0.1373279509
H   H58       1.0  0.81800  0.02800  0.81800  1.0000 0.1373279509
H   H59       1.0  0.02800  0.81800  0.81800  1.0000 0.1373279509
H   H60       1.0  0.81800  0.81800  0.02800  1.0000 0.1373279509
H   H61       1.0  0.36140  0.50380  0.10510  1.0000 0.1094446842
H   H62       1.0  0.50380  0.10510  0.36140  1.0000 0.1094446842
H   H63       1.0  0.10510  0.36140  0.50380  1.0000 0.1094446842
H   H64       1.0  0.63860  0.89490  0.49620  1.0000 0.1094446842
H   H65       1.0  0.89490  0.49620  0.63860  1.0000 0.1094446842
H   H66       1.0  0.49620  0.63860  0.89490  1.0000 0.1094446842
H   H67       1.0  0.63860  0.49620  0.89490  1.0000 0.1094446842
H   H68       1.0  0.49620  0.89490  0.63860  1.0000 0.1094446842
H   H69       1.0  0.89490  0.63860  0.49620  1.0000 0.1094446842
H   H70       1.0  0.36140  0.10510  0.50380  1.0000 0.1094446842
H   H71       1.0  0.10510  0.50380  0.36140  1.0000 0.1094446842
H   H72       1.0  0.50380  0.36140  0.10510  1.0000 0.1094446842
H   H73       1.0  0.22370  0.37050  0.98390  1.0000 0.1199821208
H   H74       1.0  0.37050  0.98390  0.22370  1.0000 0.1199821208
H   H75       1.0  0.98390  0.22370  0.37050  1.0000 0.1199821208
H   H76       1.0  0.77630  0.01610  0.62950  1.0000 0.1199821208
H   H77       1.0  0.01610  0.62950  0.77630  1.0000 0.1199821208
H   H78       1.0  0.62950  0.77630  0.01610  1.0000 0.1199821208
H   H79       1.0  0.77630  0.62950  0.01610  1.0000 0.1199821208
H   H80       1.0  0.62950  0.01610  0.77630  1.0000 0.1199821208
H   H81       1.0  0.01610  0.77630  0.62950  1.0000 0.1199821208
H   H82       1.0  0.22370  0.98390  0.37050  1.0000 0.1199821208
H   H83       1.0  0.98390  0.37050  0.22370  1.0000 0.1199821208
H   H84       1.0  0.37050  0.22370  0.98390  1.0000 0.1199821208
C   C1        1.0  0.64200  0.35800  0.00000  1.0000 -0.0299804577
C   C2        1.0  0.35800  0.00000  0.64200  1.0000 -0.0299804577
C   C3        1.0  0.00000  0.64200  0.35800  1.0000 -0.0299804577
C   C4        1.0  0.35800  0.64200  0.00000  1.0000 -0.0299804577
C   C5        1.0  0.64200  0.00000  0.35800  1.0000 -0.0299804577
C   C6        1.0  0.00000  0.35800  0.64200  1.0000 -0.0299804577
C   C7        1.0  0.74300  0.25700  0.00000  1.0000 -0.0865049056
C   C8        1.0  0.25700  0.00000  0.74300  1.0000 -0.0865049056
C   C9        1.0  0.00000  0.74300  0.25700  1.0000 -0.0865049056
C   C10       1.0  0.25700  0.74300  0.00000  1.0000 -0.0865049056
C   C11       1.0  0.74300  0.00000  0.25700  1.0000 -0.0865049056
C   C12       1.0  0.00000  0.25700  0.74300  1.0000 -0.0865049056
C   C13       1.0  0.76688  0.68443  0.76688  1.0000 0.3756742039
C   C14       1.0  0.68443  0.76688  0.76688  1.0000 0.3756742039
C   C15       1.0  0.76688  0.76688  0.68443  1.0000 0.3756742039
C   C16       1.0  0.23312  0.23312  0.31557  1.0000 0.3756742039
C   C17       1.0  0.23312  0.31557  0.23312  1.0000 0.3756742039
C   C18       1.0  0.31557  0.23312  0.23312  1.0000 0.3756742039
C   C19       1.0  0.82993  0.33771  0.97357  1.0000 0.6051829764
C   C20       1.0  0.33771  0.97357  0.82993  1.0000 0.6040422031
C   C21       1.0  0.97357  0.82993  0.33771  1.0000 0.6040422031
C   C22       1.0  0.17007  0.02643  0.66229  1.0000 0.6040422031
C   C23       1.0  0.02643  0.66229  0.17007  1.0000 0.6040422031
C   C24       1.0  0.66229  0.17007  0.02643  1.0000 0.6040422031
C   C25       1.0  0.17007  0.66229  0.02643  1.0000 0.6040422031
C   C26       1.0  0.66229  0.02643  0.17007  1.0000 0.6040422031
C   C27       1.0  0.02643  0.17007  0.66229  1.0000 0.6040422031
C   C28       1.0  0.82993  0.97357  0.33771  1.0000 0.6040422031
C   C29       1.0  0.97357  0.33771  0.82993  1.0000 0.6051829764
C   C30       1.0  0.33771  0.82993  0.97357  1.0000 0.6040422031
C   C31       1.0  0.85980  0.59580  0.77297  1.0000 -0.1571012156
C   C32       1.0  0.59580  0.77297  0.85980  1.0000 -0.1571012156
C   C33       1.0  0.77297  0.85980  0.59580  1.0000 -0.1571012156
C   C34       1.0  0.14020  0.22703  0.40420  1.0000 -0.1571012156
C   C35       1.0  0.22703  0.40420  0.14020  1.0000 -0.1571012156
C   C36       1.0  0.40420  0.14020  0.22703  1.0000 -0.1571012156
C   C37       1.0  0.14020  0.40420  0.22703  1.0000 -0.1571012156
C   C38       1.0  0.40420  0.22703  0.14020  1.0000 -0.1571012156
C   C39       1.0  0.22703  0.14020  0.40420  1.0000 -0.1571012156
C   C40       1.0  0.85980  0.77297  0.59580  1.0000 -0.1571012156
C   C41       1.0  0.77297  0.59580  0.85980  1.0000 -0.1571012156
C   C42       1.0  0.59580  0.85980  0.77297  1.0000 -0.1571012156
C   C43       1.0  0.89055  0.54186  0.80708  1.0000 0.0989064732
C   C44       1.0  0.54186  0.80708  0.89055  1.0000 0.0989064732
C   C45       1.0  0.80708  0.89055  0.54186  1.0000 0.0989064732
C   C46       1.0  0.10945  0.19292  0.45814  1.0000 0.0989064732
C   C47       1.0  0.19292  0.45814  0.10945  1.0000 0.0989064732
C   C48       1.0  0.45814  0.10945  0.19292  1.0000 0.0989064732
C   C49       1.0  0.10945  0.45814  0.19292  1.0000 0.0989064732
C   C50       1.0  0.45814  0.19292  0.10945  1.0000 0.0989064732
C   C51       1.0  0.19292  0.10945  0.45814  1.0000 0.0989064732
C   C52       1.0  0.89055  0.80708  0.54186  1.0000 0.0989064732
C   C53       1.0  0.80708  0.54186  0.89055  1.0000 0.0989064732
C   C54       1.0  0.54186  0.89055  0.80708  1.0000 0.0989064732
C   C55       1.0  0.75866  0.32244  0.98844  1.0000 -0.0229011202
C   C56       1.0  0.32244  0.98844  0.75866  1.0000 -0.0229011202
C   C57       1.0  0.98844  0.75866  0.32244  1.0000 -0.0229011202
C   C58       1.0  0.24134  0.01156  0.67756  1.0000 -0.0229011202
C   C59       1.0  0.01156  0.67756  0.24134  1.0000 -0.0229011202
C   C60       1.0  0.67756  0.24134  0.01156  1.0000 -0.0229011202
C   C61       1.0  0.24134  0.67756  0.01156  1.0000 -0.0229011202
C   C62       1.0  0.67756  0.01156  0.24134  1.0000 -0.0229011202
C   C63       1.0  0.01156  0.24134  0.67756  1.0000 -0.0229011202
C   C64       1.0  0.75866  0.98844  0.32244  1.0000 -0.0229011202
C   C65       1.0  0.98844  0.32244  0.75866  1.0000 -0.0229011202
C   C66       1.0  0.32244  0.75866  0.98844  1.0000 -0.0229011202
C   C67       1.0  0.58610  0.41390  0.00000  1.0000 0.5768673727
C   C68       1.0  0.41390  0.00000  0.58610  1.0000 0.5768673727
C   C69       1.0  0.00000  0.58610  0.41390  1.0000 0.5768673727
C   C70       1.0  0.41390  0.58610  0.00000  1.0000 0.5768673727
C   C71       1.0  0.58610  0.00000  0.41390  1.0000 0.5768673727
C   C72       1.0  0.00000  0.41390  0.58610  1.0000 0.5768673727
C   C73       1.0  0.30468  0.30468  0.98518  1.0000 -0.0299804577
C   C74       1.0  0.30468  0.98518  0.30468  1.0000 -0.0299804577
C   C75       1.0  0.98518  0.30468  0.30468  1.0000 -0.0299804577
C   C76       1.0  0.69532  0.01482  0.69532  1.0000 -0.0299804577
C   C77       1.0  0.01482  0.69532  0.69532  1.0000 -0.0299804577
C   C78       1.0  0.69532  0.69532  0.01482  1.0000 -0.0299804577
C   C79       1.0  0.70769  0.37316  0.98968  1.0000 -0.1200444991
C   C80       1.0  0.37316  0.98968  0.70769  1.0000 -0.1200444991
C   C81       1.0  0.98968  0.70769  0.37316  1.0000 -0.1200444991
C   C82       1.0  0.29231  0.01032  0.62684  1.0000 -0.1200444991
C   C83       1.0  0.01032  0.62684  0.29231  1.0000 -0.1200444991
C   C84       1.0  0.62684  0.29231  0.01032  1.0000 -0.1200444991
C   C85       1.0  0.29231  0.62684  0.01032  1.0000 -0.1200444991
C   C86       1.0  0.62684  0.01032  0.29231  1.0000 -0.1200444991
C   C87       1.0  0.01032  0.29231  0.62684  1.0000 -0.1200444991
C   C88       1.0  0.70769  0.98968  0.37316  1.0000 -0.1200444991
C   C89       1.0  0.98968  0.37316  0.70769  1.0000 -0.1200444991
C   C90       1.0  0.37316  0.70769  0.98968  1.0000 -0.1200444991
C   C91       1.0  0.79958  0.62413  0.79958  1.0000 0.0533391357
C   C92       1.0  0.62413  0.79958  0.79958  1.0000 0.0533391357
C   C93       1.0  0.79958  0.79958  0.62413  1.0000 0.0533391357
C   C94       1.0  0.20042  0.20042  0.37587  1.0000 0.0533391357
C   C95       1.0  0.20042  0.37587  0.20042  1.0000 0.0533391357
C   C96       1.0  0.37587  0.20042  0.20042  1.0000 0.0533391357
C   C97       1.0  0.40392  0.40392  0.22882  1.0000 0.0794615332
C   C98       1.0  0.40392  0.22882  0.40392  1.0000 0.0794615332
C   C99       1.0  0.22882  0.40392  0.40392  1.0000 0.0794615332
C   C100      1.0  0.59608  0.77118  0.59608  1.0000 0.0794615332
C   C101      1.0  0.77118  0.59608  0.59608  1.0000 0.0794615332
C   C102      1.0  0.59608  0.59608  0.77118  1.0000 0.0794615332
C   C103      1.0  0.35260  0.35260  0.99260  1.0000 0.5274028488
C   C104      1.0  0.35260  0.99260  0.35260  1.0000 0.5274028488
C   C105      1.0  0.99260  0.35260  0.35260  1.0000 0.5274028488
C   C106      1.0  0.64740  0.00740  0.64740  1.0000 0.5274028488
C   C107      1.0  0.00740  0.64740  0.64740  1.0000 0.5274028488
C   C108      1.0  0.64740  0.64740  0.00740  1.0000 0.5274028488
C   C109      1.0  0.37820  0.37820  0.29700  1.0000 0.3459740886
C   C110      1.0  0.37820  0.29700  0.37820  1.0000 0.3459740886
C   C111      1.0  0.29700  0.37820  0.37820  1.0000 0.3459740886
C   C112      1.0  0.62180  0.70300  0.62180  1.0000 0.3459740886
C   C113      1.0  0.70300  0.62180  0.62180  1.0000 0.3459740886
C   C114      1.0  0.62180  0.62180  0.70300  1.0000 0.3459740886
C   C115      1.0  0.36910  0.45610  0.19370  1.0000 -0.1677293806
C   C116      1.0  0.45610  0.19370  0.36910  1.0000 -0.1677293806
C   C117      1.0  0.19370  0.36910  0.45610  1.0000 -0.1677293806
C   C118      1.0  0.63090  0.80630  0.54390  1.0000 -0.1677293806
C   C119      1.0  0.80630  0.54390  0.63090  1.0000 -0.1677293806
C   C120      1.0  0.54390  0.63090  0.80630  1.0000 -0.1677293806
C   C121      1.0  0.63090  0.54390  0.80630  1.0000 -0.1677293806
C   C122      1.0  0.54390  0.80630  0.63090  1.0000 -0.1677293806
C   C123      1.0  0.80630  0.63090  0.54390  1.0000 -0.1677293806
C   C124      1.0  0.36910  0.19370  0.45610  1.0000 -0.1677293806
C   C125      1.0  0.19370  0.45610  0.36910  1.0000 -0.1677293806
C   C126      1.0  0.45610  0.36910  0.19370  1.0000 -0.1677293806
C   C127      1.0  0.21285  0.21285  0.97450  1.0000 -0.0795157742
C   C128      1.0  0.21285  0.97450  0.21285  1.0000 -0.0795157742
C   C129      1.0  0.97450  0.21285  0.21285  1.0000 -0.0795157742
C   C130      1.0  0.78715  0.02550  0.78715  1.0000 -0.0795157742
C   C131      1.0  0.02550  0.78715  0.78715  1.0000 -0.0795157742
C   C132      1.0  0.78715  0.78715  0.02550  1.0000 -0.0795157742
C   C133      1.0  0.12029  0.30279  0.97319  1.0000 0.4557139137
C   C134      1.0  0.30279  0.97319  0.12029  1.0000 0.4557139137
C   C135      1.0  0.97319  0.12029  0.30279  1.0000 0.4557139137
C   C136      1.0  0.87971  0.02681  0.69721  1.0000 0.4544142493
C   C137      1.0  0.02681  0.69721  0.87971  1.0000 0.4557139137
C   C138      1.0  0.69721  0.87971  0.02681  1.0000 0.4557139137
C   C139      1.0  0.87971  0.69721  0.02681  1.0000 0.4557139137
C   C140      1.0  0.69721  0.02681  0.87971  1.0000 0.4544142493
C   C141      1.0  0.02681  0.87971  0.69721  1.0000 0.4557139137
C   C142      1.0  0.12029  0.97319  0.30279  1.0000 0.4544142493
C   C143      1.0  0.97319  0.30279  0.12029  1.0000 0.4544142493
C   C144      1.0  0.30279  0.12029  0.97319  1.0000 0.4557139137
C   C145      1.0  0.38517  0.46897  0.12777  1.0000 0.0868735136
C   C146      1.0  0.46897  0.12777  0.38517  1.0000 0.0868735136
C   C147      1.0  0.12777  0.38517  0.46897  1.0000 0.0868735136
C   C148      1.0  0.61483  0.87223  0.53103  1.0000 0.0868735136
C   C149      1.0  0.87223  0.53103  0.61483  1.0000 0.0868735136
C   C150      1.0  0.53103  0.61483  0.87223  1.0000 0.0868735136
C   C151      1.0  0.61483  0.53103  0.87223  1.0000 0.0868735136
C   C152      1.0  0.53103  0.87223  0.61483  1.0000 0.0868735136
C   C153      1.0  0.87223  0.61483  0.53103  1.0000 0.0868735136
C   C154      1.0  0.38517  0.12777  0.46897  1.0000 0.0868735136
C   C155      1.0  0.12777  0.46897  0.38517  1.0000 0.0868735136
C   C156      1.0  0.46897  0.38517  0.12777  1.0000 0.0868735136
C   C157      1.0  0.19161  0.27981  0.97621  1.0000 -0.0471367213
C   C158      1.0  0.27981  0.97621  0.19161  1.0000 -0.0471367213
C   C159      1.0  0.97621  0.19161  0.27981  1.0000 -0.0471367213
C   C160      1.0  0.80839  0.02379  0.72019  1.0000 -0.0471367213
C   C161      1.0  0.02379  0.72019  0.80839  1.0000 -0.0471367213
C   C162      1.0  0.72019  0.80839  0.02379  1.0000 -0.0471367213
C   C163      1.0  0.80839  0.72019  0.02379  1.0000 -0.0471367213
C   C164      1.0  0.72019  0.02379  0.80839  1.0000 -0.0471367213
C   C165      1.0  0.02379  0.80839  0.72019  1.0000 -0.0471367213
C   C166      1.0  0.19161  0.97621  0.27981  1.0000 -0.0471367213
C   C167      1.0  0.97621  0.27981  0.19161  1.0000 -0.0471367213
C   C168      1.0  0.27981  0.19161  0.97621  1.0000 -0.0471367213
C   C169      1.0  0.23771  0.32575  0.98203  1.0000 -0.1200444991
C   C170      1.0  0.32575  0.98203  0.23771  1.0000 -0.1200444991
C   C171      1.0  0.98203  0.23771  0.32575  1.0000 -0.1200444991
C   C172      1.0  0.76229  0.01797  0.67425  1.0000 -0.1200444991
C   C173      1.0  0.01797  0.67425  0.76229  1.0000 -0.1200444991
C   C174      1.0  0.67425  0.76229  0.01797  1.0000 -0.1200444991
C   C175      1.0  0.76229  0.67425  0.01797  1.0000 -0.1200444991
C   C176      1.0  0.67425  0.01797  0.76229  1.0000 -0.1200444991
C   C177      1.0  0.01797  0.76229  0.67425  1.0000 -0.1200444991
C   C178      1.0  0.23771  0.98203  0.32575  1.0000 -0.1200444991
C   C179      1.0  0.98203  0.32575  0.23771  1.0000 -0.1200444991
C   C180      1.0  0.32575  0.23771  0.98203  1.0000 -0.1200444991
N   N1        1.0  0.43390  0.43390  0.09380  1.0000 -0.2531682244
N   N2        1.0  0.43390  0.09380  0.43390  1.0000 -0.2531682244
N   N3        1.0  0.09380  0.43390  0.43390  1.0000 -0.2531682244
N   N4        1.0  0.56610  0.90620  0.56610  1.0000 -0.2531682244
N   N5        1.0  0.90620  0.56610  0.56610  1.0000 -0.2531682244
N   N6        1.0  0.56610  0.56610  0.90620  1.0000 -0.2531682244
N   N7        1.0  0.41000  0.32224  0.32224  1.0000 -0.4126252971
N   N8        1.0  0.32224  0.32224  0.41000  1.0000 -0.4126252971
N   N9        1.0  0.32224  0.41000  0.32224  1.0000 -0.4126252971
N   N10       1.0  0.59000  0.67776  0.67776  1.0000 -0.4126252971
N   N11       1.0  0.67776  0.67776  0.59000  1.0000 -0.4126252971
N   N12       1.0  0.67776  0.59000  0.67776  1.0000 -0.4126252971
N   N13       1.0  0.86596  0.51625  0.86596  1.0000 -0.2408011721
N   N14       1.0  0.51625  0.86595  0.86596  1.0000 -0.2408011721
N   N15       1.0  0.86596  0.86595  0.51625  1.0000 -0.2408011721
N   N16       1.0  0.13404  0.13404  0.48375  1.0000 -0.2408011721
N   N17       1.0  0.13405  0.48375  0.13404  1.0000 -0.2408011721
N   N18       1.0  0.48375  0.13404  0.13404  1.0000 -0.2408011721
N   N19       1.0  0.79682  0.71052  0.71052  1.0000 -0.3813255421
N   N20       1.0  0.71052  0.71052  0.79682  1.0000 -0.3813255421
N   N21       1.0  0.71052  0.79682  0.71052  1.0000 -0.3813255421
N   N22       1.0  0.20318  0.28948  0.28948  1.0000 -0.3813255421
N   N23       1.0  0.28948  0.28948  0.20318  1.0000 -0.3813255421
N   N24       1.0  0.28948  0.20318  0.28948  1.0000 -0.3813255421
O   O1        1.0  0.84011  0.39656  0.95302  1.0000 -0.5500035675
O   O2        1.0  0.39656  0.95302  0.84011  1.0000 -0.5500035675
O   O3        1.0  0.95302  0.84011  0.39656  1.0000 -0.5500035675
O   O4        1.0  0.15989  0.04698  0.60344  1.0000 -0.5500035675
O   O5        1.0  0.04698  0.60344  0.15989  1.0000 -0.5500035675
O   O6        1.0  0.60344  0.15989  0.04698  1.0000 -0.5500035675
O   O7        1.0  0.15989  0.60344  0.04698  1.0000 -0.5500035675
O   O8        1.0  0.60344  0.04698  0.15989  1.0000 -0.5500035675
O   O9        1.0  0.04698  0.15989  0.60344  1.0000 -0.5500035675
O   O10       1.0  0.84011  0.95302  0.39656  1.0000 -0.5500035675
O   O11       1.0  0.95302  0.39656  0.84011  1.0000 -0.5500035675
O   O12       1.0  0.39656  0.84011  0.95302  1.0000 -0.5500035675
O   O13       1.0  0.87282  0.29043  0.98234  1.0000 -0.5500035675
O   O14       1.0  0.29043  0.98234  0.87282  1.0000 -0.5500035675
O   O15       1.0  0.98234  0.87282  0.29043  1.0000 -0.5500035675
O   O16       1.0  0.12718  0.01766  0.70957  1.0000 -0.5500035675
O   O17       1.0  0.01766  0.70957  0.12718  1.0000 -0.5500035675
O   O18       1.0  0.70957  0.12718  0.01766  1.0000 -0.5500035675
O   O19       1.0  0.12718  0.70957  0.01766  1.0000 -0.5500035675
O   O20       1.0  0.70957  0.01766  0.12718  1.0000 -0.5500035675
O   O21       1.0  0.01766  0.12718  0.70957  1.0000 -0.5500035675
O   O22       1.0  0.87282  0.98234  0.29043  1.0000 -0.5500035675
O   O23       1.0  0.98234  0.29043  0.87282  1.0000 -0.5500035675
O   O24       1.0  0.29043  0.87282  0.98234  1.0000 -0.5500035675
O   O25       1.0  0.53272  0.40080  0.98008  1.0000 -0.5400081542
O   O26       1.0  0.40080  0.98008  0.53272  1.0000 -0.5400081542
O   O27       1.0  0.98008  0.53272  0.40080  1.0000 -0.5400081542
O   O28       1.0  0.46728  0.01992  0.59920  1.0000 -0.5400081542
O   O29       1.0  0.01992  0.59920  0.46728  1.0000 -0.5400081542
O   O30       1.0  0.59920  0.46728  0.01992  1.0000 -0.5400081542
O   O31       1.0  0.46728  0.59920  0.01992  1.0000 -0.5400081542
O   O32       1.0  0.59920  0.01992  0.46728  1.0000 -0.5400081542
O   O33       1.0  0.01992  0.46728  0.59920  1.0000 -0.5400081542
O   O34       1.0  0.53272  0.98008  0.40080  1.0000 -0.5400081542
O   O35       1.0  0.98008  0.40080  0.53272  1.0000 -0.5400081542
O   O36       1.0  0.40080  0.53272  0.98008  1.0000 -0.5400081542
O   O37       1.0  0.07855  0.26166  0.97278  1.0000 -0.46255392
O   O38       1.0  0.26166  0.97278  0.07855  1.0000 -0.46255392
O   O39       1.0  0.97278  0.07855  0.26166  1.0000 -0.46255392
O   O40       1.0  0.92145  0.02722  0.73834  1.0000 -0.46255392
O   O41       1.0  0.02722  0.73834  0.92145  1.0000 -0.46255392
O   O42       1.0  0.73834  0.92145  0.02722  1.0000 -0.46255392
O   O43       1.0  0.92145  0.73834  0.02722  1.0000 -0.46255392
O   O44       1.0  0.73834  0.02722  0.92145  1.0000 -0.46255392
O   O45       1.0  0.02722  0.92145  0.73834  1.0000 -0.46255392
O   O46       1.0  0.07855  0.97278  0.26166  1.0000 -0.46255392
O   O47       1.0  0.97278  0.26166  0.07855  1.0000 -0.46255392
O   O48       1.0  0.26166  0.07855  0.97278  1.0000 -0.46255392
O   O49       1.0  0.10166  0.36556  0.98896  1.0000 -0.1200444991
O   O50       1.0  0.36556  0.98896  0.10166  1.0000 -0.1269386679
O   O51       1.0  0.98896  0.10166  0.36556  1.0000 -0.1269386679
O   O52       1.0  0.89834  0.01104  0.63444  1.0000 -0.1269386679
O   O53       1.0  0.01104  0.63444  0.89834  1.0000 -0.1269386679
O   O54       1.0  0.63444  0.89834  0.01104  1.0000 -0.1200444991
O   O55       1.0  0.89834  0.63444  0.01104  1.0000 -0.1269386679
O   O56       1.0  0.63444  0.01104  0.89834  1.0000 -0.1269386679
O   O57       1.0  0.01104  0.89834  0.63444  1.0000 -0.1200444991
O   O58       1.0  0.10166  0.98896  0.36556  1.0000 -0.1200444991
O   O59       1.0  0.98896  0.36556  0.10166  1.0000 -0.1269386679
O   O60       1.0  0.36556  0.10166  0.98896  1.0000 -0.1200444991
O   O61       1.0  0.33325  0.41397  0.99357  1.0000 -0.5400081542
O   O62       1.0  0.41397  0.99357  0.33325  1.0000 -0.5400081542
O   O63       1.0  0.99357  0.33325  0.41397  1.0000 -0.5400081542
O   O64       1.0  0.66675  0.00643  0.58603  1.0000 -0.5400081542
O   O65       1.0  0.00643  0.58603  0.66675  1.0000 -0.5400081542
O   O66       1.0  0.58603  0.66675  0.00643  1.0000 -0.5400081542
O   O67       1.0  0.66675  0.58603  0.00643  1.0000 -0.5400081542
O   O68       1.0  0.58603  0.00643  0.66675  1.0000 -0.5400081542
O   O69       1.0  0.00643  0.66675  0.58603  1.0000 -0.5400081542
O   O70       1.0  0.33325  0.99357  0.41397  1.0000 -0.5400081542
O   O71       1.0  0.99357  0.41397  0.33325  1.0000 -0.5400081542
O   O72       1.0  0.41397  0.33325  0.99357  1.0000 -0.5400081542
O   O73       1.0  0.98295  0.38152  0.98296  1.0000 -0.6091914168
O   O74       1.0  0.38152  0.98296  0.98296  1.0000 -0.6091914168
O   O75       1.0  0.98295  0.98296  0.38152  1.0000 -0.6091914168
O   O76       1.0  0.01704  0.01705  0.61848  1.0000 -0.6091914168
O   O77       1.0  0.01705  0.61848  0.01705  1.0000 -0.6091914168
O   O78       1.0  0.61848  0.01705  0.01705  1.0000 -0.6091914168
O   O79       1.0  0.11000  0.35850  0.93140  1.0000 -0.038389773
O   O80       1.0  0.35850  0.93140  0.11000  1.0000 -0.0299804577
O   O81       1.0  0.93140  0.11000  0.35850  1.0000 -0.0299804577
O   O82       1.0  0.89000  0.06860  0.64150  1.0000 -0.0299804577
O   O83       1.0  0.06860  0.64150  0.89000  1.0000 -0.038389773
O   O84       1.0  0.64150  0.89000  0.06860  1.0000 -0.0299804577
O   O85       1.0  0.89000  0.64150  0.06860  1.0000 -0.038389773
O   O86       1.0  0.64150  0.06860  0.89000  1.0000 -0.038389773
O   O87       1.0  0.06860  0.89000  0.64150  1.0000 -0.038389773
O   O88       1.0  0.11000  0.93140  0.35850  1.0000 -0.0299804577
O   O89       1.0  0.93140  0.35850  0.11000  1.0000 -0.038389773
O   O90       1.0  0.35850  0.11000  0.93140  1.0000 -0.038389773
