# DDEC6 charges by PACMAN v1.1 (https://github.com/mtap-research/PACMAN-charge/)
data_2011[Sc][nan]3[ASR]8
_chemical_formula_sum              "Sc4 H24 C48 O24"
_cell_length_a       8.7047
_cell_length_b       11.2366
_cell_length_c       17.7293
_cell_angle_alpha    84.5437
_cell_angle_beta     75.7896
_cell_angle_gamma    67.211

_symmetry_space_group_name_H-M    "P 1"
_symmetry_Int_Tables_number       1

loop_
  _symmetry_equiv_pos_as_xyz
  'x, y, z'

loop_
  _atom_site_type_symbol
  _atom_site_label
  _atom_site_symmetry_multiplicity
  _atom_site_fract_x
  _atom_site_fract_y
  _atom_site_fract_z
  _atom_site_occupancy
  _atom_site_charge
Sc  Sc1       1.0  0.63573  0.25000  0.72854  1.0000 1.8046957722
Sc  Sc2       1.0  0.11427  0.25000  0.77146  1.0000 1.8046957722
Sc  Sc3       1.0  0.36427  0.75000  0.27146  1.0000 1.8046957722
Sc  Sc4       1.0  0.88573  0.75000  0.22854  1.0000 1.8046957722
H   H1        1.0  0.93320  0.62737  0.75130  1.0000 0.0970646049
H   H2        1.0  0.74261  0.43635  0.51605  1.0000 0.1064645007
H   H3        1.0  0.18143  0.42121  0.59941  1.0000 0.0949164873
H   H4        1.0  0.31551  0.87263  0.75130  1.0000 0.0970646049
H   H5        1.0  0.74134  0.06365  0.51605  1.0000 0.1064645007
H   H6        1.0  0.21916  0.07879  0.59941  1.0000 0.0949164873
H   H7        1.0  0.43943  0.62737  0.74870  1.0000 0.0970646049
H   H8        1.0  0.82105  0.43635  0.98395  1.0000 0.1064645007
H   H9        1.0  0.39736  0.42121  0.90059  1.0000 0.0970646049
H   H10       1.0  0.81186  0.87263  0.74870  1.0000 0.0970646049
H   H11       1.0  0.19500  0.06365  0.98395  1.0000 0.1064645007
H   H12       1.0  0.70205  0.07879  0.90059  1.0000 0.0970646049
H   H13       1.0  0.06680  0.37263  0.24870  1.0000 0.0970646049
H   H14       1.0  0.25739  0.56365  0.48395  1.0000 0.1064645007
H   H15       1.0  0.81857  0.57879  0.40059  1.0000 0.0949164873
H   H16       1.0  0.68449  0.12737  0.24870  1.0000 0.0970646049
H   H17       1.0  0.25431  0.93902  0.48698  1.0000 0.1064645007
H   H18       1.0  0.78099  0.92134  0.40068  1.0000 0.0970646049
H   H19       1.0  0.56057  0.37263  0.25130  1.0000 0.0970646049
H   H20       1.0  0.17895  0.56365  0.01605  1.0000 0.1064645007
H   H21       1.0  0.60301  0.57866  0.09932  1.0000 0.0970646049
H   H22       1.0  0.18814  0.12737  0.25130  1.0000 0.0970646049
H   H23       1.0  0.80500  0.93635  0.01605  1.0000 0.1064645007
H   H24       1.0  0.29767  0.92134  0.09932  1.0000 0.0970646049
C   C1        1.0  0.01956  0.68238  0.75038  1.0000 -0.0832431345
C   C2        1.0  0.90077  0.35970  0.63296  1.0000 0.6399943005
C   C3        1.0  0.95257  0.43518  0.56408  1.0000 -0.0430113345
C   C4        1.0  0.85497  0.46814  0.50852  1.0000 -0.0832431345
C   C5        1.0  0.09842  0.45970  0.55506  1.0000 -0.0832431345
C   C6        1.0  0.23006  0.81762  0.75038  1.0000 -0.0832431345
C   C7        1.0  0.46627  0.14030  0.63296  1.0000 0.6399943005
C   C8        1.0  0.48335  0.06482  0.56408  1.0000 -0.0430113345
C   C9        1.0  0.63651  0.03186  0.50852  1.0000 -0.0832431345
C   C10       1.0  0.34652  0.04030  0.55506  1.0000 -0.0832431345
C   C11       1.0  0.29806  0.68238  0.74962  1.0000 -0.0832431345
C   C12       1.0  0.73953  0.35970  0.86704  1.0000 0.6399943005
C   C13       1.0  0.61225  0.43518  0.93592  1.0000 -0.0430113345
C   C14       1.0  0.67689  0.46814  0.99148  1.0000 -0.0832431345
C   C15       1.0  0.44188  0.45970  0.94494  1.0000 -0.0832431345
C   C16       1.0  0.95232  0.81762  0.74962  1.0000 -0.0832431345
C   C17       1.0  0.39343  0.14030  0.86704  1.0000 0.6399943005
C   C18       1.0  0.45183  0.06482  0.93592  1.0000 -0.0430113345
C   C19       1.0  0.33163  0.03186  0.99148  1.0000 -0.0832431345
C   C20       1.0  0.61318  0.04030  0.94494  1.0000 -0.0832431345
C   C21       1.0  0.98044  0.31762  0.24962  1.0000 -0.0832431345
C   C22       1.0  0.09923  0.64030  0.36704  1.0000 0.6399943005
C   C23       1.0  0.04743  0.56482  0.43592  1.0000 -0.0430113345
C   C24       1.0  0.14503  0.53186  0.49148  1.0000 -0.0832431345
C   C25       1.0  0.90158  0.54030  0.44494  1.0000 -0.0832431345
C   C26       1.0  0.76994  0.18238  0.24962  1.0000 -0.0832431345
C   C27       1.0  0.53373  0.85970  0.36704  1.0000 0.6399943005
C   C28       1.0  0.51665  0.93518  0.43592  1.0000 -0.0430113345
C   C29       1.0  0.36349  0.96814  0.49148  1.0000 -0.0832431345
C   C30       1.0  0.65348  0.95970  0.44494  1.0000 -0.0832431345
C   C31       1.0  0.70194  0.31762  0.25038  1.0000 -0.0832431345
C   C32       1.0  0.26047  0.64030  0.13296  1.0000 0.6399943005
C   C33       1.0  0.38775  0.56482  0.06408  1.0000 -0.0430113345
C   C34       1.0  0.32311  0.53186  0.00852  1.0000 -0.0832431345
C   C35       1.0  0.55812  0.54030  0.05506  1.0000 -0.0832431345
C   C36       1.0  0.04768  0.18238  0.25038  1.0000 -0.0832431345
C   C37       1.0  0.60657  0.85970  0.13296  1.0000 0.6399943005
C   C38       1.0  0.54817  0.93518  0.06408  1.0000 -0.0430113345
C   C39       1.0  0.66837  0.96814  0.00852  1.0000 -0.0832431345
C   C40       1.0  0.38682  0.95970  0.05506  1.0000 -0.0832431345
C   C41       1.0  0.26234  0.47532  0.75000  1.0000 0.6399943005
C   C42       1.0  0.19115  0.61770  0.75000  1.0000 -0.0593119289
C   C43       1.0  0.98766  0.02468  0.75000  1.0000 0.6399943005
C   C44       1.0  0.05885  0.88230  0.75000  1.0000 -0.0593119289
C   C45       1.0  0.73766  0.52468  0.25000  1.0000 0.6399943005
C   C46       1.0  0.80885  0.38230  0.25000  1.0000 -0.0593119289
C   C47       1.0  0.01234  0.97532  0.25000  1.0000 0.6399943005
C   C48       1.0  0.94115  0.11770  0.25000  1.0000 -0.0593119289
O   O1        1.0  0.42044  0.41644  0.72908  1.0000 -0.6371490488
O   O2        1.0  0.77769  0.33092  0.64170  1.0000 -0.5655619716
O   O3        1.0  0.98653  0.33140  0.68434  1.0000 -0.6371490488
O   O4        1.0  0.85048  0.08356  0.72908  1.0000 -0.6371490488
O   O5        1.0  0.58061  0.16908  0.64170  1.0000 -0.5655619716
O   O6        1.0  0.32913  0.16860  0.68434  1.0000 -0.6371490488
O   O7        1.0  0.16312  0.41644  0.77092  1.0000 -0.6371490488
O   O8        1.0  0.89139  0.33092  0.85830  1.0000 -0.5655619716
O   O9        1.0  0.68207  0.33140  0.81566  1.0000 -0.6371490488
O   O10       1.0  0.06596  0.08356  0.77092  1.0000 -0.6371490488
O   O11       1.0  0.25031  0.16908  0.85830  1.0000 -0.5655619716
O   O12       1.0  0.50227  0.16860  0.81566  1.0000 -0.6371490488
O   O13       1.0  0.57956  0.58356  0.27092  1.0000 -0.6371490488
O   O14       1.0  0.22231  0.66908  0.35830  1.0000 -0.5655619716
O   O15       1.0  0.01347  0.66860  0.31566  1.0000 -0.6371490488
O   O16       1.0  0.14952  0.91644  0.27092  1.0000 -0.6371490488
O   O17       1.0  0.41939  0.83092  0.35830  1.0000 -0.5645278225
O   O18       1.0  0.67087  0.83140  0.31566  1.0000 -0.6371490488
O   O19       1.0  0.83688  0.58356  0.22908  1.0000 -0.6371490488
O   O20       1.0  0.10861  0.66908  0.14170  1.0000 -0.5655619716
O   O21       1.0  0.31793  0.66860  0.18434  1.0000 -0.6371490488
O   O22       1.0  0.93404  0.91644  0.22908  1.0000 -0.6371490488
O   O23       1.0  0.74969  0.83092  0.14170  1.0000 -0.5655619716
O   O24       1.0  0.49773  0.83140  0.18434  1.0000 -0.6371490488
