# DDEC6 charges by PACMAN v1.1 (https://github.com/mtap-research/PACMAN-charge/)
data_2011[Mn][nan]3[ASR]3
_chemical_formula_sum              "Mn3 H12 C21 O15"
_cell_length_a       9.0553
_cell_length_b       9.0553
_cell_length_c       10.8872
_cell_angle_alpha    90
_cell_angle_beta     90
_cell_angle_gamma    120

_symmetry_space_group_name_H-M    "P 1"
_symmetry_Int_Tables_number       1

loop_
  _symmetry_equiv_pos_as_xyz
  'x, y, z'

loop_
  _atom_site_type_symbol
  _atom_site_label
  _atom_site_symmetry_multiplicity
  _atom_site_fract_x
  _atom_site_fract_y
  _atom_site_fract_z
  _atom_site_occupancy
  _atom_site_charge
Mn  Mn1       1.0  0.97000  0.97000  0.50000  1.0000 0.9925454046
Mn  Mn2       1.0  0.03000  0.00000  0.16667  1.0000 0.9925454046
Mn  Mn3       1.0  0.00000  0.03001  0.83333  1.0000 0.9925454046
H   H1        1.0  0.62600  0.87300  0.40300  1.0000 0.3762965188
H   H2        1.0  0.12700  0.75300  0.06967  1.0000 0.3762965188
H   H3        1.0  0.24700  0.37400  0.73633  1.0000 0.3762965188
H   H4        1.0  0.87300  0.62600  0.59700  1.0000 0.3762965188
H   H5        1.0  0.75300  0.12700  0.93033  1.0000 0.3762965188
H   H6        1.0  0.37400  0.24700  0.26367  1.0000 0.3762965188
H   H7        1.0  0.41120  0.92570  0.48950  1.0000 0.1407439123
H   H8        1.0  0.07430  0.48550  0.15617  1.0000 0.1407439123
H   H9        1.0  0.51450  0.58880  0.82283  1.0000 0.1407439123
H   H10       1.0  0.92570  0.41120  0.51050  1.0000 0.1407439123
H   H11       1.0  0.48550  0.07430  0.84383  1.0000 0.1407439123
H   H12       1.0  0.58880  0.51450  0.17717  1.0000 0.1407439123
C   C1        1.0  0.25980  0.00000  0.66667  1.0000 0.577343979
C   C2        1.0  0.00000  0.25980  0.33333  1.0000 0.577343979
C   C3        1.0  0.74020  0.74020  0.00000  1.0000 0.577343979
C   C4        1.0  0.73070  0.00000  0.66667  1.0000 0.1203868325
C   C5        1.0  0.00000  0.73070  0.33333  1.0000 0.1203868325
C   C6        1.0  0.26930  0.26930  0.00000  1.0000 0.1203868325
C   C7        1.0  0.62720  0.95070  0.56246  1.0000 0.1822931057
C   C8        1.0  0.04930  0.67650  0.22913  1.0000 0.1822931057
C   C9        1.0  0.32350  0.37280  0.89579  1.0000 0.1822931057
C   C10       1.0  0.95070  0.62720  0.43754  1.0000 0.1822931057
C   C11       1.0  0.67650  0.04930  0.77087  1.0000 0.1822931057
C   C12       1.0  0.37280  0.32350  0.10421  1.0000 0.1822931057
C   C13       1.0  0.47670  0.95390  0.56065  1.0000 -0.2779640619
C   C14       1.0  0.04610  0.52280  0.22732  1.0000 -0.2779640619
C   C15       1.0  0.47720  0.52330  0.89398  1.0000 -0.2779640619
C   C16       1.0  0.95390  0.47670  0.43935  1.0000 -0.2779640619
C   C17       1.0  0.52280  0.04610  0.77268  1.0000 -0.2779640619
C   C18       1.0  0.52330  0.47720  0.10602  1.0000 -0.2779640619
C   C19       1.0  0.42450  0.00000  0.66667  1.0000 0.0169450769
C   C20       1.0  0.00000  0.42450  0.33333  1.0000 0.0169450769
C   C21       1.0  0.57550  0.57550  0.00000  1.0000 0.0169450769
O   O1        1.0  0.87730  0.00000  0.66667  1.0000 -0.5471698656
O   O2        1.0  0.00000  0.87730  0.33333  1.0000 -0.5471698656
O   O3        1.0  0.12270  0.12270  0.00000  1.0000 -0.5471698656
O   O4        1.0  0.21730  0.04500  0.56949  1.0000 -0.5730293507
O   O5        1.0  0.95500  0.17230  0.23616  1.0000 -0.5730293507
O   O6        1.0  0.82770  0.78270  0.90282  1.0000 -0.5730293507
O   O7        1.0  0.04500  0.21730  0.43051  1.0000 -0.5730293507
O   O8        1.0  0.17230  0.95500  0.76384  1.0000 -0.5730293507
O   O9        1.0  0.78270  0.82770  0.09718  1.0000 -0.5730293507
O   O10       1.0  0.69030  0.90160  0.46516  1.0000 -0.4283658379
O   O11       1.0  0.09840  0.78870  0.13183  1.0000 -0.4283658379
O   O12       1.0  0.21130  0.30970  0.79849  1.0000 -0.4283658379
O   O13       1.0  0.90160  0.69030  0.53484  1.0000 -0.4283658379
O   O14       1.0  0.78870  0.09840  0.86817  1.0000 -0.4283658379
O   O15       1.0  0.30970  0.21130  0.20151  1.0000 -0.4283658379
