# DDEC6 charges by PACMAN v1.1 (https://github.com/mtap-research/PACMAN-charge/)
data_2011[CuNd][stp]3[ASR]1
_chemical_formula_sum              "Nd4 Cu6 H60 C48 N12 O48"
_cell_length_a       13.4567
_cell_length_b       13.4567
_cell_length_c       14.6982
_cell_angle_alpha    90
_cell_angle_beta     90
_cell_angle_gamma    120

_symmetry_space_group_name_H-M    "P 1"
_symmetry_Int_Tables_number       1

loop_
  _symmetry_equiv_pos_as_xyz
  'x, y, z'

loop_
  _atom_site_type_symbol
  _atom_site_label
  _atom_site_symmetry_multiplicity
  _atom_site_fract_x
  _atom_site_fract_y
  _atom_site_fract_z
  _atom_site_occupancy
  _atom_site_charge
Nd  Nd1       1.0  0.66667  0.33333  0.33178  1.0000 2.0761669172
Nd  Nd2       1.0  0.33333  0.66667  0.16822  1.0000 2.0761669172
Nd  Nd3       1.0  0.33333  0.66667  0.66822  1.0000 2.0761669172
Nd  Nd4       1.0  0.66667  0.33333  0.83178  1.0000 2.0761669172
Cu  Cu1       1.0  0.50000  0.00000  0.50000  1.0000 0.7564092768
Cu  Cu2       1.0  0.00000  0.50000  0.50000  1.0000 0.7564092768
Cu  Cu3       1.0  0.50000  0.50000  0.50000  1.0000 0.7564092768
Cu  Cu4       1.0  0.50000  0.00000  0.00000  1.0000 0.7564092768
Cu  Cu5       1.0  0.50000  0.50000  0.00000  1.0000 0.7564092768
Cu  Cu6       1.0  0.00000  0.50000  0.00000  1.0000 0.7564092768
H   H1        1.0  0.32720  0.97510  0.57720  1.0000 0.2585956646
H   H2        1.0  0.02490  0.35210  0.57720  1.0000 0.2585956646
H   H3        1.0  0.64790  0.67280  0.57720  1.0000 0.2585956646
H   H4        1.0  0.35210  0.02490  0.92280  1.0000 0.2585956646
H   H5        1.0  0.67280  0.64790  0.92280  1.0000 0.2585956646
H   H6        1.0  0.97510  0.32720  0.92280  1.0000 0.2585956646
H   H7        1.0  0.67280  0.02490  0.42280  1.0000 0.2585956646
H   H8        1.0  0.97510  0.64790  0.42280  1.0000 0.2585956646
H   H9        1.0  0.35210  0.32720  0.42280  1.0000 0.2585956646
H   H10       1.0  0.64790  0.97510  0.07720  1.0000 0.2585956646
H   H11       1.0  0.32720  0.35210  0.07720  1.0000 0.2585956646
H   H12       1.0  0.02490  0.67280  0.07720  1.0000 0.2585956646
H   H13       1.0  0.31970  0.13760  0.52180  1.0000 0.1306530988
H   H14       1.0  0.86240  0.18210  0.52180  1.0000 0.1306530988
H   H15       1.0  0.81790  0.68030  0.52180  1.0000 0.1306530988
H   H16       1.0  0.18210  0.86240  0.97820  1.0000 0.1306530988
H   H17       1.0  0.68030  0.81790  0.97820  1.0000 0.1306530988
H   H18       1.0  0.13760  0.31970  0.97820  1.0000 0.1306530988
H   H19       1.0  0.68030  0.86240  0.47820  1.0000 0.1306530988
H   H20       1.0  0.13760  0.81790  0.47820  1.0000 0.1306530988
H   H21       1.0  0.18210  0.31970  0.47820  1.0000 0.1306530988
H   H22       1.0  0.81790  0.13760  0.02180  1.0000 0.1306530988
H   H23       1.0  0.31970  0.18210  0.02180  1.0000 0.1306530988
H   H24       1.0  0.86240  0.68030  0.02180  1.0000 0.1306530988
H   H25       1.0  0.29390  0.03970  0.45150  1.0000 0.1412202014
H   H26       1.0  0.96030  0.25420  0.45150  1.0000 0.1412202014
H   H27       1.0  0.74580  0.70610  0.45150  1.0000 0.1412202014
H   H28       1.0  0.25420  0.96030  0.04850  1.0000 0.1412202014
H   H29       1.0  0.70610  0.74580  0.04850  1.0000 0.1412202014
H   H30       1.0  0.03970  0.29390  0.04850  1.0000 0.1412202014
H   H31       1.0  0.70610  0.96030  0.54850  1.0000 0.1412202014
H   H32       1.0  0.03970  0.74580  0.54850  1.0000 0.1412202014
H   H33       1.0  0.25420  0.29390  0.54850  1.0000 0.1412202014
H   H34       1.0  0.74580  0.03970  0.95150  1.0000 0.1412202014
H   H35       1.0  0.29390  0.25420  0.95150  1.0000 0.1412202014
H   H36       1.0  0.96030  0.70610  0.95150  1.0000 0.1412202014
H   H37       1.0  0.39750  0.08130  0.69090  1.0000 0.1508761091
H   H38       1.0  0.91870  0.31620  0.69090  1.0000 0.1508761091
H   H39       1.0  0.68380  0.60250  0.69090  1.0000 0.1508761091
H   H40       1.0  0.31620  0.91870  0.80910  1.0000 0.1508761091
H   H41       1.0  0.60250  0.68380  0.80910  1.0000 0.1508761091
H   H42       1.0  0.08130  0.39750  0.80910  1.0000 0.1508761091
H   H43       1.0  0.60250  0.91870  0.30910  1.0000 0.1508761091
H   H44       1.0  0.08130  0.68380  0.30910  1.0000 0.1508761091
H   H45       1.0  0.31620  0.39750  0.30910  1.0000 0.1508761091
H   H46       1.0  0.68380  0.08130  0.19090  1.0000 0.1508761091
H   H47       1.0  0.39750  0.31620  0.19090  1.0000 0.1508761091
H   H48       1.0  0.91870  0.60250  0.19090  1.0000 0.1508761091
H   H49       1.0  0.45820  0.18960  0.62790  1.0000 0.1567613972
H   H50       1.0  0.81040  0.26860  0.62790  1.0000 0.1567613972
H   H51       1.0  0.73140  0.54180  0.62790  1.0000 0.1567613972
H   H52       1.0  0.26860  0.81040  0.87210  1.0000 0.1567613972
H   H53       1.0  0.54180  0.73140  0.87210  1.0000 0.1567613972
H   H54       1.0  0.18960  0.45820  0.87210  1.0000 0.1567613972
H   H55       1.0  0.54180  0.81040  0.37210  1.0000 0.1567613972
H   H56       1.0  0.18960  0.73140  0.37210  1.0000 0.1567613972
H   H57       1.0  0.26860  0.45820  0.37210  1.0000 0.1567613972
H   H58       1.0  0.73140  0.18960  0.12790  1.0000 0.1567613972
H   H59       1.0  0.45820  0.26860  0.12790  1.0000 0.1567613972
H   H60       1.0  0.81040  0.54180  0.12790  1.0000 0.1567613972
C   C1        1.0  0.45380  0.18210  0.43250  1.0000 0.6146000815
C   C2        1.0  0.81790  0.27170  0.43250  1.0000 0.6146000815
C   C3        1.0  0.72830  0.54620  0.43250  1.0000 0.6146000815
C   C4        1.0  0.27170  0.81790  0.06750  1.0000 0.6146000815
C   C5        1.0  0.54620  0.72830  0.06750  1.0000 0.6146000815
C   C6        1.0  0.18210  0.45380  0.06750  1.0000 0.6146000815
C   C7        1.0  0.54620  0.81790  0.56750  1.0000 0.6146000815
C   C8        1.0  0.18210  0.72830  0.56750  1.0000 0.6146000815
C   C9        1.0  0.27170  0.45380  0.56750  1.0000 0.6146000815
C   C10       1.0  0.72830  0.18210  0.93250  1.0000 0.6146000815
C   C11       1.0  0.45380  0.27170  0.93250  1.0000 0.6146000815
C   C12       1.0  0.81790  0.54620  0.93250  1.0000 0.6146000815
C   C13       1.0  0.35260  0.09740  0.49040  1.0000 -0.2369967209
C   C14       1.0  0.90260  0.25520  0.49040  1.0000 -0.2369967209
C   C15       1.0  0.74480  0.64740  0.49040  1.0000 -0.2369967209
C   C16       1.0  0.25520  0.90260  0.00960  1.0000 -0.2369967209
C   C17       1.0  0.64740  0.74480  0.00960  1.0000 -0.2369967209
C   C18       1.0  0.09740  0.35260  0.00960  1.0000 -0.2369967209
C   C19       1.0  0.64740  0.90260  0.50960  1.0000 -0.2369967209
C   C20       1.0  0.09740  0.74480  0.50960  1.0000 -0.2369967209
C   C21       1.0  0.25520  0.35260  0.50960  1.0000 -0.2369967209
C   C22       1.0  0.74480  0.09740  0.99040  1.0000 -0.2369967209
C   C23       1.0  0.35260  0.25520  0.99040  1.0000 -0.2369967209
C   C24       1.0  0.90260  0.64740  0.99040  1.0000 -0.2369967209
C   C25       1.0  0.44710  0.11350  0.63830  1.0000 -0.2602951918
C   C26       1.0  0.88650  0.33360  0.63830  1.0000 -0.2602951918
C   C27       1.0  0.66640  0.55290  0.63830  1.0000 -0.2602951918
C   C28       1.0  0.33360  0.88650  0.86170  1.0000 -0.2602951918
C   C29       1.0  0.55290  0.66640  0.86170  1.0000 -0.2602951918
C   C30       1.0  0.11350  0.44710  0.86170  1.0000 -0.2602951918
C   C31       1.0  0.55290  0.88650  0.36170  1.0000 -0.2602951918
C   C32       1.0  0.11350  0.66640  0.36170  1.0000 -0.2602951918
C   C33       1.0  0.33360  0.44710  0.36170  1.0000 -0.2602951918
C   C34       1.0  0.66640  0.11350  0.13830  1.0000 -0.2602951918
C   C35       1.0  0.44710  0.33360  0.13830  1.0000 -0.2602951918
C   C36       1.0  0.88650  0.55290  0.13830  1.0000 -0.2602951918
C   C37       1.0  0.56170  0.12320  0.65850  1.0000 0.6528731578
C   C38       1.0  0.87680  0.43850  0.65850  1.0000 0.6528731578
C   C39       1.0  0.56150  0.43830  0.65850  1.0000 0.6528731578
C   C40       1.0  0.43850  0.87680  0.84150  1.0000 0.6528731578
C   C41       1.0  0.43830  0.56150  0.84150  1.0000 0.6528731578
C   C42       1.0  0.12320  0.56170  0.84150  1.0000 0.6528731578
C   C43       1.0  0.43830  0.87680  0.34150  1.0000 0.6528731578
C   C44       1.0  0.12320  0.56150  0.34150  1.0000 0.6528731578
C   C45       1.0  0.43850  0.56170  0.34150  1.0000 0.6528731578
C   C46       1.0  0.56150  0.12320  0.15850  1.0000 0.6528731578
C   C47       1.0  0.56170  0.43850  0.15850  1.0000 0.6528731578
C   C48       1.0  0.87680  0.43830  0.15850  1.0000 0.6528731578
N   N1        1.0  0.38990  0.04090  0.55810  1.0000 -0.2602951918
N   N2        1.0  0.95910  0.34900  0.55810  1.0000 -0.2602951918
N   N3        1.0  0.65100  0.61010  0.55810  1.0000 -0.2602951918
N   N4        1.0  0.34900  0.95910  0.94190  1.0000 -0.2602951918
N   N5        1.0  0.61010  0.65100  0.94190  1.0000 -0.2602951918
N   N6        1.0  0.04090  0.38990  0.94190  1.0000 -0.2602951918
N   N7        1.0  0.61010  0.95910  0.44190  1.0000 -0.2602951918
N   N8        1.0  0.04090  0.65100  0.44190  1.0000 -0.2602951918
N   N9        1.0  0.34900  0.38990  0.44190  1.0000 -0.2602951918
N   N10       1.0  0.65100  0.04090  0.05810  1.0000 -0.2602951918
N   N11       1.0  0.38990  0.34900  0.05810  1.0000 -0.2602951918
N   N12       1.0  0.95910  0.61010  0.05810  1.0000 -0.2602951918
O   O1        1.0  0.54890  0.18550  0.44350  1.0000 -0.6561536895
O   O2        1.0  0.81450  0.36340  0.44350  1.0000 -0.6561536895
O   O3        1.0  0.63660  0.45110  0.44350  1.0000 -0.6561536895
O   O4        1.0  0.36340  0.81450  0.05650  1.0000 -0.6561536895
O   O5        1.0  0.45110  0.63660  0.05650  1.0000 -0.6561536895
O   O6        1.0  0.18550  0.54890  0.05650  1.0000 -0.6561536895
O   O7        1.0  0.45110  0.81450  0.55650  1.0000 -0.6561536895
O   O8        1.0  0.18550  0.63660  0.55650  1.0000 -0.6561536895
O   O9        1.0  0.36340  0.54890  0.55650  1.0000 -0.6561536895
O   O10       1.0  0.63660  0.18550  0.94350  1.0000 -0.6561536895
O   O11       1.0  0.54890  0.36340  0.94350  1.0000 -0.6561536895
O   O12       1.0  0.81450  0.45110  0.94350  1.0000 -0.6561536895
O   O13       1.0  0.44090  0.24270  0.37500  1.0000 -0.6008133399
O   O14       1.0  0.75730  0.19820  0.37500  1.0000 -0.6008133399
O   O15       1.0  0.80180  0.55910  0.37500  1.0000 -0.6008133399
O   O16       1.0  0.19820  0.75730  0.12500  1.0000 -0.6008133399
O   O17       1.0  0.55910  0.80180  0.12500  1.0000 -0.6008133399
O   O18       1.0  0.24270  0.44090  0.12500  1.0000 -0.6008133399
O   O19       1.0  0.55910  0.75730  0.62500  1.0000 -0.6008133399
O   O20       1.0  0.24270  0.80180  0.62500  1.0000 -0.6008133399
O   O21       1.0  0.19820  0.44090  0.62500  1.0000 -0.6008133399
O   O22       1.0  0.80180  0.24270  0.87500  1.0000 -0.6008133399
O   O23       1.0  0.44090  0.19820  0.87500  1.0000 -0.6008133399
O   O24       1.0  0.75730  0.55910  0.87500  1.0000 -0.6008133399
O   O25       1.0  0.59750  0.07310  0.60640  1.0000 -0.5176323957
O   O26       1.0  0.92690  0.52440  0.60640  1.0000 -0.5176323957
O   O27       1.0  0.47560  0.40250  0.60640  1.0000 -0.5176323957
O   O28       1.0  0.52440  0.92690  0.89360  1.0000 -0.5176323957
O   O29       1.0  0.40250  0.47560  0.89360  1.0000 -0.5176323957
O   O30       1.0  0.07310  0.59750  0.89360  1.0000 -0.5176323957
O   O31       1.0  0.40250  0.92690  0.39360  1.0000 -0.5176323957
O   O32       1.0  0.07310  0.47560  0.39360  1.0000 -0.5176323957
O   O33       1.0  0.52440  0.59750  0.39360  1.0000 -0.5176323957
O   O34       1.0  0.47560  0.07310  0.10640  1.0000 -0.5176323957
O   O35       1.0  0.59750  0.52440  0.10640  1.0000 -0.5176323957
O   O36       1.0  0.92690  0.40250  0.10640  1.0000 -0.5176323957
O   O37       1.0  0.61470  0.17960  0.72620  1.0000 -0.643653458
O   O38       1.0  0.82040  0.43510  0.72620  1.0000 -0.643653458
O   O39       1.0  0.56490  0.38530  0.72620  1.0000 -0.643653458
O   O40       1.0  0.43510  0.82040  0.77380  1.0000 -0.643653458
O   O41       1.0  0.38530  0.56490  0.77380  1.0000 -0.643653458
O   O42       1.0  0.17960  0.61470  0.77380  1.0000 -0.643653458
O   O43       1.0  0.38530  0.82040  0.27380  1.0000 -0.643653458
O   O44       1.0  0.17960  0.56490  0.27380  1.0000 -0.643653458
O   O45       1.0  0.43510  0.61470  0.27380  1.0000 -0.643653458
O   O46       1.0  0.56490  0.17960  0.22620  1.0000 -0.643653458
O   O47       1.0  0.61470  0.43510  0.22620  1.0000 -0.643653458
O   O48       1.0  0.82040  0.38530  0.22620  1.0000 -0.643653458
