# DDEC6 charges by PACMAN v1.1 (https://github.com/mtap-research/PACMAN-charge/)
data_2011[Sc][nan]3[ASR]7
_chemical_formula_sum              "Sc4 H24 C48 O24"
_cell_length_a       8.7157
_cell_length_b       11.2406
_cell_length_c       17.7265
_cell_angle_alpha    84.5311
_cell_angle_beta     75.7689
_cell_angle_gamma    67.1893

_symmetry_space_group_name_H-M    "P 1"
_symmetry_Int_Tables_number       1

loop_
  _symmetry_equiv_pos_as_xyz
  'x, y, z'

loop_
  _atom_site_type_symbol
  _atom_site_label
  _atom_site_symmetry_multiplicity
  _atom_site_fract_x
  _atom_site_fract_y
  _atom_site_fract_z
  _atom_site_occupancy
  _atom_site_charge
Sc  Sc1       1.0  0.61445  0.75000  0.27110  1.0000 1.8194821197
Sc  Sc2       1.0  0.13555  0.75000  0.22890  1.0000 1.8194821197
Sc  Sc3       1.0  0.38555  0.25000  0.72890  1.0000 1.8194821197
Sc  Sc4       1.0  0.86445  0.25000  0.77110  1.0000 1.8194821197
H   H1        1.0  0.31132  0.37215  0.24918  1.0000 0.0976863279
H   H2        1.0  0.69559  0.56102  0.48293  1.0000 0.1085319611
H   H3        1.0  0.20303  0.57635  0.39850  1.0000 0.0976863279
H   H4        1.0  0.93949  0.12785  0.24918  1.0000 0.0976863279
H   H5        1.0  0.32149  0.93898  0.48293  1.0000 0.1085319611
H   H6        1.0  0.89847  0.92365  0.39850  1.0000 0.0976863279
H   H7        1.0  0.81653  0.37215  0.25082  1.0000 0.0976863279
H   H8        1.0  0.24339  0.56102  0.01707  1.0000 0.1085319611
H   H9        1.0  0.72062  0.57635  0.10150  1.0000 0.0976863279
H   H10       1.0  0.43265  0.12785  0.25082  1.0000 0.0976863279
H   H11       1.0  0.23954  0.93898  0.01707  1.0000 0.1085319611
H   H12       1.0  0.67788  0.92365  0.10150  1.0000 0.0976863279
H   H13       1.0  0.68868  0.62785  0.75082  1.0000 0.0976863279
H   H14       1.0  0.30643  0.44202  0.51350  1.0000 0.1085319611
H   H15       1.0  0.79697  0.42365  0.60150  1.0000 0.0976863279
H   H16       1.0  0.06051  0.87215  0.75082  1.0000 0.0976863279
H   H17       1.0  0.67851  0.06102  0.51707  1.0000 0.1085319611
H   H18       1.0  0.10347  0.07573  0.60102  1.0000 0.0976863279
H   H19       1.0  0.18347  0.62785  0.74918  1.0000 0.0976863279
H   H20       1.0  0.75661  0.43898  0.98293  1.0000 0.1085319611
H   H21       1.0  0.28021  0.42427  0.89898  1.0000 0.0976863279
H   H22       1.0  0.56735  0.87215  0.74918  1.0000 0.0976863279
H   H23       1.0  0.76194  0.05798  0.98650  1.0000 0.1085319611
H   H24       1.0  0.32081  0.07573  0.89898  1.0000 0.0976863279
C   C1        1.0  0.45181  0.31714  0.24976  1.0000 -0.0773375438
C   C2        1.0  0.89690  0.63924  0.36756  1.0000 0.6522314864
C   C3        1.0  0.95264  0.56290  0.43602  1.0000 -0.0502163042
C   C4        1.0  0.83106  0.53056  0.49152  1.0000 -0.0773375438
C   C5        1.0  0.11466  0.53920  0.44408  1.0000 -0.0773375438
C   C6        1.0  0.79843  0.18286  0.24976  1.0000 -0.0709544373
C   C7        1.0  0.23554  0.86076  0.36756  1.0000 0.6522314864
C   C8        1.0  0.11134  0.93710  0.43602  1.0000 -0.0502163042
C   C9        1.0  0.17742  0.96944  0.49152  1.0000 -0.0773375438
C   C10       1.0  0.94126  0.96080  0.44408  1.0000 -0.0773375438
C   C11       1.0  0.73105  0.31714  0.25024  1.0000 -0.0773375438
C   C12       1.0  0.96386  0.63924  0.13244  1.0000 0.6522314864
C   C13       1.0  0.98446  0.56290  0.06398  1.0000 -0.0502163042
C   C14       1.0  0.13838  0.53056  0.00848  1.0000 -0.0773375438
C   C15       1.0  0.84614  0.53920  0.05592  1.0000 -0.0773375438
C   C16       1.0  0.51871  0.18286  0.25024  1.0000 -0.0773375438
C   C17       1.0  0.40370  0.86076  0.13244  1.0000 0.6522314864
C   C18       1.0  0.45156  0.93710  0.06398  1.0000 -0.0502163042
C   C19       1.0  0.35314  0.96944  0.00848  1.0000 -0.0773375438
C   C20       1.0  0.59794  0.96080  0.05592  1.0000 -0.0773375438
C   C21       1.0  0.54819  0.68286  0.75024  1.0000 -0.0773375438
C   C22       1.0  0.10310  0.36076  0.63244  1.0000 0.6522314864
C   C23       1.0  0.04736  0.43710  0.56398  1.0000 -0.0502163042
C   C24       1.0  0.16894  0.46944  0.50848  1.0000 -0.0773375438
C   C25       1.0  0.88534  0.46080  0.55592  1.0000 -0.0773375438
C   C26       1.0  0.20157  0.81714  0.75024  1.0000 -0.0773375438
C   C27       1.0  0.76446  0.13924  0.63244  1.0000 0.6522314864
C   C28       1.0  0.88866  0.06290  0.56398  1.0000 -0.0502163042
C   C29       1.0  0.82258  0.03056  0.50848  1.0000 -0.0773375438
C   C30       1.0  0.05874  0.03920  0.55592  1.0000 -0.0773375438
C   C31       1.0  0.26895  0.68286  0.74976  1.0000 -0.0773375438
C   C32       1.0  0.03614  0.36076  0.86756  1.0000 0.6522314864
C   C33       1.0  0.01554  0.43710  0.93602  1.0000 -0.0502163042
C   C34       1.0  0.86162  0.46944  0.99152  1.0000 -0.0773375438
C   C35       1.0  0.15386  0.46080  0.94408  1.0000 -0.0773375438
C   C36       1.0  0.48129  0.81714  0.74976  1.0000 -0.0773375438
C   C37       1.0  0.59630  0.13924  0.86756  1.0000 0.6522314864
C   C38       1.0  0.54844  0.06290  0.93602  1.0000 -0.0502163042
C   C39       1.0  0.64686  0.03056  0.99152  1.0000 -0.0773375438
C   C40       1.0  0.40206  0.03920  0.94408  1.0000 -0.0773375438
C   C41       1.0  0.48950  0.52100  0.25000  1.0000 0.6438594627
C   C42       1.0  0.55964  0.38072  0.25000  1.0000 -0.0709544373
C   C43       1.0  0.76050  0.97900  0.25000  1.0000 0.6438594627
C   C44       1.0  0.69036  0.11928  0.25000  1.0000 -0.0709544373
C   C45       1.0  0.51050  0.47900  0.75000  1.0000 0.6438594627
C   C46       1.0  0.44036  0.61928  0.75000  1.0000 -0.0709544373
C   C47       1.0  0.23950  0.02100  0.75000  1.0000 0.6438594627
C   C48       1.0  0.30964  0.88072  0.75000  1.0000 -0.0709544373
O   O1        1.0  0.56510  0.58256  0.27084  1.0000 -0.6288374495
O   O2        1.0  0.74986  0.66928  0.35852  1.0000 -0.5978048127
O   O3        1.0  0.00309  0.66862  0.31544  1.0000 -0.6442563665
O   O4        1.0  0.66406  0.91744  0.27084  1.0000 -0.6288374495
O   O5        1.0  0.39162  0.83072  0.35852  1.0000 -0.5978048127
O   O6        1.0  0.18147  0.83138  0.31544  1.0000 -0.6442563665
O   O7        1.0  0.35234  0.58256  0.22916  1.0000 -0.6288374495
O   O8        1.0  0.08086  0.66928  0.14148  1.0000 -0.5978048127
O   O9        1.0  0.82829  0.66862  0.18456  1.0000 -0.6442563665
O   O10       1.0  0.91850  0.91744  0.22916  1.0000 -0.6288374495
O   O11       1.0  0.27766  0.83072  0.14148  1.0000 -0.5978048127
O   O12       1.0  0.48715  0.83138  0.18456  1.0000 -0.6442563665
O   O13       1.0  0.43490  0.41744  0.72916  1.0000 -0.6288374495
O   O14       1.0  0.25014  0.33072  0.64148  1.0000 -0.5978048127
O   O15       1.0  0.99691  0.33138  0.68456  1.0000 -0.6442563665
O   O16       1.0  0.33594  0.08256  0.72916  1.0000 -0.6288374495
O   O17       1.0  0.60838  0.16928  0.64148  1.0000 -0.5978048127
O   O18       1.0  0.81853  0.16862  0.68456  1.0000 -0.6442563665
O   O19       1.0  0.64766  0.41744  0.77084  1.0000 -0.6288374495
O   O20       1.0  0.91914  0.33072  0.85852  1.0000 -0.5978048127
O   O21       1.0  0.17171  0.33138  0.81544  1.0000 -0.6442563665
O   O22       1.0  0.08150  0.08256  0.77084  1.0000 -0.6288374495
O   O23       1.0  0.72234  0.16928  0.85852  1.0000 -0.5978048127
O   O24       1.0  0.51285  0.16862  0.81544  1.0000 -0.6442563665
