# DDEC6 charges by PACMAN v1.1 (https://github.com/mtap-research/PACMAN-charge/)
data_2011[Gd][nan]3[ASR]2
_chemical_formula_sum              "Gd4 H12 C36 O24"
_cell_length_a       10.3604
_cell_length_b       10.3604
_cell_length_c       14.5059
_cell_angle_alpha    90
_cell_angle_beta     90
_cell_angle_gamma    90

_symmetry_space_group_name_H-M    "P 1"
_symmetry_Int_Tables_number       1

loop_
  _symmetry_equiv_pos_as_xyz
  'x, y, z'

loop_
  _atom_site_type_symbol
  _atom_site_label
  _atom_site_symmetry_multiplicity
  _atom_site_fract_x
  _atom_site_fract_y
  _atom_site_fract_z
  _atom_site_occupancy
  _atom_site_charge
Gd  Gd1       1.0  0.85433  0.85433  0.62500  1.0000 2.0781903362
Gd  Gd2       1.0  0.14567  0.14567  0.12500  1.0000 2.0781903362
Gd  Gd3       1.0  0.14567  0.85433  0.37500  1.0000 2.0781903362
Gd  Gd4       1.0  0.85433  0.14567  0.87500  1.0000 2.0781903362
H   H1        1.0  0.93020  0.44340  0.62830  1.0000 0.1373098904
H   H2        1.0  0.06980  0.55660  0.12830  1.0000 0.1373098904
H   H3        1.0  0.55660  0.93020  0.37830  1.0000 0.1373098904
H   H4        1.0  0.44340  0.06980  0.87830  1.0000 0.1373098904
H   H5        1.0  0.06980  0.44340  0.37170  1.0000 0.1373098904
H   H6        1.0  0.93020  0.55660  0.87170  1.0000 0.1373098904
H   H7        1.0  0.44340  0.93020  0.62170  1.0000 0.1373098904
H   H8        1.0  0.55660  0.06980  0.12170  1.0000 0.1373098904
H   H9        1.0  0.00000  0.10960  0.50000  1.0000 0.1143586432
H   H10       1.0  0.00000  0.89040  0.00000  1.0000 0.1143586432
H   H11       1.0  0.89040  0.00000  0.25000  1.0000 0.1143586432
H   H12       1.0  0.10960  0.00000  0.75000  1.0000 0.1143586432
C   C1        1.0  0.00000  0.61070  0.50000  1.0000 0.6637199765
C   C2        1.0  0.00000  0.38930  0.00000  1.0000 0.6637199765
C   C3        1.0  0.38930  0.00000  0.25000  1.0000 0.6637199765
C   C4        1.0  0.61070  0.00000  0.75000  1.0000 0.6637199765
C   C5        1.0  0.91720  0.18900  0.66060  1.0000 0.6345271393
C   C6        1.0  0.08280  0.81100  0.16060  1.0000 0.6345271393
C   C7        1.0  0.81100  0.91720  0.41060  1.0000 0.6345271393
C   C8        1.0  0.18900  0.08280  0.91060  1.0000 0.6351000761
C   C9        1.0  0.08280  0.18900  0.33940  1.0000 0.6345271393
C   C10       1.0  0.91720  0.81100  0.83940  1.0000 0.6345271393
C   C11       1.0  0.18900  0.91720  0.58940  1.0000 0.6345271393
C   C12       1.0  0.81100  0.08280  0.08940  1.0000 0.6345271393
C   C13       1.0  0.00000  0.46290  0.50000  1.0000 -0.0335687383
C   C14       1.0  0.00000  0.53710  0.00000  1.0000 -0.0335687383
C   C15       1.0  0.53710  0.00000  0.25000  1.0000 -0.0335687383
C   C16       1.0  0.46290  0.00000  0.75000  1.0000 -0.0335687383
C   C17       1.0  0.95880  0.39780  0.57700  1.0000 -0.094302682
C   C18       1.0  0.04120  0.60220  0.07700  1.0000 -0.094302682
C   C19       1.0  0.60220  0.95880  0.32700  1.0000 -0.094302682
C   C20       1.0  0.39780  0.04120  0.82700  1.0000 -0.094302682
C   C21       1.0  0.04120  0.39780  0.42300  1.0000 -0.094302682
C   C22       1.0  0.95880  0.60220  0.92300  1.0000 -0.094302682
C   C23       1.0  0.39780  0.95880  0.67300  1.0000 -0.094302682
C   C24       1.0  0.60220  0.04120  0.17300  1.0000 -0.094302682
C   C25       1.0  0.96010  0.26250  0.57800  1.0000 -0.0413500111
C   C26       1.0  0.03990  0.73750  0.07800  1.0000 -0.0413500111
C   C27       1.0  0.73750  0.96010  0.32800  1.0000 -0.0413500111
C   C28       1.0  0.26250  0.03990  0.82800  1.0000 -0.0413500111
C   C29       1.0  0.03990  0.26250  0.42200  1.0000 -0.0413500111
C   C30       1.0  0.96010  0.73750  0.92200  1.0000 -0.0413500111
C   C31       1.0  0.26250  0.96010  0.67200  1.0000 -0.0413500111
C   C32       1.0  0.73750  0.03990  0.17200  1.0000 -0.0413500111
C   C33       1.0  0.00000  0.19940  0.50000  1.0000 -0.1075444723
C   C34       1.0  0.00000  0.80060  0.00000  1.0000 -0.1075444723
C   C35       1.0  0.80060  0.00000  0.25000  1.0000 -0.1075444723
C   C36       1.0  0.19940  0.00000  0.75000  1.0000 -0.1075444723
O   O1        1.0  0.93080  0.66450  0.55860  1.0000 -0.6700890863
O   O2        1.0  0.06920  0.33550  0.05860  1.0000 -0.6700890863
O   O3        1.0  0.33550  0.93080  0.30860  1.0000 -0.6700890863
O   O4        1.0  0.66450  0.06920  0.80860  1.0000 -0.6700890863
O   O5        1.0  0.06920  0.66450  0.44140  1.0000 -0.6700890863
O   O6        1.0  0.93080  0.33550  0.94140  1.0000 -0.6700890863
O   O7        1.0  0.66450  0.93080  0.69140  1.0000 -0.6700890863
O   O8        1.0  0.33550  0.06920  0.19140  1.0000 -0.6700890863
O   O9        1.0  0.91050  0.24750  0.73620  1.0000 -0.6464517022
O   O10       1.0  0.08950  0.75250  0.23620  1.0000 -0.6464517022
O   O11       1.0  0.75250  0.91050  0.48620  1.0000 -0.6464517022
O   O12       1.0  0.24750  0.08950  0.98620  1.0000 -0.6464517022
O   O13       1.0  0.08950  0.24750  0.26380  1.0000 -0.6464517022
O   O14       1.0  0.91050  0.75250  0.76380  1.0000 -0.6464517022
O   O15       1.0  0.24750  0.91050  0.51380  1.0000 -0.6464517022
O   O16       1.0  0.75250  0.08950  0.01380  1.0000 -0.6464517022
O   O17       1.0  0.89310  0.07240  0.65450  1.0000 -0.6772930378
O   O18       1.0  0.10690  0.92760  0.15450  1.0000 -0.6772930378
O   O19       1.0  0.92760  0.89310  0.40450  1.0000 -0.6772930378
O   O20       1.0  0.07240  0.10690  0.90450  1.0000 -0.6772930378
O   O21       1.0  0.10690  0.07240  0.34550  1.0000 -0.6772930378
O   O22       1.0  0.89310  0.92760  0.84550  1.0000 -0.6772930378
O   O23       1.0  0.07240  0.89310  0.59550  1.0000 -0.6772930378
O   O24       1.0  0.92760  0.10690  0.09550  1.0000 -0.6772930378
