# DDEC6 charges by PACMAN v1.1 (https://github.com/mtap-research/PACMAN-charge/)
data_2011[AgSm][rtl]3[ASR]1
_chemical_formula_sum              "Sm4 Ag4 H44 C56 N8 O24"
_cell_length_a       16.1703
_cell_length_b       15.1042
_cell_length_c       7.9858
_cell_angle_alpha    90
_cell_angle_beta     92.845
_cell_angle_gamma    90

_symmetry_space_group_name_H-M    "P 1"
_symmetry_Int_Tables_number       1

loop_
  _symmetry_equiv_pos_as_xyz
  'x, y, z'

loop_
  _atom_site_type_symbol
  _atom_site_label
  _atom_site_symmetry_multiplicity
  _atom_site_fract_x
  _atom_site_fract_y
  _atom_site_fract_z
  _atom_site_occupancy
  _atom_site_charge
Sm  Sm1       1.0  0.95161  0.88652  0.04660  1.0000 2.1434535101
Sm  Sm2       1.0  0.04839  0.11348  0.95340  1.0000 2.1434535101
Sm  Sm3       1.0  0.04839  0.38652  0.45340  1.0000 2.1434535101
Sm  Sm4       1.0  0.95161  0.61348  0.54660  1.0000 2.1434535101
Ag  Ag1       1.0  0.52766  0.23590  0.40082  1.0000 0.2327129111
Ag  Ag2       1.0  0.47234  0.76410  0.59918  1.0000 0.2327129111
Ag  Ag3       1.0  0.47234  0.73590  0.09918  1.0000 0.2327129111
Ag  Ag4       1.0  0.52766  0.26410  0.90082  1.0000 0.2327129111
H   H1        1.0  0.73724  0.60647  0.85926  1.0000 0.1118374556
H   H2        1.0  0.26276  0.39353  0.14074  1.0000 0.1118374556
H   H3        1.0  0.26276  0.10647  0.64074  1.0000 0.1118374556
H   H4        1.0  0.73724  0.89353  0.35926  1.0000 0.1118374556
H   H5        1.0  0.59789  0.60644  0.97781  1.0000 0.0602672413
H   H6        1.0  0.40211  0.39356  0.02219  1.0000 0.0602672413
H   H7        1.0  0.40211  0.10644  0.52219  1.0000 0.0602672413
H   H8        1.0  0.59789  0.89356  0.47781  1.0000 0.0602672413
H   H9        1.0  0.59705  0.88600  0.00139  1.0000 0.0602672413
H   H10       1.0  0.40295  0.11400  0.99861  1.0000 0.0602672413
H   H11       1.0  0.40295  0.38600  0.49861  1.0000 0.0602672413
H   H12       1.0  0.59705  0.61400  0.50139  1.0000 0.0602672413
H   H13       1.0  0.73720  0.89322  0.88952  1.0000 0.1118374556
H   H14       1.0  0.26280  0.10678  0.11048  1.0000 0.1118374556
H   H15       1.0  0.26280  0.39322  0.61048  1.0000 0.1118374556
H   H16       1.0  0.73720  0.60678  0.38952  1.0000 0.1118374556
H   H17       1.0  0.71815  0.00206  0.16714  1.0000 0.1118374556
H   H18       1.0  0.28185  0.99794  0.83286  1.0000 0.1118374556
H   H19       1.0  0.28185  0.50206  0.33286  1.0000 0.1118374556
H   H20       1.0  0.71815  0.49794  0.66714  1.0000 0.1118374556
H   H21       1.0  0.58841  0.07064  0.25854  1.0000 0.0602672413
H   H22       1.0  0.41159  0.92936  0.74146  1.0000 0.0602672413
H   H23       1.0  0.41159  0.57064  0.24146  1.0000 0.0602672413
H   H24       1.0  0.58841  0.42936  0.75854  1.0000 0.0602672413
H   H25       1.0  0.70771  0.31784  0.32968  1.0000 0.0781126373
H   H26       1.0  0.29229  0.68216  0.67032  1.0000 0.0781126373
H   H27       1.0  0.29229  0.81784  0.17032  1.0000 0.0781126373
H   H28       1.0  0.70771  0.18216  0.82968  1.0000 0.0781126373
H   H29       1.0  0.83941  0.25712  0.23036  1.0000 0.1333371565
H   H30       1.0  0.16059  0.74288  0.76964  1.0000 0.1333371565
H   H31       1.0  0.16059  0.75712  0.26964  1.0000 0.1333371565
H   H32       1.0  0.83941  0.24288  0.73036  1.0000 0.1333371565
H   H33       1.0  0.83440  0.05729  0.51351  1.0000 0.141864942
H   H34       1.0  0.16560  0.94271  0.48649  1.0000 0.141864942
H   H35       1.0  0.16560  0.55729  0.98649  1.0000 0.141864942
H   H36       1.0  0.83440  0.44271  0.01351  1.0000 0.141864942
H   H37       1.0  0.82772  0.95674  0.63856  1.0000 0.1505544796
H   H38       1.0  0.17228  0.04326  0.36144  1.0000 0.1505544796
H   H39       1.0  0.17228  0.45674  0.86144  1.0000 0.1505544796
H   H40       1.0  0.82772  0.54326  0.13856  1.0000 0.1505544796
H   H41       1.0  0.90393  0.96707  0.48617  1.0000 0.1740432173
H   H42       1.0  0.09607  0.03293  0.51383  1.0000 0.1740432173
H   H43       1.0  0.09607  0.46707  0.01383  1.0000 0.1740432173
H   H44       1.0  0.90393  0.53293  0.98617  1.0000 0.1740432173
C   C1        1.0  0.83290  0.75119  0.79642  1.0000 0.6483127192
C   C2        1.0  0.16710  0.24881  0.20358  1.0000 0.6483127192
C   C3        1.0  0.16710  0.25119  0.70358  1.0000 0.6483127192
C   C4        1.0  0.83290  0.74881  0.29642  1.0000 0.6483127192
C   C5        1.0  0.74903  0.74983  0.86440  1.0000 -0.0209659927
C   C6        1.0  0.25097  0.25017  0.13560  1.0000 -0.0209659927
C   C7        1.0  0.25097  0.24983  0.63560  1.0000 -0.0209659927
C   C8        1.0  0.74903  0.75017  0.36440  1.0000 -0.0209659927
C   C9        1.0  0.70732  0.66915  0.88912  1.0000 -0.1318492856
C   C10       1.0  0.29268  0.33085  0.11088  1.0000 -0.1318492856
C   C11       1.0  0.29268  0.16915  0.61088  1.0000 -0.1318492856
C   C12       1.0  0.70732  0.83085  0.38912  1.0000 -0.1318492856
C   C13       1.0  0.62973  0.66930  0.95569  1.0000 0.0414739378
C   C14       1.0  0.37027  0.33070  0.04431  1.0000 0.0414739378
C   C15       1.0  0.37027  0.16930  0.54431  1.0000 0.0414739378
C   C16       1.0  0.62973  0.83070  0.45569  1.0000 0.0414739378
C   C17       1.0  0.62953  0.82496  0.96945  1.0000 0.0462063677
C   C18       1.0  0.37047  0.17504  0.03055  1.0000 0.0462063677
C   C19       1.0  0.37047  0.32496  0.53055  1.0000 0.0462063677
C   C20       1.0  0.62953  0.67504  0.46945  1.0000 0.0462063677
C   C21       1.0  0.70799  0.82862  0.90663  1.0000 -0.1318492856
C   C22       1.0  0.29201  0.17138  0.09337  1.0000 -0.1318492856
C   C23       1.0  0.29201  0.32862  0.59337  1.0000 -0.1318492856
C   C24       1.0  0.70799  0.67138  0.40663  1.0000 -0.1318492856
C   C25       1.0  0.86744  0.08452  0.13664  1.0000 0.6348055318
C   C26       1.0  0.13256  0.91548  0.86336  1.0000 0.6348055318
C   C27       1.0  0.13256  0.58452  0.36336  1.0000 0.6348055318
C   C28       1.0  0.86744  0.41548  0.63664  1.0000 0.6348055318
C   C29       1.0  0.78995  0.12405  0.19276  1.0000 -0.0209659927
C   C30       1.0  0.21005  0.87595  0.80724  1.0000 -0.0209659927
C   C31       1.0  0.21005  0.62405  0.30724  1.0000 -0.0209659927
C   C32       1.0  0.78995  0.37595  0.69276  1.0000 -0.0209659927
C   C33       1.0  0.71744  0.07226  0.20177  1.0000 -0.1454040691
C   C34       1.0  0.28256  0.92774  0.79823  1.0000 -0.1454040691
C   C35       1.0  0.28256  0.57226  0.29823  1.0000 -0.1454040691
C   C36       1.0  0.71744  0.42774  0.70177  1.0000 -0.1454040691
C   C37       1.0  0.64516  0.11034  0.25346  1.0000 0.0325591784
C   C38       1.0  0.35484  0.88966  0.74654  1.0000 0.0325591784
C   C39       1.0  0.35484  0.61034  0.24654  1.0000 0.0325591784
C   C40       1.0  0.64516  0.38966  0.75346  1.0000 0.0325591784
C   C41       1.0  0.71119  0.24822  0.29161  1.0000 0.0602672413
C   C42       1.0  0.28881  0.75178  0.70839  1.0000 0.0602672413
C   C43       1.0  0.28881  0.74822  0.20839  1.0000 0.0602672413
C   C44       1.0  0.71119  0.25178  0.79161  1.0000 0.0602672413
C   C45       1.0  0.78494  0.21427  0.23680  1.0000 -0.1194644705
C   C46       1.0  0.21506  0.78573  0.76320  1.0000 -0.1194644705
C   C47       1.0  0.21506  0.71427  0.26320  1.0000 -0.1194644705
C   C48       1.0  0.78494  0.28573  0.73680  1.0000 -0.1194644705
C   C49       1.0  0.92995  0.04321  0.70706  1.0000 0.7255772069
C   C50       1.0  0.07005  0.95679  0.29294  1.0000 0.7248609379
C   C51       1.0  0.07005  0.54321  0.79294  1.0000 0.7255772069
C   C52       1.0  0.92995  0.45679  0.20706  1.0000 0.7255772069
C   C53       1.0  0.86927  0.00414  0.57984  1.0000 -0.5105243608
C   C54       1.0  0.13073  0.99586  0.42016  1.0000 -0.5105243608
C   C55       1.0  0.13073  0.50414  0.92016  1.0000 -0.5105243608
C   C56       1.0  0.86927  0.49586  0.07984  1.0000 -0.5105243608
N   N1        1.0  0.58844  0.74631  0.99611  1.0000 -0.2319989097
N   N2        1.0  0.41156  0.25369  0.00389  1.0000 -0.2319989097
N   N3        1.0  0.41156  0.24631  0.50389  1.0000 -0.2319989097
N   N4        1.0  0.58844  0.75369  0.49611  1.0000 -0.2319989097
N   N5        1.0  0.63976  0.19850  0.30109  1.0000 -0.2319989097
N   N6        1.0  0.36024  0.80150  0.69891  1.0000 -0.2319989097
N   N7        1.0  0.36024  0.69850  0.19891  1.0000 -0.2319989097
N   N8        1.0  0.63976  0.30150  0.80109  1.0000 -0.2319989097
O   O1        1.0  0.85656  0.68426  0.71367  1.0000 -0.6882813409
O   O2        1.0  0.14344  0.31574  0.28633  1.0000 -0.6882813409
O   O3        1.0  0.14344  0.18426  0.78633  1.0000 -0.6882813409
O   O4        1.0  0.85656  0.81574  0.21367  1.0000 -0.6882813409
O   O5        1.0  0.87846  0.81985  0.82478  1.0000 -0.7016162411
O   O6        1.0  0.12154  0.18015  0.17522  1.0000 -0.7016162411
O   O7        1.0  0.12154  0.31985  0.67522  1.0000 -0.7016162411
O   O8        1.0  0.87846  0.68015  0.32478  1.0000 -0.7016162411
O   O9        1.0  0.87051  0.99925  0.13748  1.0000 -0.7016162411
O   O10       1.0  0.12949  0.00075  0.86252  1.0000 -0.7016162411
O   O11       1.0  0.12949  0.49925  0.36252  1.0000 -0.7016162411
O   O12       1.0  0.87051  0.50075  0.63748  1.0000 -0.7016162411
O   O13       1.0  0.92501  0.13646  0.09069  1.0000 -0.6721221492
O   O14       1.0  0.07499  0.86354  0.90931  1.0000 -0.6721221492
O   O15       1.0  0.07499  0.63646  0.40931  1.0000 -0.6721221492
O   O16       1.0  0.92501  0.36354  0.59069  1.0000 -0.6721221492
O   O17       1.0  0.94982  0.99851  0.84202  1.0000 -0.8045320794
O   O18       1.0  0.05018  0.00149  0.15798  1.0000 -0.8045320794
O   O19       1.0  0.05018  0.49851  0.65798  1.0000 -0.8045320794
O   O20       1.0  0.94982  0.50149  0.34202  1.0000 -0.8045320794
O   O21       1.0  0.96355  0.11859  0.68563  1.0000 -0.6462267324
O   O22       1.0  0.03645  0.88141  0.31437  1.0000 -0.6462267324
O   O23       1.0  0.03645  0.61859  0.81437  1.0000 -0.6462267324
O   O24       1.0  0.96355  0.38141  0.18563  1.0000 -0.6462267324
