# DDEC6 charges by PACMAN v1.1 (https://github.com/mtap-research/PACMAN-charge/)
data_2011[Ni][nan]3[ASR]1
_chemical_formula_sum              "Ni24 H228 C384 N96 O48"
_cell_length_a       30.238
_cell_length_b       30.238
_cell_length_c       30.238
_cell_angle_alpha    60
_cell_angle_beta     60
_cell_angle_gamma    60

_symmetry_space_group_name_H-M    "P 1"
_symmetry_Int_Tables_number       1

loop_
  _symmetry_equiv_pos_as_xyz
  'x, y, z'

loop_
  _atom_site_type_symbol
  _atom_site_label
  _atom_site_symmetry_multiplicity
  _atom_site_fract_x
  _atom_site_fract_y
  _atom_site_fract_z
  _atom_site_occupancy
  _atom_site_charge
Ni  Ni1       1.0  0.55935  0.39421  0.15535  1.0000 0.3079466158
Ni  Ni2       1.0  0.39109  0.65535  0.05935  1.0000 0.3079466158
Ni  Ni3       1.0  0.39421  0.55935  0.89109  1.0000 0.3079466158
Ni  Ni4       1.0  0.65535  0.39109  0.89421  1.0000 0.3079466158
Ni  Ni5       1.0  0.89109  0.15535  0.39421  1.0000 0.3079466158
Ni  Ni6       1.0  0.05935  0.89421  0.39109  1.0000 0.3079466158
Ni  Ni7       1.0  0.15535  0.89109  0.55935  1.0000 0.3079466158
Ni  Ni8       1.0  0.89421  0.05935  0.65535  1.0000 0.3079466158
Ni  Ni9       1.0  0.15535  0.55935  0.39421  1.0000 0.3079466158
Ni  Ni10      1.0  0.39109  0.89421  0.65535  1.0000 0.3079466158
Ni  Ni11      1.0  0.55935  0.15535  0.89109  1.0000 0.3079466158
Ni  Ni12      1.0  0.89421  0.39109  0.05935  1.0000 0.3079466158
Ni  Ni13      1.0  0.89109  0.39421  0.55935  1.0000 0.3079466158
Ni  Ni14      1.0  0.65535  0.05935  0.39109  1.0000 0.3079466158
Ni  Ni15      1.0  0.39421  0.89109  0.15535  1.0000 0.3079466158
Ni  Ni16      1.0  0.05935  0.65535  0.89421  1.0000 0.3079466158
Ni  Ni17      1.0  0.39421  0.15535  0.55935  1.0000 0.3079466158
Ni  Ni18      1.0  0.65535  0.89421  0.05935  1.0000 0.3079466158
Ni  Ni19      1.0  0.39109  0.05935  0.89421  1.0000 0.3079466158
Ni  Ni20      1.0  0.89421  0.65535  0.39109  1.0000 0.3079466158
Ni  Ni21      1.0  0.05935  0.39109  0.65535  1.0000 0.3079466158
Ni  Ni22      1.0  0.89109  0.55935  0.15535  1.0000 0.3079466158
Ni  Ni23      1.0  0.15535  0.39421  0.89109  1.0000 0.3079466158
Ni  Ni24      1.0  0.55935  0.89109  0.39421  1.0000 0.3079466158
H   H1        1.0  0.63100  0.52520  0.96060  1.0000 0.1165743467
H   H2        1.0  0.38320  0.46060  0.13100  1.0000 0.1165743467
H   H3        1.0  0.52520  0.63100  0.88320  1.0000 0.1165743467
H   H4        1.0  0.46060  0.38320  0.02520  1.0000 0.1165743467
H   H5        1.0  0.88320  0.96060  0.52520  1.0000 0.1165743467
H   H6        1.0  0.13100  0.02520  0.38320  1.0000 0.1165743467
H   H7        1.0  0.96060  0.88320  0.63100  1.0000 0.1165743467
H   H8        1.0  0.02520  0.13100  0.46060  1.0000 0.1165743467
H   H9        1.0  0.96060  0.63100  0.52520  1.0000 0.1165743467
H   H10       1.0  0.38320  0.02520  0.46060  1.0000 0.1165743467
H   H11       1.0  0.63100  0.96060  0.88320  1.0000 0.1165743467
H   H12       1.0  0.02520  0.38320  0.13100  1.0000 0.1165743467
H   H13       1.0  0.88320  0.52520  0.63100  1.0000 0.1165743467
H   H14       1.0  0.46060  0.13100  0.38320  1.0000 0.1165743467
H   H15       1.0  0.52520  0.88320  0.96060  1.0000 0.1165743467
H   H16       1.0  0.13100  0.46060  0.02520  1.0000 0.1165743467
H   H17       1.0  0.52520  0.96060  0.63100  1.0000 0.1165743467
H   H18       1.0  0.46060  0.02520  0.13100  1.0000 0.1165743467
H   H19       1.0  0.38320  0.13100  0.02520  1.0000 0.1165743467
H   H20       1.0  0.02520  0.46060  0.38320  1.0000 0.1165743467
H   H21       1.0  0.13100  0.38320  0.46060  1.0000 0.1165743467
H   H22       1.0  0.88320  0.63100  0.96060  1.0000 0.1165743467
H   H23       1.0  0.96060  0.52520  0.88320  1.0000 0.1165743467
H   H24       1.0  0.63100  0.88320  0.52520  1.0000 0.1165743467
H   H25       1.0  0.60420  0.60420  0.89580  1.0000 0.1086445931
H   H26       1.0  0.39580  0.39580  0.10420  1.0000 0.1086445931
H   H27       1.0  0.89580  0.89580  0.60420  1.0000 0.1086445931
H   H28       1.0  0.10420  0.10420  0.39580  1.0000 0.1086445931
H   H29       1.0  0.89580  0.60420  0.60420  1.0000 0.1086445931
H   H30       1.0  0.39580  0.10420  0.39580  1.0000 0.1086445931
H   H31       1.0  0.60420  0.89580  0.89580  1.0000 0.1086445931
H   H32       1.0  0.10420  0.39580  0.10420  1.0000 0.1086445931
H   H33       1.0  0.60420  0.89580  0.60420  1.0000 0.1086445931
H   H34       1.0  0.39580  0.10420  0.10420  1.0000 0.1086445931
H   H35       1.0  0.10420  0.39580  0.39580  1.0000 0.1086445931
H   H36       1.0  0.89580  0.60420  0.89580  1.0000 0.1086445931
H   H37       1.0  0.53010  0.36950  0.09010  1.0000 0.1086445931
H   H38       1.0  0.51030  0.59010  0.03010  1.0000 0.1086445931
H   H39       1.0  0.36950  0.53010  0.01030  1.0000 0.1086445931
H   H40       1.0  0.59010  0.51030  0.86950  1.0000 0.1086445931
H   H41       1.0  0.01030  0.09010  0.36950  1.0000 0.1086445931
H   H42       1.0  0.03010  0.86950  0.51030  1.0000 0.1086445931
H   H43       1.0  0.09010  0.01030  0.53010  1.0000 0.1086445931
H   H44       1.0  0.86950  0.03010  0.59010  1.0000 0.1086445931
H   H45       1.0  0.09010  0.53010  0.36950  1.0000 0.1086445931
H   H46       1.0  0.51030  0.86950  0.59010  1.0000 0.1086445931
H   H47       1.0  0.53010  0.09010  0.01030  1.0000 0.1086445931
H   H48       1.0  0.86950  0.51030  0.03010  1.0000 0.1086445931
H   H49       1.0  0.01030  0.36950  0.53010  1.0000 0.1086445931
H   H50       1.0  0.59010  0.03010  0.51030  1.0000 0.1086445931
H   H51       1.0  0.36950  0.01030  0.09010  1.0000 0.1086445931
H   H52       1.0  0.03010  0.59010  0.86950  1.0000 0.1086445931
H   H53       1.0  0.36950  0.09010  0.53010  1.0000 0.1086445931
H   H54       1.0  0.59010  0.86950  0.03010  1.0000 0.1086445931
H   H55       1.0  0.51030  0.03010  0.86950  1.0000 0.1086445931
H   H56       1.0  0.86950  0.59010  0.51030  1.0000 0.1086445931
H   H57       1.0  0.03010  0.51030  0.59010  1.0000 0.1086445931
H   H58       1.0  0.01030  0.53010  0.09010  1.0000 0.1086445931
H   H59       1.0  0.09010  0.36950  0.01030  1.0000 0.1086445931
H   H60       1.0  0.53010  0.01030  0.36950  1.0000 0.1086445931
H   H61       1.0  0.52170  0.29770  0.08870  1.0000 0.1367884724
H   H62       1.0  0.59190  0.58870  0.02170  1.0000 0.1367884724
H   H63       1.0  0.29770  0.52170  0.09190  1.0000 0.1367884724
H   H64       1.0  0.58870  0.59190  0.79770  1.0000 0.1367884724
H   H65       1.0  0.09190  0.08870  0.29770  1.0000 0.1367884724
H   H66       1.0  0.02170  0.79770  0.59190  1.0000 0.1367884724
H   H67       1.0  0.08870  0.09190  0.52170  1.0000 0.1367884724
H   H68       1.0  0.79770  0.02170  0.58870  1.0000 0.1367884724
H   H69       1.0  0.08870  0.52170  0.29770  1.0000 0.1367884724
H   H70       1.0  0.59190  0.79770  0.58870  1.0000 0.1367884724
H   H71       1.0  0.52170  0.08870  0.09190  1.0000 0.1367884724
H   H72       1.0  0.79770  0.59190  0.02170  1.0000 0.1367884724
H   H73       1.0  0.09190  0.29770  0.52170  1.0000 0.1367884724
H   H74       1.0  0.58870  0.02170  0.59190  1.0000 0.1367884724
H   H75       1.0  0.29770  0.09190  0.08870  1.0000 0.1367884724
H   H76       1.0  0.02170  0.58870  0.79770  1.0000 0.1367884724
H   H77       1.0  0.29770  0.08870  0.52170  1.0000 0.1367884724
H   H78       1.0  0.58870  0.79770  0.02170  1.0000 0.1367884724
H   H79       1.0  0.59190  0.02170  0.79770  1.0000 0.1367884724
H   H80       1.0  0.79770  0.58870  0.59190  1.0000 0.1367884724
H   H81       1.0  0.02170  0.59190  0.58870  1.0000 0.1367884724
H   H82       1.0  0.09190  0.52170  0.08870  1.0000 0.1367884724
H   H83       1.0  0.08870  0.29770  0.09190  1.0000 0.1367884724
H   H84       1.0  0.52170  0.09190  0.29770  1.0000 0.1367884724
H   H85       1.0  0.54270  0.21130  0.23090  1.0000 0.1367884724
H   H86       1.0  0.51510  0.73090  0.04270  1.0000 0.1367884724
H   H87       1.0  0.21130  0.54270  0.01510  1.0000 0.1367884724
H   H88       1.0  0.73090  0.51510  0.71130  1.0000 0.1367884724
H   H89       1.0  0.01510  0.23090  0.21130  1.0000 0.1367884724
H   H90       1.0  0.04270  0.71130  0.51510  1.0000 0.1367884724
H   H91       1.0  0.23090  0.01510  0.54270  1.0000 0.1367884724
H   H92       1.0  0.71130  0.04270  0.73090  1.0000 0.1367884724
H   H93       1.0  0.23090  0.54270  0.21130  1.0000 0.1367884724
H   H94       1.0  0.51510  0.71130  0.73090  1.0000 0.1367884724
H   H95       1.0  0.54270  0.23090  0.01510  1.0000 0.1367884724
H   H96       1.0  0.71130  0.51510  0.04270  1.0000 0.1367884724
H   H97       1.0  0.01510  0.21130  0.54270  1.0000 0.1367884724
H   H98       1.0  0.73090  0.04270  0.51510  1.0000 0.1367884724
H   H99       1.0  0.21130  0.01510  0.23090  1.0000 0.1367884724
H   H100      1.0  0.04270  0.73090  0.71130  1.0000 0.1367884724
H   H101      1.0  0.21130  0.23090  0.54270  1.0000 0.1367884724
H   H102      1.0  0.73090  0.71130  0.04270  1.0000 0.1367884724
H   H103      1.0  0.51510  0.04270  0.71130  1.0000 0.1367884724
H   H104      1.0  0.71130  0.73090  0.51510  1.0000 0.1367884724
H   H105      1.0  0.04270  0.51510  0.73090  1.0000 0.1367884724
H   H106      1.0  0.01510  0.54270  0.23090  1.0000 0.1367884724
H   H107      1.0  0.23090  0.21130  0.01510  1.0000 0.1367884724
H   H108      1.0  0.54270  0.01510  0.21130  1.0000 0.1367884724
H   H109      1.0  0.56130  0.27870  0.22430  1.0000 0.1086445931
H   H110      1.0  0.43570  0.72430  0.06130  1.0000 0.1086445931
H   H111      1.0  0.27870  0.56130  0.93570  1.0000 0.1086445931
H   H112      1.0  0.72430  0.43570  0.77870  1.0000 0.1086445931
H   H113      1.0  0.93570  0.22430  0.27870  1.0000 0.1086445931
H   H114      1.0  0.06130  0.77870  0.43570  1.0000 0.1086445931
H   H115      1.0  0.22430  0.93570  0.56130  1.0000 0.1086445931
H   H116      1.0  0.77870  0.06130  0.72430  1.0000 0.1086445931
H   H117      1.0  0.22430  0.56130  0.27870  1.0000 0.1086445931
H   H118      1.0  0.43570  0.77870  0.72430  1.0000 0.1086445931
H   H119      1.0  0.56130  0.22430  0.93570  1.0000 0.1086445931
H   H120      1.0  0.77870  0.43570  0.06130  1.0000 0.1086445931
H   H121      1.0  0.93570  0.27870  0.56130  1.0000 0.1086445931
H   H122      1.0  0.72430  0.06130  0.43570  1.0000 0.1086445931
H   H123      1.0  0.27870  0.93570  0.22430  1.0000 0.1086445931
H   H124      1.0  0.06130  0.72430  0.77870  1.0000 0.1086445931
H   H125      1.0  0.27870  0.22430  0.56130  1.0000 0.1086445931
H   H126      1.0  0.72430  0.77870  0.06130  1.0000 0.1086445931
H   H127      1.0  0.43570  0.06130  0.77870  1.0000 0.1086445931
H   H128      1.0  0.77870  0.72430  0.43570  1.0000 0.1086445931
H   H129      1.0  0.06130  0.43570  0.72430  1.0000 0.1086445931
H   H130      1.0  0.93570  0.56130  0.22430  1.0000 0.1086445931
H   H131      1.0  0.22430  0.27870  0.93570  1.0000 0.1086445931
H   H132      1.0  0.56130  0.93570  0.27870  1.0000 0.1086445931
H   H133      1.0  0.64500  0.41080  0.16160  1.0000 0.1086445931
H   H134      1.0  0.28260  0.66160  0.14500  1.0000 0.1086445931
H   H135      1.0  0.41080  0.64500  0.78260  1.0000 0.1086445931
H   H136      1.0  0.66160  0.28260  0.91080  1.0000 0.1086445931
H   H137      1.0  0.78260  0.16160  0.41080  1.0000 0.1086445931
H   H138      1.0  0.14500  0.91080  0.28260  1.0000 0.1086445931
H   H139      1.0  0.16160  0.78260  0.64500  1.0000 0.1086445931
H   H140      1.0  0.91080  0.14500  0.66160  1.0000 0.1086445931
H   H141      1.0  0.16160  0.64500  0.41080  1.0000 0.1086445931
H   H142      1.0  0.28260  0.91080  0.66160  1.0000 0.1086445931
H   H143      1.0  0.64500  0.16160  0.78260  1.0000 0.1086445931
H   H144      1.0  0.91080  0.28260  0.14500  1.0000 0.1086445931
H   H145      1.0  0.78260  0.41080  0.64500  1.0000 0.1086445931
H   H146      1.0  0.66160  0.14500  0.28260  1.0000 0.1086445931
H   H147      1.0  0.41080  0.78260  0.16160  1.0000 0.1086445931
H   H148      1.0  0.14500  0.66160  0.91080  1.0000 0.1086445931
H   H149      1.0  0.41080  0.16160  0.64500  1.0000 0.1086445931
H   H150      1.0  0.66160  0.91080  0.14500  1.0000 0.1086445931
H   H151      1.0  0.28260  0.14500  0.91080  1.0000 0.1086445931
H   H152      1.0  0.91080  0.66160  0.28260  1.0000 0.1086445931
H   H153      1.0  0.14500  0.28260  0.66160  1.0000 0.1086445931
H   H154      1.0  0.78260  0.64500  0.16160  1.0000 0.1086445931
H   H155      1.0  0.16160  0.41080  0.78260  1.0000 0.1086445931
H   H156      1.0  0.64500  0.78260  0.41080  1.0000 0.1086445931
H   H157      1.0  0.66290  0.47570  0.16370  1.0000 0.129423988
H   H158      1.0  0.19770  0.66370  0.16290  1.0000 0.129423988
H   H159      1.0  0.47570  0.66290  0.69770  1.0000 0.129423988
H   H160      1.0  0.66370  0.19770  0.97570  1.0000 0.129423988
H   H161      1.0  0.69770  0.16370  0.47570  1.0000 0.129423988
H   H162      1.0  0.16290  0.97570  0.19770  1.0000 0.129423988
H   H163      1.0  0.16370  0.69770  0.66290  1.0000 0.129423988
H   H164      1.0  0.97570  0.16290  0.66370  1.0000 0.129423988
H   H165      1.0  0.16370  0.66290  0.47570  1.0000 0.129423988
H   H166      1.0  0.19770  0.97570  0.66370  1.0000 0.129423988
H   H167      1.0  0.66290  0.16370  0.69770  1.0000 0.129423988
H   H168      1.0  0.97570  0.19770  0.16290  1.0000 0.129423988
H   H169      1.0  0.69770  0.47570  0.66290  1.0000 0.129423988
H   H170      1.0  0.66370  0.16290  0.19770  1.0000 0.129423988
H   H171      1.0  0.47570  0.69770  0.16370  1.0000 0.129423988
H   H172      1.0  0.16290  0.66370  0.97570  1.0000 0.129423988
H   H173      1.0  0.47570  0.16370  0.66290  1.0000 0.129423988
H   H174      1.0  0.66370  0.97570  0.16290  1.0000 0.129423988
H   H175      1.0  0.19770  0.16290  0.97570  1.0000 0.129423988
H   H176      1.0  0.97570  0.66370  0.19770  1.0000 0.129423988
H   H177      1.0  0.16290  0.19770  0.66370  1.0000 0.129423988
H   H178      1.0  0.69770  0.66290  0.16370  1.0000 0.129423988
H   H179      1.0  0.16370  0.47570  0.69770  1.0000 0.129423988
H   H180      1.0  0.66290  0.69770  0.47570  1.0000 0.129423988
H   H181      1.0  0.51590  0.57650  0.15790  1.0000 0.1367884724
H   H182      1.0  0.24970  0.65790  0.01590  1.0000 0.1367884724
H   H183      1.0  0.57650  0.51590  0.74970  1.0000 0.1367884724
H   H184      1.0  0.65790  0.24970  0.07650  1.0000 0.1367884724
H   H185      1.0  0.74970  0.15790  0.57650  1.0000 0.1367884724
H   H186      1.0  0.01590  0.07650  0.24970  1.0000 0.1367884724
H   H187      1.0  0.15790  0.74970  0.51590  1.0000 0.1367884724
H   H188      1.0  0.07650  0.01590  0.65790  1.0000 0.1367884724
H   H189      1.0  0.15790  0.51590  0.57650  1.0000 0.1367884724
H   H190      1.0  0.24970  0.07650  0.65790  1.0000 0.1367884724
H   H191      1.0  0.51590  0.15790  0.74970  1.0000 0.1367884724
H   H192      1.0  0.07650  0.24970  0.01590  1.0000 0.1367884724
H   H193      1.0  0.74970  0.57650  0.51590  1.0000 0.1367884724
H   H194      1.0  0.65790  0.01590  0.24970  1.0000 0.1367884724
H   H195      1.0  0.57650  0.74970  0.15790  1.0000 0.1367884724
H   H196      1.0  0.01590  0.65790  0.07650  1.0000 0.1367884724
H   H197      1.0  0.57650  0.15790  0.51590  1.0000 0.1367884724
H   H198      1.0  0.65790  0.07650  0.01590  1.0000 0.1367884724
H   H199      1.0  0.24970  0.01590  0.07650  1.0000 0.1367884724
H   H200      1.0  0.07650  0.65790  0.24970  1.0000 0.1367884724
H   H201      1.0  0.01590  0.24970  0.65790  1.0000 0.1367884724
H   H202      1.0  0.74970  0.51590  0.15790  1.0000 0.1367884724
H   H203      1.0  0.15790  0.57650  0.74970  1.0000 0.1367884724
H   H204      1.0  0.51590  0.74970  0.57650  1.0000 0.1367884724
H   H205      1.0  0.50330  0.51130  0.15370  1.0000 0.129423988
H   H206      1.0  0.33170  0.65370  0.00330  1.0000 0.129423988
H   H207      1.0  0.51130  0.50330  0.83170  1.0000 0.129423988
H   H208      1.0  0.65370  0.33170  0.01130  1.0000 0.129423988
H   H209      1.0  0.83170  0.15370  0.51130  1.0000 0.129423988
H   H210      1.0  0.00330  0.01130  0.33170  1.0000 0.129423988
H   H211      1.0  0.15370  0.83170  0.50330  1.0000 0.129423988
H   H212      1.0  0.01130  0.00330  0.65370  1.0000 0.129423988
H   H213      1.0  0.15370  0.50330  0.51130  1.0000 0.129423988
H   H214      1.0  0.33170  0.01130  0.65370  1.0000 0.129423988
H   H215      1.0  0.50330  0.15370  0.83170  1.0000 0.129423988
H   H216      1.0  0.01130  0.33170  0.00330  1.0000 0.129423988
H   H217      1.0  0.83170  0.51130  0.50330  1.0000 0.129423988
H   H218      1.0  0.65370  0.00330  0.33170  1.0000 0.129423988
H   H219      1.0  0.51130  0.83170  0.15370  1.0000 0.129423988
H   H220      1.0  0.00330  0.65370  0.01130  1.0000 0.129423988
H   H221      1.0  0.51130  0.15370  0.50330  1.0000 0.129423988
H   H222      1.0  0.65370  0.01130  0.00330  1.0000 0.129423988
H   H223      1.0  0.33170  0.00330  0.01130  1.0000 0.129423988
H   H224      1.0  0.01130  0.65370  0.33170  1.0000 0.129423988
H   H225      1.0  0.00330  0.33170  0.65370  1.0000 0.129423988
H   H226      1.0  0.83170  0.50330  0.15370  1.0000 0.129423988
H   H227      1.0  0.15370  0.51130  0.83170  1.0000 0.129423988
H   H228      1.0  0.50330  0.83170  0.51130  1.0000 0.129423988
C   C1        1.0  0.58347  0.45335  0.03421  1.0000 0.5543485479
C   C2        1.0  0.42897  0.53421  0.08347  1.0000 0.5543485479
C   C3        1.0  0.45335  0.58347  0.92897  1.0000 0.5543485479
C   C4        1.0  0.53421  0.42897  0.95335  1.0000 0.5543485479
C   C5        1.0  0.92897  0.03421  0.45335  1.0000 0.5543485479
C   C6        1.0  0.08347  0.95335  0.42897  1.0000 0.5543485479
C   C7        1.0  0.03421  0.92897  0.58347  1.0000 0.5543485479
C   C8        1.0  0.95335  0.08347  0.53421  1.0000 0.5543485479
C   C9        1.0  0.03421  0.58347  0.45335  1.0000 0.5543485479
C   C10       1.0  0.42897  0.95335  0.53421  1.0000 0.5543485479
C   C11       1.0  0.58347  0.03421  0.92897  1.0000 0.5543485479
C   C12       1.0  0.95335  0.42897  0.08347  1.0000 0.5543485479
C   C13       1.0  0.92897  0.45335  0.58347  1.0000 0.5543485479
C   C14       1.0  0.53421  0.08347  0.42897  1.0000 0.5543485479
C   C15       1.0  0.45335  0.92897  0.03421  1.0000 0.5543485479
C   C16       1.0  0.08347  0.53421  0.95335  1.0000 0.5543485479
C   C17       1.0  0.45335  0.03421  0.58347  1.0000 0.5543485479
C   C18       1.0  0.53421  0.95335  0.08347  1.0000 0.5543485479
C   C19       1.0  0.42897  0.08347  0.95335  1.0000 0.5543485479
C   C20       1.0  0.95335  0.53421  0.42897  1.0000 0.5543485479
C   C21       1.0  0.08347  0.42897  0.53421  1.0000 0.5543485479
C   C22       1.0  0.92897  0.58347  0.03421  1.0000 0.5543485479
C   C23       1.0  0.03421  0.45335  0.92897  1.0000 0.5543485479
C   C24       1.0  0.58347  0.92897  0.45335  1.0000 0.5543485479
C   C25       1.0  0.56567  0.50245  0.99019  1.0000 -0.0496093327
C   C26       1.0  0.44169  0.49019  0.06567  1.0000 -0.0496093327
C   C27       1.0  0.50245  0.56567  0.94169  1.0000 -0.0496093327
C   C28       1.0  0.49019  0.44169  0.00245  1.0000 -0.0496093327
C   C29       1.0  0.94169  0.99019  0.50245  1.0000 -0.0496093327
C   C30       1.0  0.06567  0.00245  0.44169  1.0000 -0.0496093327
C   C31       1.0  0.99019  0.94169  0.56567  1.0000 -0.0496093327
C   C32       1.0  0.00245  0.06567  0.49019  1.0000 -0.0496093327
C   C33       1.0  0.99019  0.56567  0.50245  1.0000 -0.0496093327
C   C34       1.0  0.44169  0.00245  0.49019  1.0000 -0.0496093327
C   C35       1.0  0.56567  0.99019  0.94169  1.0000 -0.0496093327
C   C36       1.0  0.00245  0.44169  0.06567  1.0000 -0.0496093327
C   C37       1.0  0.94169  0.50245  0.56567  1.0000 -0.0496093327
C   C38       1.0  0.49019  0.06567  0.44169  1.0000 -0.0496093327
C   C39       1.0  0.50245  0.94169  0.99019  1.0000 -0.0496093327
C   C40       1.0  0.06567  0.49019  0.00245  1.0000 -0.0496093327
C   C41       1.0  0.50245  0.99019  0.56567  1.0000 -0.0496093327
C   C42       1.0  0.49019  0.00245  0.06567  1.0000 -0.0496093327
C   C43       1.0  0.44169  0.06567  0.00245  1.0000 -0.0496093327
C   C44       1.0  0.00245  0.49019  0.44169  1.0000 -0.0496093327
C   C45       1.0  0.06567  0.44169  0.49019  1.0000 -0.0496093327
C   C46       1.0  0.94169  0.56567  0.99019  1.0000 -0.0496093327
C   C47       1.0  0.99019  0.50245  0.94169  1.0000 -0.0496093327
C   C48       1.0  0.56567  0.94169  0.50245  1.0000 -0.0496093327
C   C49       1.0  0.51751  0.51751  0.98249  1.0000 0.0442741411
C   C50       1.0  0.48249  0.48249  0.01751  1.0000 0.0442741411
C   C51       1.0  0.98249  0.98249  0.51751  1.0000 0.0442741411
C   C52       1.0  0.01751  0.01751  0.48249  1.0000 0.0442741411
C   C53       1.0  0.98249  0.51751  0.51751  1.0000 0.0442741411
C   C54       1.0  0.48249  0.01751  0.48249  1.0000 0.0442741411
C   C55       1.0  0.51751  0.98249  0.98249  1.0000 0.0442741411
C   C56       1.0  0.01751  0.48249  0.01751  1.0000 0.0442741411
C   C57       1.0  0.51751  0.98249  0.51751  1.0000 0.0442741411
C   C58       1.0  0.48249  0.01751  0.01751  1.0000 0.0442741411
C   C59       1.0  0.01751  0.48249  0.48249  1.0000 0.0442741411
C   C60       1.0  0.98249  0.51751  0.98249  1.0000 0.0442741411
C   C61       1.0  0.59832  0.53554  0.95634  1.0000 -0.1306894872
C   C62       1.0  0.40980  0.45634  0.09832  1.0000 -0.1306894872
C   C63       1.0  0.53554  0.59832  0.90980  1.0000 -0.1306894872
C   C64       1.0  0.45634  0.40980  0.03554  1.0000 -0.1306894872
C   C65       1.0  0.90980  0.95634  0.53554  1.0000 -0.1306894872
C   C66       1.0  0.09832  0.03554  0.40980  1.0000 -0.1306894872
C   C67       1.0  0.95634  0.90980  0.59832  1.0000 -0.1306894872
C   C68       1.0  0.03554  0.09832  0.45634  1.0000 -0.1306894872
C   C69       1.0  0.95634  0.59832  0.53554  1.0000 -0.1306894872
C   C70       1.0  0.40980  0.03554  0.45634  1.0000 -0.1306894872
C   C71       1.0  0.59832  0.95634  0.90980  1.0000 -0.1306894872
C   C72       1.0  0.03554  0.40980  0.09832  1.0000 -0.1306894872
C   C73       1.0  0.90980  0.53554  0.59832  1.0000 -0.1306894872
C   C74       1.0  0.45634  0.09832  0.40980  1.0000 -0.1306894872
C   C75       1.0  0.53554  0.90980  0.95634  1.0000 -0.1306894872
C   C76       1.0  0.09832  0.45634  0.03554  1.0000 -0.1306894872
C   C77       1.0  0.53554  0.95634  0.59832  1.0000 -0.1306894872
C   C78       1.0  0.45634  0.03554  0.09832  1.0000 -0.1306894872
C   C79       1.0  0.40980  0.09832  0.03554  1.0000 -0.1306894872
C   C80       1.0  0.03554  0.45634  0.40980  1.0000 -0.1306894872
C   C81       1.0  0.09832  0.40980  0.45634  1.0000 -0.1306894872
C   C82       1.0  0.90980  0.59832  0.95634  1.0000 -0.1306894872
C   C83       1.0  0.95634  0.53554  0.90980  1.0000 -0.1306894872
C   C84       1.0  0.59832  0.90980  0.53554  1.0000 -0.1306894872
C   C85       1.0  0.58248  0.58248  0.91752  1.0000 -0.1036267656
C   C86       1.0  0.41752  0.41752  0.08248  1.0000 -0.1036267656
C   C87       1.0  0.91752  0.91752  0.58248  1.0000 -0.1036267656
C   C88       1.0  0.08248  0.08248  0.41752  1.0000 -0.1036267656
C   C89       1.0  0.91752  0.58248  0.58248  1.0000 -0.1036267656
C   C90       1.0  0.41752  0.08248  0.41752  1.0000 -0.1036267656
C   C91       1.0  0.58248  0.91752  0.91752  1.0000 -0.1036267656
C   C92       1.0  0.08248  0.41752  0.08248  1.0000 -0.1036267656
C   C93       1.0  0.58248  0.91752  0.58248  1.0000 -0.1036267656
C   C94       1.0  0.41752  0.08248  0.08248  1.0000 -0.1036267656
C   C95       1.0  0.08248  0.41752  0.41752  1.0000 -0.1036267656
C   C96       1.0  0.91752  0.58248  0.91752  1.0000 -0.1036267656
C   C97       1.0  0.53431  0.33655  0.11835  1.0000 0.0957712515
C   C98       1.0  0.51079  0.61835  0.03431  1.0000 0.0957712515
C   C99       1.0  0.33655  0.53431  0.01079  1.0000 0.0957712515
C   C100      1.0  0.61835  0.51079  0.83655  1.0000 0.0957712515
C   C101      1.0  0.01079  0.11835  0.33655  1.0000 0.0957712515
C   C102      1.0  0.03431  0.83655  0.51079  1.0000 0.0957712515
C   C103      1.0  0.11835  0.01079  0.53431  1.0000 0.0957712515
C   C104      1.0  0.83655  0.03431  0.61835  1.0000 0.0957712515
C   C105      1.0  0.11835  0.53431  0.33655  1.0000 0.0957712515
C   C106      1.0  0.51079  0.83655  0.61835  1.0000 0.0957712515
C   C107      1.0  0.53431  0.11835  0.01079  1.0000 0.0957712515
C   C108      1.0  0.83655  0.51079  0.03431  1.0000 0.0957712515
C   C109      1.0  0.01079  0.33655  0.53431  1.0000 0.0957712515
C   C110      1.0  0.61835  0.03431  0.51079  1.0000 0.0957712515
C   C111      1.0  0.33655  0.01079  0.11835  1.0000 0.0957712515
C   C112      1.0  0.03431  0.61835  0.83655  1.0000 0.0957712515
C   C113      1.0  0.33655  0.11835  0.53431  1.0000 0.0957712515
C   C114      1.0  0.61835  0.83655  0.03431  1.0000 0.0957712515
C   C115      1.0  0.51079  0.03431  0.83655  1.0000 0.0957712515
C   C116      1.0  0.83655  0.61835  0.51079  1.0000 0.0957712515
C   C117      1.0  0.03431  0.51079  0.61835  1.0000 0.0957712515
C   C118      1.0  0.01079  0.53431  0.11835  1.0000 0.0957712515
C   C119      1.0  0.11835  0.33655  0.01079  1.0000 0.0957712515
C   C120      1.0  0.53431  0.01079  0.33655  1.0000 0.0957712515
C   C121      1.0  0.52829  0.29329  0.11781  1.0000 -0.1538525556
C   C122      1.0  0.56061  0.61781  0.02829  1.0000 -0.1538525556
C   C123      1.0  0.29329  0.52829  0.06061  1.0000 -0.1538525556
C   C124      1.0  0.61781  0.56061  0.79329  1.0000 -0.1538525556
C   C125      1.0  0.06061  0.11781  0.29329  1.0000 -0.1538525556
C   C126      1.0  0.02829  0.79329  0.56061  1.0000 -0.1538525556
C   C127      1.0  0.11781  0.06061  0.52829  1.0000 -0.1538525556
C   C128      1.0  0.79329  0.02829  0.61781  1.0000 -0.1538525556
C   C129      1.0  0.11781  0.52829  0.29329  1.0000 -0.1538525556
C   C130      1.0  0.56061  0.79329  0.61781  1.0000 -0.1538525556
C   C131      1.0  0.52829  0.11781  0.06061  1.0000 -0.1538525556
C   C132      1.0  0.79329  0.56061  0.02829  1.0000 -0.1538525556
C   C133      1.0  0.06061  0.29329  0.52829  1.0000 -0.1538525556
C   C134      1.0  0.61781  0.02829  0.56061  1.0000 -0.1538525556
C   C135      1.0  0.29329  0.06061  0.11781  1.0000 -0.1538525556
C   C136      1.0  0.02829  0.61781  0.79329  1.0000 -0.1538525556
C   C137      1.0  0.29329  0.11781  0.52829  1.0000 -0.1538525556
C   C138      1.0  0.61781  0.79329  0.02829  1.0000 -0.1538525556
C   C139      1.0  0.56061  0.02829  0.79329  1.0000 -0.1538525556
C   C140      1.0  0.79329  0.61781  0.56061  1.0000 -0.1538525556
C   C141      1.0  0.02829  0.56061  0.61781  1.0000 -0.1538525556
C   C142      1.0  0.06061  0.52829  0.11781  1.0000 -0.1538525556
C   C143      1.0  0.11781  0.29329  0.06061  1.0000 -0.1538525556
C   C144      1.0  0.52829  0.06061  0.29329  1.0000 -0.1538525556
C   C145      1.0  0.53191  0.24657  0.15837  1.0000 0.0616468552
C   C146      1.0  0.56315  0.65837  0.03191  1.0000 0.0616468552
C   C147      1.0  0.24657  0.53191  0.06315  1.0000 0.0616468552
C   C148      1.0  0.65837  0.56315  0.74657  1.0000 0.0616468552
C   C149      1.0  0.06315  0.15837  0.24657  1.0000 0.0616468552
C   C150      1.0  0.03191  0.74657  0.56315  1.0000 0.0616468552
C   C151      1.0  0.15837  0.06315  0.53191  1.0000 0.0616468552
C   C152      1.0  0.74657  0.03191  0.65837  1.0000 0.0616468552
C   C153      1.0  0.15837  0.53191  0.24657  1.0000 0.0616468552
C   C154      1.0  0.56315  0.74657  0.65837  1.0000 0.0616468552
C   C155      1.0  0.53191  0.15837  0.06315  1.0000 0.0616468552
C   C156      1.0  0.74657  0.56315  0.03191  1.0000 0.0616468552
C   C157      1.0  0.06315  0.24657  0.53191  1.0000 0.0616468552
C   C158      1.0  0.65837  0.03191  0.56315  1.0000 0.0616468552
C   C159      1.0  0.24657  0.06315  0.15837  1.0000 0.0616468552
C   C160      1.0  0.03191  0.65837  0.74657  1.0000 0.0616468552
C   C161      1.0  0.24657  0.15837  0.53191  1.0000 0.0616468552
C   C162      1.0  0.65837  0.74657  0.03191  1.0000 0.0616468552
C   C163      1.0  0.56315  0.03191  0.74657  1.0000 0.0616468552
C   C164      1.0  0.74657  0.65837  0.56315  1.0000 0.0616468552
C   C165      1.0  0.03191  0.56315  0.65837  1.0000 0.0616468552
C   C166      1.0  0.06315  0.53191  0.15837  1.0000 0.0616468552
C   C167      1.0  0.15837  0.24657  0.06315  1.0000 0.0616468552
C   C168      1.0  0.53191  0.06315  0.24657  1.0000 0.0616468552
C   C169      1.0  0.54201  0.24237  0.20059  1.0000 -0.1788205375
C   C170      1.0  0.51503  0.70059  0.04201  1.0000 -0.1788205375
C   C171      1.0  0.24237  0.54201  0.01503  1.0000 -0.1788205375
C   C172      1.0  0.70059  0.51503  0.74237  1.0000 -0.1788205375
C   C173      1.0  0.01503  0.20059  0.24237  1.0000 -0.1788205375
C   C174      1.0  0.04201  0.74237  0.51503  1.0000 -0.1788205375
C   C175      1.0  0.20059  0.01503  0.54201  1.0000 -0.1788205375
C   C176      1.0  0.74237  0.04201  0.70059  1.0000 -0.1788205375
C   C177      1.0  0.20059  0.54201  0.24237  1.0000 -0.1788205375
C   C178      1.0  0.51503  0.74237  0.70059  1.0000 -0.1788205375
C   C179      1.0  0.54201  0.20059  0.01503  1.0000 -0.1788205375
C   C180      1.0  0.74237  0.51503  0.04201  1.0000 -0.1788205375
C   C181      1.0  0.01503  0.24237  0.54201  1.0000 -0.1788205375
C   C182      1.0  0.70059  0.04201  0.51503  1.0000 -0.1788205375
C   C183      1.0  0.24237  0.01503  0.20059  1.0000 -0.1788205375
C   C184      1.0  0.04201  0.70059  0.74237  1.0000 -0.1788205375
C   C185      1.0  0.24237  0.20059  0.54201  1.0000 -0.1788205375
C   C186      1.0  0.70059  0.74237  0.04201  1.0000 -0.1788205375
C   C187      1.0  0.51503  0.04201  0.74237  1.0000 -0.1788205375
C   C188      1.0  0.74237  0.70059  0.51503  1.0000 -0.1788205375
C   C189      1.0  0.04201  0.51503  0.70059  1.0000 -0.1788205375
C   C190      1.0  0.01503  0.54201  0.20059  1.0000 -0.1788205375
C   C191      1.0  0.20059  0.24237  0.01503  1.0000 -0.1788205375
C   C192      1.0  0.54201  0.01503  0.24237  1.0000 -0.1788205375
C   C193      1.0  0.55098  0.28392  0.19740  1.0000 0.0442741411
C   C194      1.0  0.46770  0.69740  0.05098  1.0000 0.0442741411
C   C195      1.0  0.28392  0.55098  0.96770  1.0000 0.0442741411
C   C196      1.0  0.69740  0.46770  0.78392  1.0000 0.0442741411
C   C197      1.0  0.96770  0.19740  0.28392  1.0000 0.0442741411
C   C198      1.0  0.05098  0.78392  0.46770  1.0000 0.0442741411
C   C199      1.0  0.19740  0.96770  0.55098  1.0000 0.0442741411
C   C200      1.0  0.78392  0.05098  0.69740  1.0000 0.0442741411
C   C201      1.0  0.19740  0.55098  0.28392  1.0000 0.0442741411
C   C202      1.0  0.46770  0.78392  0.69740  1.0000 0.0442741411
C   C203      1.0  0.55098  0.19740  0.96770  1.0000 0.0442741411
C   C204      1.0  0.78392  0.46770  0.05098  1.0000 0.0442741411
C   C205      1.0  0.96770  0.28392  0.55098  1.0000 0.0442741411
C   C206      1.0  0.69740  0.05098  0.46770  1.0000 0.0442741411
C   C207      1.0  0.28392  0.96770  0.19740  1.0000 0.0442741411
C   C208      1.0  0.05098  0.69740  0.78392  1.0000 0.0442741411
C   C209      1.0  0.28392  0.19740  0.55098  1.0000 0.0442741411
C   C210      1.0  0.69740  0.78392  0.05098  1.0000 0.0454814244
C   C211      1.0  0.46770  0.05098  0.78392  1.0000 0.0442741411
C   C212      1.0  0.78392  0.69740  0.46770  1.0000 0.0442741411
C   C213      1.0  0.05098  0.46770  0.69740  1.0000 0.0442741411
C   C214      1.0  0.96770  0.55098  0.19740  1.0000 0.0454814244
C   C215      1.0  0.19740  0.28392  0.96770  1.0000 0.0442741411
C   C216      1.0  0.55098  0.96770  0.28392  1.0000 0.0442741411
C   C217      1.0  0.52845  0.19943  0.15899  1.0000 0.3593964896
C   C218      1.0  0.61313  0.65899  0.02845  1.0000 0.3593964896
C   C219      1.0  0.19943  0.52845  0.11313  1.0000 0.3593964896
C   C220      1.0  0.65899  0.61313  0.69943  1.0000 0.3593964896
C   C221      1.0  0.11313  0.15899  0.19943  1.0000 0.3593964896
C   C222      1.0  0.02845  0.69943  0.61313  1.0000 0.3593964896
C   C223      1.0  0.15899  0.11313  0.52845  1.0000 0.3593964896
C   C224      1.0  0.69943  0.02845  0.65899  1.0000 0.3593964896
C   C225      1.0  0.15899  0.52845  0.19943  1.0000 0.3593964896
C   C226      1.0  0.61313  0.69943  0.65899  1.0000 0.3593964896
C   C227      1.0  0.52845  0.15899  0.11313  1.0000 0.3593964896
C   C228      1.0  0.69943  0.61313  0.02845  1.0000 0.3593964896
C   C229      1.0  0.11313  0.19943  0.52845  1.0000 0.3593964896
C   C230      1.0  0.65899  0.02845  0.61313  1.0000 0.3593964896
C   C231      1.0  0.19943  0.11313  0.15899  1.0000 0.3593964896
C   C232      1.0  0.02845  0.65899  0.69943  1.0000 0.3593964896
C   C233      1.0  0.19943  0.15899  0.52845  1.0000 0.3593964896
C   C234      1.0  0.65899  0.69943  0.02845  1.0000 0.3593964896
C   C235      1.0  0.61313  0.02845  0.69943  1.0000 0.3593964896
C   C236      1.0  0.69943  0.65899  0.61313  1.0000 0.3593964896
C   C237      1.0  0.02845  0.61313  0.65899  1.0000 0.3593964896
C   C238      1.0  0.11313  0.52845  0.15899  1.0000 0.3593964896
C   C239      1.0  0.15899  0.19943  0.11313  1.0000 0.3593964896
C   C240      1.0  0.52845  0.11313  0.19943  1.0000 0.3593964896
C   C241      1.0  0.61897  0.44503  0.16007  1.0000 0.0616468552
C   C242      1.0  0.27593  0.66007  0.11897  1.0000 0.0616468552
C   C243      1.0  0.44503  0.61897  0.77593  1.0000 0.0616468552
C   C244      1.0  0.66007  0.27593  0.94503  1.0000 0.0616468552
C   C245      1.0  0.77593  0.16007  0.44503  1.0000 0.0616468552
C   C246      1.0  0.11897  0.94503  0.27593  1.0000 0.0616468552
C   C247      1.0  0.16007  0.77593  0.61897  1.0000 0.0616468552
C   C248      1.0  0.94503  0.11897  0.66007  1.0000 0.0616468552
C   C249      1.0  0.16007  0.61897  0.44503  1.0000 0.0616468552
C   C250      1.0  0.27593  0.94503  0.66007  1.0000 0.0616468552
C   C251      1.0  0.61897  0.16007  0.77593  1.0000 0.0616468552
C   C252      1.0  0.94503  0.27593  0.11897  1.0000 0.0616468552
C   C253      1.0  0.77593  0.44503  0.61897  1.0000 0.0616468552
C   C254      1.0  0.66007  0.11897  0.27593  1.0000 0.0616468552
C   C255      1.0  0.44503  0.77593  0.16007  1.0000 0.0616468552
C   C256      1.0  0.11897  0.66007  0.94503  1.0000 0.0616468552
C   C257      1.0  0.44503  0.16007  0.61897  1.0000 0.0616468552
C   C258      1.0  0.66007  0.94503  0.11897  1.0000 0.0616468552
C   C259      1.0  0.27593  0.11897  0.94503  1.0000 0.0616468552
C   C260      1.0  0.94503  0.66007  0.27593  1.0000 0.0616468552
C   C261      1.0  0.11897  0.27593  0.66007  1.0000 0.0616468552
C   C262      1.0  0.77593  0.61897  0.16007  1.0000 0.0616468552
C   C263      1.0  0.16007  0.44503  0.77593  1.0000 0.0616468552
C   C264      1.0  0.61897  0.77593  0.44503  1.0000 0.0616468552
C   C265      1.0  0.62944  0.48372  0.16258  1.0000 -0.1716504492
C   C266      1.0  0.22426  0.66258  0.12944  1.0000 -0.1716504492
C   C267      1.0  0.48372  0.62944  0.72426  1.0000 -0.1716504492
C   C268      1.0  0.66258  0.22426  0.98372  1.0000 -0.1716504492
C   C269      1.0  0.72426  0.16258  0.48372  1.0000 -0.1716504492
C   C270      1.0  0.12944  0.98372  0.22426  1.0000 -0.1716504492
C   C271      1.0  0.16258  0.72426  0.62944  1.0000 -0.1716504492
C   C272      1.0  0.98372  0.12944  0.66258  1.0000 -0.1716504492
C   C273      1.0  0.16258  0.62944  0.48372  1.0000 -0.1716504492
C   C274      1.0  0.22426  0.98372  0.66258  1.0000 -0.1716504492
C   C275      1.0  0.62944  0.16258  0.72426  1.0000 -0.1716504492
C   C276      1.0  0.98372  0.22426  0.12944  1.0000 -0.1716504492
C   C277      1.0  0.72426  0.48372  0.62944  1.0000 -0.1716504492
C   C278      1.0  0.66258  0.12944  0.22426  1.0000 -0.1716504492
C   C279      1.0  0.48372  0.72426  0.16258  1.0000 -0.1716504492
C   C280      1.0  0.12944  0.66258  0.98372  1.0000 -0.1716504492
C   C281      1.0  0.48372  0.16258  0.62944  1.0000 -0.1716504492
C   C282      1.0  0.66258  0.98372  0.12944  1.0000 -0.1716504492
C   C283      1.0  0.22426  0.12944  0.98372  1.0000 -0.1716504492
C   C284      1.0  0.98372  0.66258  0.22426  1.0000 -0.1716504492
C   C285      1.0  0.12944  0.22426  0.66258  1.0000 -0.1716504492
C   C286      1.0  0.72426  0.62944  0.16258  1.0000 -0.1716504492
C   C287      1.0  0.16258  0.48372  0.72426  1.0000 -0.1716504492
C   C288      1.0  0.62944  0.72426  0.48372  1.0000 -0.1716504492
C   C289      1.0  0.59085  0.53311  0.16331  1.0000 0.0616468552
C   C290      1.0  0.21273  0.66331  0.09085  1.0000 0.0616468552
C   C291      1.0  0.53311  0.59085  0.71273  1.0000 0.0616468552
C   C292      1.0  0.66331  0.21273  0.03311  1.0000 0.0616468552
C   C293      1.0  0.71273  0.16331  0.53311  1.0000 0.0616468552
C   C294      1.0  0.09085  0.03311  0.21273  1.0000 0.0616468552
C   C295      1.0  0.16331  0.71273  0.59085  1.0000 0.0616468552
C   C296      1.0  0.03311  0.09085  0.66331  1.0000 0.0616468552
C   C297      1.0  0.16331  0.59085  0.53311  1.0000 0.0616468552
C   C298      1.0  0.21273  0.03311  0.66331  1.0000 0.0616468552
C   C299      1.0  0.59085  0.16331  0.71273  1.0000 0.0616468552
C   C300      1.0  0.03311  0.21273  0.09085  1.0000 0.0616468552
C   C301      1.0  0.71273  0.53311  0.59085  1.0000 0.0616468552
C   C302      1.0  0.66331  0.09085  0.21273  1.0000 0.0616468552
C   C303      1.0  0.53311  0.71273  0.16331  1.0000 0.0616468552
C   C304      1.0  0.09085  0.66331  0.03311  1.0000 0.0616468552
C   C305      1.0  0.53311  0.16331  0.59085  1.0000 0.0616468552
C   C306      1.0  0.66331  0.03311  0.09085  1.0000 0.0616468552
C   C307      1.0  0.21273  0.09085  0.03311  1.0000 0.0616468552
C   C308      1.0  0.03311  0.66331  0.21273  1.0000 0.0616468552
C   C309      1.0  0.09085  0.21273  0.66331  1.0000 0.0616468552
C   C310      1.0  0.71273  0.59085  0.16331  1.0000 0.0616468552
C   C311      1.0  0.16331  0.53311  0.71273  1.0000 0.0616468552
C   C312      1.0  0.59085  0.71273  0.53311  1.0000 0.0616468552
C   C313      1.0  0.54316  0.54298  0.15886  1.0000 -0.1788205375
C   C314      1.0  0.25500  0.65886  0.04316  1.0000 -0.1788205375
C   C315      1.0  0.54298  0.54316  0.75500  1.0000 -0.1788205375
C   C316      1.0  0.65886  0.25500  0.04298  1.0000 -0.1788205375
C   C317      1.0  0.75500  0.15886  0.54298  1.0000 -0.1788205375
C   C318      1.0  0.04316  0.04298  0.25500  1.0000 -0.1788205375
C   C319      1.0  0.15886  0.75500  0.54316  1.0000 -0.1788205375
C   C320      1.0  0.04298  0.04316  0.65886  1.0000 -0.1788205375
C   C321      1.0  0.15886  0.54316  0.54298  1.0000 -0.1788205375
C   C322      1.0  0.25500  0.04298  0.65886  1.0000 -0.1788205375
C   C323      1.0  0.54316  0.15886  0.75500  1.0000 -0.1788205375
C   C324      1.0  0.04298  0.25500  0.04316  1.0000 -0.1788205375
C   C325      1.0  0.75500  0.54298  0.54316  1.0000 -0.1788205375
C   C326      1.0  0.65886  0.04316  0.25500  1.0000 -0.1788205375
C   C327      1.0  0.54298  0.75500  0.15886  1.0000 -0.1788205375
C   C328      1.0  0.04316  0.65886  0.04298  1.0000 -0.1788205375
C   C329      1.0  0.54298  0.15886  0.54316  1.0000 -0.1788205375
C   C330      1.0  0.65886  0.04298  0.04316  1.0000 -0.1788205375
C   C331      1.0  0.25500  0.04316  0.04298  1.0000 -0.1788205375
C   C332      1.0  0.04298  0.65886  0.25500  1.0000 -0.1788205375
C   C333      1.0  0.04316  0.25500  0.65886  1.0000 -0.1788205375
C   C334      1.0  0.75500  0.54316  0.15886  1.0000 -0.1788205375
C   C335      1.0  0.15886  0.54298  0.75500  1.0000 -0.1788205375
C   C336      1.0  0.54316  0.75500  0.54298  1.0000 -0.1788205375
C   C337      1.0  0.53611  0.50385  0.15585  1.0000 0.0849488821
C   C338      1.0  0.30419  0.65585  0.03611  1.0000 0.0849488821
C   C339      1.0  0.50385  0.53611  0.80419  1.0000 0.0849488821
C   C340      1.0  0.65585  0.30419  0.00385  1.0000 0.0849488821
C   C341      1.0  0.80419  0.15585  0.50385  1.0000 0.0855056491
C   C342      1.0  0.03611  0.00385  0.30419  1.0000 0.0849488821
C   C343      1.0  0.15585  0.80419  0.53611  1.0000 0.0849488821
C   C344      1.0  0.00385  0.03611  0.65585  1.0000 0.0849488821
C   C345      1.0  0.15585  0.53611  0.50385  1.0000 0.0849488821
C   C346      1.0  0.30419  0.00385  0.65585  1.0000 0.0849488821
C   C347      1.0  0.53611  0.15585  0.80419  1.0000 0.0849488821
C   C348      1.0  0.00385  0.30419  0.03611  1.0000 0.0849488821
C   C349      1.0  0.80419  0.50385  0.53611  1.0000 0.0849488821
C   C350      1.0  0.65585  0.03611  0.30419  1.0000 0.0855056491
C   C351      1.0  0.50385  0.80419  0.15585  1.0000 0.0849488821
C   C352      1.0  0.03611  0.65585  0.00385  1.0000 0.0849488821
C   C353      1.0  0.50385  0.15585  0.53611  1.0000 0.0849488821
C   C354      1.0  0.65585  0.00385  0.03611  1.0000 0.0849488821
C   C355      1.0  0.30419  0.03611  0.00385  1.0000 0.0849488821
C   C356      1.0  0.00385  0.65585  0.30419  1.0000 0.0849488821
C   C357      1.0  0.03611  0.30419  0.65585  1.0000 0.0849488821
C   C358      1.0  0.80419  0.53611  0.15585  1.0000 0.0849488821
C   C359      1.0  0.15585  0.50385  0.80419  1.0000 0.0849488821
C   C360      1.0  0.53611  0.80419  0.50385  1.0000 0.0849488821
C   C361      1.0  0.60154  0.57400  0.16628  1.0000 0.3462051393
C   C362      1.0  0.15818  0.66628  0.10154  1.0000 0.3448217439
C   C363      1.0  0.57400  0.60154  0.65818  1.0000 0.3462051393
C   C364      1.0  0.66628  0.15818  0.07400  1.0000 0.3448217439
C   C365      1.0  0.65818  0.16628  0.57400  1.0000 0.3462051393
C   C366      1.0  0.10154  0.07400  0.15818  1.0000 0.3448217439
C   C367      1.0  0.16628  0.65818  0.60154  1.0000 0.3462051393
C   C368      1.0  0.07400  0.10154  0.66628  1.0000 0.3448217439
C   C369      1.0  0.16628  0.60154  0.57400  1.0000 0.3462051393
C   C370      1.0  0.15818  0.07400  0.66628  1.0000 0.3448217439
C   C371      1.0  0.60154  0.16628  0.65818  1.0000 0.3462051393
C   C372      1.0  0.07400  0.15818  0.10154  1.0000 0.3448217439
C   C373      1.0  0.65818  0.57400  0.60154  1.0000 0.3462051393
C   C374      1.0  0.66628  0.10154  0.15818  1.0000 0.3448217439
C   C375      1.0  0.57400  0.65818  0.16628  1.0000 0.3448217439
C   C376      1.0  0.10154  0.66628  0.07400  1.0000 0.3462051393
C   C377      1.0  0.57400  0.16628  0.60154  1.0000 0.3448217439
C   C378      1.0  0.66628  0.07400  0.10154  1.0000 0.3448217439
C   C379      1.0  0.15818  0.10154  0.07400  1.0000 0.3462051393
C   C380      1.0  0.07400  0.66628  0.15818  1.0000 0.3448217439
C   C381      1.0  0.10154  0.15818  0.66628  1.0000 0.3448217439
C   C382      1.0  0.65818  0.60154  0.16628  1.0000 0.3448217439
C   C383      1.0  0.16628  0.57400  0.65818  1.0000 0.3462051393
C   C384      1.0  0.60154  0.65818  0.57400  1.0000 0.3462051393
N   N1        1.0  0.54575  0.33141  0.15795  1.0000 -0.1788205375
N   N2        1.0  0.46489  0.65795  0.04575  1.0000 -0.1788205375
N   N3        1.0  0.33141  0.54575  0.96489  1.0000 -0.1788205375
N   N4        1.0  0.65795  0.46489  0.83141  1.0000 -0.1788205375
N   N5        1.0  0.96489  0.15795  0.33141  1.0000 -0.1788205375
N   N6        1.0  0.04575  0.83141  0.46489  1.0000 -0.1788205375
N   N7        1.0  0.15795  0.96489  0.54575  1.0000 -0.1788205375
N   N8        1.0  0.83141  0.04575  0.65795  1.0000 -0.1788205375
N   N9        1.0  0.15795  0.54575  0.33141  1.0000 -0.1788205375
N   N10       1.0  0.46489  0.83141  0.65795  1.0000 -0.1788205375
N   N11       1.0  0.54575  0.15795  0.96489  1.0000 -0.1788205375
N   N12       1.0  0.83141  0.46489  0.04575  1.0000 -0.1788205375
N   N13       1.0  0.96489  0.33141  0.54575  1.0000 -0.1788205375
N   N14       1.0  0.65795  0.04575  0.46489  1.0000 -0.1788205375
N   N15       1.0  0.33141  0.96489  0.15795  1.0000 -0.1788205375
N   N16       1.0  0.04575  0.65795  0.83141  1.0000 -0.1788205375
N   N17       1.0  0.33141  0.15795  0.54575  1.0000 -0.1788205375
N   N18       1.0  0.65795  0.83141  0.04575  1.0000 -0.1788205375
N   N19       1.0  0.46489  0.04575  0.83141  1.0000 -0.1788205375
N   N20       1.0  0.83141  0.65795  0.46489  1.0000 -0.1788205375
N   N21       1.0  0.04575  0.46489  0.65795  1.0000 -0.1788205375
N   N22       1.0  0.96489  0.54575  0.15795  1.0000 -0.1788205375
N   N23       1.0  0.15795  0.33141  0.96489  1.0000 -0.1788205375
N   N24       1.0  0.54575  0.96489  0.33141  1.0000 -0.1788205375
N   N25       1.0  0.52821  0.15609  0.20315  1.0000 -0.4029168912
N   N26       1.0  0.61255  0.70315  0.02821  1.0000 -0.4029168912
N   N27       1.0  0.15609  0.52821  0.11255  1.0000 -0.4029168912
N   N28       1.0  0.70315  0.61255  0.65609  1.0000 -0.4029168912
N   N29       1.0  0.11255  0.20315  0.15609  1.0000 -0.4029168912
N   N30       1.0  0.02821  0.65609  0.61255  1.0000 -0.4029168912
N   N31       1.0  0.20315  0.11255  0.52821  1.0000 -0.4029168912
N   N32       1.0  0.65609  0.02821  0.70315  1.0000 -0.4029168912
N   N33       1.0  0.20315  0.52821  0.15609  1.0000 -0.4029168912
N   N34       1.0  0.61255  0.65609  0.70315  1.0000 -0.4029168912
N   N35       1.0  0.52821  0.20315  0.11255  1.0000 -0.4029168912
N   N36       1.0  0.65609  0.61255  0.02821  1.0000 -0.4029168912
N   N37       1.0  0.11255  0.15609  0.52821  1.0000 -0.4029168912
N   N38       1.0  0.70315  0.02821  0.61255  1.0000 -0.4029168912
N   N39       1.0  0.15609  0.11255  0.20315  1.0000 -0.4029168912
N   N40       1.0  0.02821  0.70315  0.65609  1.0000 -0.4029168912
N   N41       1.0  0.15609  0.20315  0.52821  1.0000 -0.4029168912
N   N42       1.0  0.70315  0.65609  0.02821  1.0000 -0.4029168912
N   N43       1.0  0.61255  0.02821  0.65609  1.0000 -0.4029168912
N   N44       1.0  0.65609  0.70315  0.61255  1.0000 -0.4029168912
N   N45       1.0  0.02821  0.61255  0.70315  1.0000 -0.4029168912
N   N46       1.0  0.11255  0.52821  0.20315  1.0000 -0.4029168912
N   N47       1.0  0.20315  0.15609  0.11255  1.0000 -0.4029168912
N   N48       1.0  0.52821  0.11255  0.15609  1.0000 -0.4029168912
N   N49       1.0  0.57293  0.45591  0.15573  1.0000 -0.1859017994
N   N50       1.0  0.31543  0.65573  0.07293  1.0000 -0.1859017994
N   N51       1.0  0.45591  0.57293  0.81543  1.0000 -0.1859017994
N   N52       1.0  0.65573  0.31543  0.95591  1.0000 -0.1859017994
N   N53       1.0  0.81543  0.15573  0.45591  1.0000 -0.1859017994
N   N54       1.0  0.07293  0.95591  0.31543  1.0000 -0.1859017994
N   N55       1.0  0.15573  0.81543  0.57293  1.0000 -0.1859017994
N   N56       1.0  0.95591  0.07293  0.65573  1.0000 -0.1859017994
N   N57       1.0  0.15573  0.57293  0.45591  1.0000 -0.1788205375
N   N58       1.0  0.31543  0.95591  0.65573  1.0000 -0.1859017994
N   N59       1.0  0.57293  0.15573  0.81543  1.0000 -0.1859017994
N   N60       1.0  0.95591  0.31543  0.07293  1.0000 -0.1788205375
N   N61       1.0  0.81543  0.45591  0.57293  1.0000 -0.1859017994
N   N62       1.0  0.65573  0.07293  0.31543  1.0000 -0.1859017994
N   N63       1.0  0.45591  0.81543  0.15573  1.0000 -0.1859017994
N   N64       1.0  0.07293  0.65573  0.95591  1.0000 -0.1859017994
N   N65       1.0  0.45591  0.15573  0.57293  1.0000 -0.1859017994
N   N66       1.0  0.65573  0.95591  0.07293  1.0000 -0.1859017994
N   N67       1.0  0.31543  0.07293  0.95591  1.0000 -0.1859017994
N   N68       1.0  0.95591  0.65573  0.31543  1.0000 -0.1859017994
N   N69       1.0  0.07293  0.31543  0.65573  1.0000 -0.1859017994
N   N70       1.0  0.81543  0.57293  0.15573  1.0000 -0.1859017994
N   N71       1.0  0.15573  0.45591  0.81543  1.0000 -0.1859017994
N   N72       1.0  0.57293  0.81543  0.45591  1.0000 -0.1859017994
N   N73       1.0  0.65051  0.56183  0.16533  1.0000 -0.4029168912
N   N74       1.0  0.12233  0.66533  0.15051  1.0000 -0.4029168912
N   N75       1.0  0.56183  0.65051  0.62233  1.0000 -0.4029168912
N   N76       1.0  0.66533  0.12233  0.06183  1.0000 -0.4029168912
N   N77       1.0  0.62233  0.16533  0.56183  1.0000 -0.4029168912
N   N78       1.0  0.15051  0.06183  0.12233  1.0000 -0.4029168912
N   N79       1.0  0.16533  0.62233  0.65051  1.0000 -0.4029168912
N   N80       1.0  0.06183  0.15051  0.66533  1.0000 -0.4029168912
N   N81       1.0  0.16533  0.65051  0.56183  1.0000 -0.4029168912
N   N82       1.0  0.12233  0.06183  0.66533  1.0000 -0.4029168912
N   N83       1.0  0.65051  0.16533  0.62233  1.0000 -0.4029168912
N   N84       1.0  0.06183  0.12233  0.15051  1.0000 -0.4029168912
N   N85       1.0  0.62233  0.56183  0.65051  1.0000 -0.4029168912
N   N86       1.0  0.66533  0.15051  0.12233  1.0000 -0.4029168912
N   N87       1.0  0.56183  0.62233  0.16533  1.0000 -0.4029168912
N   N88       1.0  0.15051  0.66533  0.06183  1.0000 -0.4029168912
N   N89       1.0  0.56183  0.16533  0.65051  1.0000 -0.4029168912
N   N90       1.0  0.66533  0.06183  0.15051  1.0000 -0.4029168912
N   N91       1.0  0.12233  0.15051  0.06183  1.0000 -0.4029168912
N   N92       1.0  0.06183  0.66533  0.12233  1.0000 -0.4029168912
N   N93       1.0  0.15051  0.12233  0.66533  1.0000 -0.4029168912
N   N94       1.0  0.62233  0.65051  0.16533  1.0000 -0.4029168912
N   N95       1.0  0.16533  0.56183  0.62233  1.0000 -0.4029168912
N   N96       1.0  0.65051  0.62233  0.56183  1.0000 -0.4029168912
O   O1        1.0  0.54916  0.44490  0.08108  1.0000 -0.5108964198
O   O2        1.0  0.42486  0.58108  0.04916  1.0000 -0.5108964198
O   O3        1.0  0.44490  0.54916  0.92486  1.0000 -0.5108964198
O   O4        1.0  0.58108  0.42486  0.94490  1.0000 -0.5108964198
O   O5        1.0  0.92486  0.08108  0.44490  1.0000 -0.5108964198
O   O6        1.0  0.04916  0.94490  0.42486  1.0000 -0.5108964198
O   O7        1.0  0.08108  0.92486  0.54916  1.0000 -0.5108964198
O   O8        1.0  0.94490  0.04916  0.58108  1.0000 -0.5108964198
O   O9        1.0  0.08108  0.54916  0.44490  1.0000 -0.5108964198
O   O10       1.0  0.42486  0.94490  0.58108  1.0000 -0.5108964198
O   O11       1.0  0.54916  0.08108  0.92486  1.0000 -0.5108964198
O   O12       1.0  0.94490  0.42486  0.04916  1.0000 -0.5108964198
O   O13       1.0  0.92486  0.44490  0.54916  1.0000 -0.5108964198
O   O14       1.0  0.58108  0.04916  0.42486  1.0000 -0.5108964198
O   O15       1.0  0.44490  0.92486  0.08108  1.0000 -0.5108964198
O   O16       1.0  0.04916  0.58108  0.94490  1.0000 -0.5108964198
O   O17       1.0  0.44490  0.08108  0.54916  1.0000 -0.5108964198
O   O18       1.0  0.58108  0.94490  0.04916  1.0000 -0.5108964198
O   O19       1.0  0.42486  0.04916  0.94490  1.0000 -0.5108964198
O   O20       1.0  0.94490  0.58108  0.42486  1.0000 -0.5108964198
O   O21       1.0  0.04916  0.42486  0.58108  1.0000 -0.5108964198
O   O22       1.0  0.92486  0.54916  0.08108  1.0000 -0.5108964198
O   O23       1.0  0.08108  0.44490  0.92486  1.0000 -0.5108964198
O   O24       1.0  0.54916  0.92486  0.44490  1.0000 -0.5108964198
O   O25       1.0  0.63199  0.42279  0.02323  1.0000 -0.5692914678
O   O26       1.0  0.42199  0.52323  0.13199  1.0000 -0.5692914678
O   O27       1.0  0.42279  0.63199  0.92199  1.0000 -0.5692914678
O   O28       1.0  0.52323  0.42199  0.92279  1.0000 -0.5692914678
O   O29       1.0  0.92199  0.02323  0.42279  1.0000 -0.5692914678
O   O30       1.0  0.13199  0.92279  0.42199  1.0000 -0.5692914678
O   O31       1.0  0.02323  0.92199  0.63199  1.0000 -0.5692914678
O   O32       1.0  0.92279  0.13199  0.52323  1.0000 -0.5692914678
O   O33       1.0  0.02323  0.63199  0.42279  1.0000 -0.5692914678
O   O34       1.0  0.42199  0.92279  0.52323  1.0000 -0.5692914678
O   O35       1.0  0.63199  0.02323  0.92199  1.0000 -0.5692914678
O   O36       1.0  0.92279  0.42199  0.13199  1.0000 -0.5692914678
O   O37       1.0  0.92199  0.42279  0.63199  1.0000 -0.5692914678
O   O38       1.0  0.52323  0.13199  0.42199  1.0000 -0.5692914678
O   O39       1.0  0.42279  0.92199  0.02323  1.0000 -0.5692914678
O   O40       1.0  0.13199  0.52323  0.92279  1.0000 -0.5692914678
O   O41       1.0  0.42279  0.02323  0.63199  1.0000 -0.5692914678
O   O42       1.0  0.52323  0.92279  0.13199  1.0000 -0.5692914678
O   O43       1.0  0.42199  0.13199  0.92279  1.0000 -0.5692914678
O   O44       1.0  0.92279  0.52323  0.42199  1.0000 -0.5692914678
O   O45       1.0  0.13199  0.42199  0.52323  1.0000 -0.5692914678
O   O46       1.0  0.92199  0.63199  0.02323  1.0000 -0.5692914678
O   O47       1.0  0.02323  0.42279  0.92199  1.0000 -0.5692914678
O   O48       1.0  0.63199  0.92199  0.42279  1.0000 -0.5692914678
