# DDEC6 charges by PACMAN v1.1 (https://github.com/mtap-research/PACMAN-charge/)
data_2011[Cu][nan]3[ASR]7
_chemical_formula_sum              "Cu4 H32 C56 N8 O20"
_cell_length_a       8.405
_cell_length_b       10.293
_cell_length_c       17.812
_cell_angle_alpha    90
_cell_angle_beta     104.582
_cell_angle_gamma    90

_symmetry_space_group_name_H-M    "P 1"
_symmetry_Int_Tables_number       1

loop_
  _symmetry_equiv_pos_as_xyz
  'x, y, z'

loop_
  _atom_site_type_symbol
  _atom_site_label
  _atom_site_symmetry_multiplicity
  _atom_site_fract_x
  _atom_site_fract_y
  _atom_site_fract_z
  _atom_site_occupancy
  _atom_site_charge
Cu  Cu1       1.0  0.60564  0.94245  0.43198  1.0000 0.7485570782
Cu  Cu2       1.0  0.60564  0.55755  0.93198  1.0000 0.7485570782
Cu  Cu3       1.0  0.39436  0.44245  0.06802  1.0000 0.7485570782
Cu  Cu4       1.0  0.39436  0.05755  0.56802  1.0000 0.7485570782
H   H1        1.0  0.23460  0.16290  0.09460  1.0000 0.2876618678
H   H2        1.0  0.23460  0.33710  0.59460  1.0000 0.2876618678
H   H3        1.0  0.38670  0.05000  0.20000  1.0000 0.1463301554
H   H4        1.0  0.38670  0.45000  0.70000  1.0000 0.1463301554
H   H5        1.0  0.63290  0.72770  0.16920  1.0000 0.1327878112
H   H6        1.0  0.63290  0.77230  0.66920  1.0000 0.1327878112
H   H7        1.0  0.34070  0.91050  0.98450  1.0000 0.1373246188
H   H8        1.0  0.34070  0.58950  0.48450  1.0000 0.1373246188
H   H9        1.0  0.82920  0.43550  0.06450  1.0000 0.1196470313
H   H10       1.0  0.82920  0.06450  0.56450  1.0000 0.1196470313
H   H11       1.0  0.02300  0.27240  0.09170  1.0000 0.1463301554
H   H12       1.0  0.02300  0.22760  0.59170  1.0000 0.1463301554
H   H13       1.0  0.97080  0.22840  0.86310  1.0000 0.1463301554
H   H14       1.0  0.97080  0.27160  0.36310  1.0000 0.1463301554
H   H15       1.0  0.77740  0.39110  0.84130  1.0000 0.1196470313
H   H16       1.0  0.77740  0.10890  0.34130  1.0000 0.1196470313
H   H17       1.0  0.76540  0.66290  0.40540  1.0000 0.2876618678
H   H18       1.0  0.76540  0.83710  0.90540  1.0000 0.2876618678
H   H19       1.0  0.61330  0.55000  0.30000  1.0000 0.1463301554
H   H20       1.0  0.61330  0.95000  0.80000  1.0000 0.1463301554
H   H21       1.0  0.36710  0.22770  0.33080  1.0000 0.1327878112
H   H22       1.0  0.36710  0.27230  0.83080  1.0000 0.1327878112
H   H23       1.0  0.65930  0.41050  0.51550  1.0000 0.1373246188
H   H24       1.0  0.65930  0.08950  0.01550  1.0000 0.1373246188
H   H25       1.0  0.17080  0.93550  0.43550  1.0000 0.1196470313
H   H26       1.0  0.17080  0.56450  0.93550  1.0000 0.1196470313
H   H27       1.0  0.97700  0.77240  0.40830  1.0000 0.1463301554
H   H28       1.0  0.97700  0.72760  0.90830  1.0000 0.1463301554
H   H29       1.0  0.02920  0.72840  0.63690  1.0000 0.1463301554
H   H30       1.0  0.02920  0.77160  0.13690  1.0000 0.1463301554
H   H31       1.0  0.22260  0.89110  0.65870  1.0000 0.1196470313
H   H32       1.0  0.22260  0.60890  0.15870  1.0000 0.1196470313
C   C1        1.0  0.34370  0.99710  0.08786  1.0000 0.2390820222
C   C2        1.0  0.34370  0.50290  0.58786  1.0000 0.2390820222
C   C3        1.0  0.41290  0.98810  0.16700  1.0000 -0.1772946542
C   C4        1.0  0.41290  0.51190  0.66700  1.0000 -0.1772946542
C   C5        1.0  0.52080  0.88800  0.19788  1.0000 -0.0026026042
C   C6        1.0  0.52080  0.61200  0.69788  1.0000 -0.0026026042
C   C7        1.0  0.56120  0.79520  0.14908  1.0000 -0.1248218486
C   C8        1.0  0.56120  0.70480  0.64908  1.0000 -0.1248218486
C   C9        1.0  0.49230  0.80510  0.06946  1.0000 -0.0216672439
C   C10       1.0  0.49230  0.69490  0.56946  1.0000 -0.0216672439
C   C11       1.0  0.38460  0.90500  0.03778  1.0000 -0.1744511737
C   C12       1.0  0.38460  0.59500  0.53778  1.0000 -0.1744511737
C   C13       1.0  0.13150  0.11520  0.99097  1.0000 0.4543661275
C   C14       1.0  0.13150  0.38480  0.49097  1.0000 0.4543661275
C   C15       1.0  0.85760  0.39270  0.02380  1.0000 0.0899194541
C   C16       1.0  0.85760  0.10730  0.52380  1.0000 0.0899194541
C   C17       1.0  0.97420  0.29490  0.04055  1.0000 -0.1512810713
C   C18       1.0  0.97420  0.20510  0.54055  1.0000 -0.1512810713
C   C19       1.0  0.01710  0.23100  0.98026  1.0000 0.0362413755
C   C20       1.0  0.01710  0.26900  0.48026  1.0000 0.0362413755
C   C21       1.0  0.94290  0.26870  0.90468  1.0000 -0.1387102058
C   C22       1.0  0.94290  0.23130  0.40468  1.0000 -0.1387102058
C   C23       1.0  0.82730  0.36660  0.89206  1.0000 0.0899194541
C   C24       1.0  0.82730  0.13340  0.39206  1.0000 0.0899194541
C   C25       1.0  0.58960  0.87920  0.28422  1.0000 0.5510872179
C   C26       1.0  0.58960  0.62080  0.78422  1.0000 0.5510872179
C   C27       1.0  0.53100  0.70690  0.01648  1.0000 0.5072421307
C   C28       1.0  0.53100  0.79310  0.51648  1.0000 0.5072421307
C   C29       1.0  0.65630  0.49710  0.41214  1.0000 0.2390820222
C   C30       1.0  0.65630  0.00290  0.91214  1.0000 0.2390820222
C   C31       1.0  0.58710  0.48810  0.33300  1.0000 -0.1772946542
C   C32       1.0  0.58710  0.01190  0.83300  1.0000 -0.1772946542
C   C33       1.0  0.47920  0.38800  0.30212  1.0000 -0.0026026042
C   C34       1.0  0.47920  0.11200  0.80212  1.0000 -0.0026026042
C   C35       1.0  0.43880  0.29520  0.35092  1.0000 -0.1248218486
C   C36       1.0  0.43880  0.20480  0.85092  1.0000 -0.1248218486
C   C37       1.0  0.50770  0.30510  0.43054  1.0000 -0.0216672439
C   C38       1.0  0.50770  0.19490  0.93054  1.0000 -0.0216672439
C   C39       1.0  0.61540  0.40500  0.46222  1.0000 -0.1744511737
C   C40       1.0  0.61540  0.09500  0.96222  1.0000 -0.1744511737
C   C41       1.0  0.86850  0.61520  0.50903  1.0000 0.4543661275
C   C42       1.0  0.86850  0.88480  0.00903  1.0000 0.4543661275
C   C43       1.0  0.14240  0.89270  0.47620  1.0000 0.0899194541
C   C44       1.0  0.14240  0.60730  0.97620  1.0000 0.0899194541
C   C45       1.0  0.02580  0.79490  0.45945  1.0000 -0.1512810713
C   C46       1.0  0.02580  0.70510  0.95945  1.0000 -0.1512810713
C   C47       1.0  0.98290  0.73100  0.51974  1.0000 0.0362413755
C   C48       1.0  0.98290  0.76900  0.01974  1.0000 0.0362413755
C   C49       1.0  0.05710  0.76870  0.59532  1.0000 -0.1387102058
C   C50       1.0  0.05710  0.73130  0.09532  1.0000 -0.1387102058
C   C51       1.0  0.17270  0.86660  0.60794  1.0000 0.0899194541
C   C52       1.0  0.17270  0.63340  0.10794  1.0000 0.0899194541
C   C53       1.0  0.41040  0.37920  0.21578  1.0000 0.5510872179
C   C54       1.0  0.41040  0.12080  0.71578  1.0000 0.5510872179
C   C55       1.0  0.46900  0.20690  0.48352  1.0000 0.5072421307
C   C56       1.0  0.46900  0.29310  0.98352  1.0000 0.5072421307
N   N1        1.0  0.23490  0.10160  0.06182  1.0000 -0.3585347509
N   N2        1.0  0.23490  0.39840  0.56182  1.0000 -0.3585347509
N   N3        1.0  0.78430  0.42780  0.95068  1.0000 -0.2524660764
N   N4        1.0  0.78430  0.07220  0.45068  1.0000 -0.2524660764
N   N5        1.0  0.76510  0.60160  0.43818  1.0000 -0.3585347509
N   N6        1.0  0.76510  0.89840  0.93818  1.0000 -0.3585347509
N   N7        1.0  0.21570  0.92780  0.54932  1.0000 -0.2524660764
N   N8        1.0  0.21570  0.57220  0.04932  1.0000 -0.2524660764
O   O1        1.0  0.12440  0.04090  0.93674  1.0000 -0.4485709792
O   O2        1.0  0.12440  0.45910  0.43674  1.0000 -0.4485709792
O   O3        1.0  0.53090  0.96250  0.32375  1.0000 -0.528058303
O   O4        1.0  0.53090  0.53750  0.82375  1.0000 -0.528058303
O   O5        1.0  0.69360  0.79740  0.31292  1.0000 -0.5640772259
O   O6        1.0  0.69360  0.70260  0.81292  1.0000 -0.5640772259
O   O7        1.0  0.62200  0.60920  0.04178  1.0000 -0.5465969569
O   O8        1.0  0.62200  0.89080  0.54178  1.0000 -0.5465969569
O   O9        1.0  0.47290  0.71530  0.94385  1.0000 -0.4633405929
O   O10       1.0  0.47290  0.78470  0.44385  1.0000 -0.4633405929
O   O11       1.0  0.87560  0.54090  0.56326  1.0000 -0.4485709792
O   O12       1.0  0.87560  0.95910  0.06326  1.0000 -0.4485709792
O   O13       1.0  0.46910  0.46250  0.17625  1.0000 -0.528058303
O   O14       1.0  0.46910  0.03750  0.67625  1.0000 -0.528058303
O   O15       1.0  0.30640  0.29740  0.18708  1.0000 -0.5640772259
O   O16       1.0  0.30640  0.20260  0.68708  1.0000 -0.5640772259
O   O17       1.0  0.37800  0.10920  0.45822  1.0000 -0.5465969569
O   O18       1.0  0.37800  0.39080  0.95822  1.0000 -0.5465969569
O   O19       1.0  0.52710  0.21530  0.55615  1.0000 -0.4633405929
O   O20       1.0  0.52710  0.28470  0.05615  1.0000 -0.4633405929
