# DDEC6 charges by PACMAN v1.1 (https://github.com/mtap-research/PACMAN-charge/)
data_2011[ZnSi][pcu]3[ASR]1
_chemical_formula_sum              "Zn4 Si4 H112 C160 N16 F24"
_cell_length_a       17.7892
_cell_length_b       17.7892
_cell_length_c       15.0473
_cell_angle_alpha    90
_cell_angle_beta     90
_cell_angle_gamma    90

_symmetry_space_group_name_H-M    "P 1"
_symmetry_Int_Tables_number       1

loop_
  _symmetry_equiv_pos_as_xyz
  'x, y, z'

loop_
  _atom_site_type_symbol
  _atom_site_label
  _atom_site_symmetry_multiplicity
  _atom_site_fract_x
  _atom_site_fract_y
  _atom_site_fract_z
  _atom_site_occupancy
  _atom_site_charge
Zn  Zn1       1.0  0.50000  0.00000  0.37156  1.0000 0.7573210524
Zn  Zn2       1.0  0.50000  0.00000  0.87156  1.0000 0.7573210524
Zn  Zn3       1.0  0.00000  0.50000  0.12844  1.0000 0.7573210524
Zn  Zn4       1.0  0.00000  0.50000  0.62844  1.0000 0.7573210524
Si  Si1       1.0  0.50000  0.00000  0.12147  1.0000 1.7142867372
Si  Si2       1.0  0.50000  0.00000  0.62147  1.0000 1.7142867372
Si  Si3       1.0  0.00000  0.50000  0.37853  1.0000 1.7142867372
Si  Si4       1.0  0.00000  0.50000  0.87853  1.0000 1.7142867372
H   H1        1.0  0.37190  0.07680  0.27110  1.0000 0.1194632205
H   H2        1.0  0.62810  0.92320  0.27110  1.0000 0.1194632205
H   H3        1.0  0.42320  0.87190  0.27110  1.0000 0.1194632205
H   H4        1.0  0.57680  0.12810  0.27110  1.0000 0.1194632205
H   H5        1.0  0.62810  0.07680  0.77110  1.0000 0.1194632205
H   H6        1.0  0.37190  0.92320  0.77110  1.0000 0.1194632205
H   H7        1.0  0.57680  0.87190  0.77110  1.0000 0.1194632205
H   H8        1.0  0.42320  0.12810  0.77110  1.0000 0.1194632205
H   H9        1.0  0.24250  0.09040  0.27260  1.0000 0.1333426797
H   H10       1.0  0.75750  0.90960  0.27260  1.0000 0.1333426797
H   H11       1.0  0.40960  0.74250  0.27260  1.0000 0.1333426797
H   H12       1.0  0.59040  0.25750  0.27260  1.0000 0.1333426797
H   H13       1.0  0.75750  0.09040  0.77260  1.0000 0.1333426797
H   H14       1.0  0.24250  0.90960  0.77260  1.0000 0.1333426797
H   H15       1.0  0.59040  0.74250  0.77260  1.0000 0.1333426797
H   H16       1.0  0.40960  0.25750  0.77260  1.0000 0.1333426797
H   H17       1.0  0.23460  0.94230  0.47670  1.0000 0.1355872305
H   H18       1.0  0.76540  0.05770  0.47670  1.0000 0.1355872305
H   H19       1.0  0.55770  0.73460  0.47670  1.0000 0.1355872305
H   H20       1.0  0.44230  0.26540  0.47670  1.0000 0.1355872305
H   H21       1.0  0.76540  0.94230  0.97670  1.0000 0.1355872305
H   H22       1.0  0.23460  0.05770  0.97670  1.0000 0.1355872305
H   H23       1.0  0.44230  0.73460  0.97670  1.0000 0.1355872305
H   H24       1.0  0.55770  0.26540  0.97670  1.0000 0.1355872305
H   H25       1.0  0.36480  0.93630  0.47300  1.0000 0.1194632205
H   H26       1.0  0.63520  0.06370  0.47300  1.0000 0.1194632205
H   H27       1.0  0.56370  0.86480  0.47300  1.0000 0.1194632205
H   H28       1.0  0.43630  0.13520  0.47300  1.0000 0.1194632205
H   H29       1.0  0.63520  0.93630  0.97300  1.0000 0.1194632205
H   H30       1.0  0.36480  0.06370  0.97300  1.0000 0.1194632205
H   H31       1.0  0.43630  0.86480  0.97300  1.0000 0.1194632205
H   H32       1.0  0.56370  0.13520  0.97300  1.0000 0.1194632205
H   H33       1.0  0.11940  0.91160  0.38010  1.0000 0.1194632205
H   H34       1.0  0.88060  0.08840  0.38010  1.0000 0.1194632205
H   H35       1.0  0.58840  0.61940  0.38010  1.0000 0.1194632205
H   H36       1.0  0.41160  0.38060  0.38010  1.0000 0.1194632205
H   H37       1.0  0.88060  0.91160  0.88010  1.0000 0.1194632205
H   H38       1.0  0.11940  0.08840  0.88010  1.0000 0.1194632205
H   H39       1.0  0.41160  0.61940  0.88010  1.0000 0.1194632205
H   H40       1.0  0.58840  0.38060  0.88010  1.0000 0.1194632205
H   H41       1.0  0.00630  0.14930  0.37520  1.0000 0.1194632205
H   H42       1.0  0.99370  0.85070  0.37520  1.0000 0.1194632205
H   H43       1.0  0.35070  0.50630  0.37520  1.0000 0.1194632205
H   H44       1.0  0.64930  0.49370  0.37520  1.0000 0.1194632205
H   H45       1.0  0.99370  0.14930  0.87520  1.0000 0.1194632205
H   H46       1.0  0.00630  0.85070  0.87520  1.0000 0.1194632205
H   H47       1.0  0.64930  0.50630  0.87520  1.0000 0.1194632205
H   H48       1.0  0.35070  0.49370  0.87520  1.0000 0.1194632205
H   H49       1.0  0.13540  0.13890  0.37070  1.0000 0.1194632205
H   H50       1.0  0.86460  0.86110  0.37070  1.0000 0.1194632205
H   H51       1.0  0.36110  0.63540  0.37070  1.0000 0.1194632205
H   H52       1.0  0.63890  0.36460  0.37070  1.0000 0.1194632205
H   H53       1.0  0.86460  0.13890  0.87070  1.0000 0.1194632205
H   H54       1.0  0.13540  0.86110  0.87070  1.0000 0.1194632205
H   H55       1.0  0.63890  0.63540  0.87070  1.0000 0.1194632205
H   H56       1.0  0.36110  0.36460  0.87070  1.0000 0.1194632205
H   H57       1.0  0.87190  0.42320  0.22890  1.0000 0.1194632205
H   H58       1.0  0.12810  0.57680  0.22890  1.0000 0.1194632205
H   H59       1.0  0.92320  0.62810  0.22890  1.0000 0.1194632205
H   H60       1.0  0.07680  0.37190  0.22890  1.0000 0.1194632205
H   H61       1.0  0.12810  0.42320  0.72890  1.0000 0.1194632205
H   H62       1.0  0.87190  0.57680  0.72890  1.0000 0.1194632205
H   H63       1.0  0.07680  0.62810  0.72890  1.0000 0.1194632205
H   H64       1.0  0.92320  0.37190  0.72890  1.0000 0.1194632205
H   H65       1.0  0.74250  0.40960  0.22740  1.0000 0.1333426797
H   H66       1.0  0.25750  0.59040  0.22740  1.0000 0.1333426797
H   H67       1.0  0.90960  0.75750  0.22740  1.0000 0.1333426797
H   H68       1.0  0.09040  0.24250  0.22740  1.0000 0.1333426797
H   H69       1.0  0.25750  0.40960  0.72740  1.0000 0.1333426797
H   H70       1.0  0.74250  0.59040  0.72740  1.0000 0.1333426797
H   H71       1.0  0.09040  0.75750  0.72740  1.0000 0.1333426797
H   H72       1.0  0.90960  0.24250  0.72740  1.0000 0.1333426797
H   H73       1.0  0.73460  0.55770  0.02330  1.0000 0.1355872305
H   H74       1.0  0.26540  0.44230  0.02330  1.0000 0.1355872305
H   H75       1.0  0.05770  0.76540  0.02330  1.0000 0.1355872305
H   H76       1.0  0.94230  0.23460  0.02330  1.0000 0.1355872305
H   H77       1.0  0.26540  0.55770  0.52330  1.0000 0.1355872305
H   H78       1.0  0.73460  0.44230  0.52330  1.0000 0.1355872305
H   H79       1.0  0.94230  0.76540  0.52330  1.0000 0.1355872305
H   H80       1.0  0.05770  0.23460  0.52330  1.0000 0.1355872305
H   H81       1.0  0.86480  0.56370  0.02700  1.0000 0.1194632205
H   H82       1.0  0.13520  0.43630  0.02700  1.0000 0.1194632205
H   H83       1.0  0.06370  0.63520  0.02700  1.0000 0.1194632205
H   H84       1.0  0.93630  0.36480  0.02700  1.0000 0.1194632205
H   H85       1.0  0.13520  0.56370  0.52700  1.0000 0.1194632205
H   H86       1.0  0.86480  0.43630  0.52700  1.0000 0.1194632205
H   H87       1.0  0.93630  0.63520  0.52700  1.0000 0.1194632205
H   H88       1.0  0.06370  0.36480  0.52700  1.0000 0.1194632205
H   H89       1.0  0.61940  0.58840  0.11990  1.0000 0.1194632205
H   H90       1.0  0.38060  0.41160  0.11990  1.0000 0.1194632205
H   H91       1.0  0.08840  0.88060  0.11990  1.0000 0.1194632205
H   H92       1.0  0.91160  0.11940  0.11990  1.0000 0.1194632205
H   H93       1.0  0.38060  0.58840  0.61990  1.0000 0.1194632205
H   H94       1.0  0.61940  0.41160  0.61990  1.0000 0.1194632205
H   H95       1.0  0.91160  0.88060  0.61990  1.0000 0.1194632205
H   H96       1.0  0.08840  0.11940  0.61990  1.0000 0.1194632205
H   H97       1.0  0.50630  0.35070  0.12480  1.0000 0.1194632205
H   H98       1.0  0.49370  0.64930  0.12480  1.0000 0.1194632205
H   H99       1.0  0.85070  0.99370  0.12480  1.0000 0.1194632205
H   H100      1.0  0.14930  0.00630  0.12480  1.0000 0.1194632205
H   H101      1.0  0.49370  0.35070  0.62480  1.0000 0.1194632205
H   H102      1.0  0.50630  0.64930  0.62480  1.0000 0.1194632205
H   H103      1.0  0.14930  0.99370  0.62480  1.0000 0.1194632205
H   H104      1.0  0.85070  0.00630  0.62480  1.0000 0.1194632205
H   H105      1.0  0.63540  0.36110  0.12930  1.0000 0.1194632205
H   H106      1.0  0.36460  0.63890  0.12930  1.0000 0.1194632205
H   H107      1.0  0.86110  0.86460  0.12930  1.0000 0.1194632205
H   H108      1.0  0.13890  0.13540  0.12930  1.0000 0.1194632205
H   H109      1.0  0.36460  0.36110  0.62930  1.0000 0.1194632205
H   H110      1.0  0.63540  0.63890  0.62930  1.0000 0.1194632205
H   H111      1.0  0.13890  0.86460  0.62930  1.0000 0.1194632205
H   H112      1.0  0.86110  0.13540  0.62930  1.0000 0.1194632205
C   C1        1.0  0.34347  0.04983  0.31400  1.0000 0.1004202451
C   C2        1.0  0.65653  0.95017  0.31400  1.0000 0.1004202451
C   C3        1.0  0.45017  0.84347  0.31400  1.0000 0.1004202451
C   C4        1.0  0.54983  0.15653  0.31400  1.0000 0.1004202451
C   C5        1.0  0.65653  0.04983  0.81400  1.0000 0.1004202451
C   C6        1.0  0.34347  0.95017  0.81400  1.0000 0.1004202451
C   C7        1.0  0.54983  0.84347  0.81400  1.0000 0.1004202451
C   C8        1.0  0.45017  0.15653  0.81400  1.0000 0.1004202451
C   C9        1.0  0.26631  0.05762  0.31380  1.0000 -0.1977946682
C   C10       1.0  0.73369  0.94238  0.31380  1.0000 -0.1977946682
C   C11       1.0  0.44238  0.76631  0.31380  1.0000 -0.1977946682
C   C12       1.0  0.55762  0.23369  0.31380  1.0000 -0.1977946682
C   C13       1.0  0.73369  0.05762  0.81380  1.0000 -0.1977946682
C   C14       1.0  0.26631  0.94238  0.81380  1.0000 -0.1977946682
C   C15       1.0  0.55762  0.76631  0.81380  1.0000 -0.1977946682
C   C16       1.0  0.44238  0.23369  0.81380  1.0000 -0.1977946682
C   C17       1.0  0.22360  0.01680  0.37475  1.0000 0.1138863565
C   C18       1.0  0.77640  0.98320  0.37475  1.0000 0.1138863565
C   C19       1.0  0.48320  0.72360  0.37475  1.0000 0.1138863565
C   C20       1.0  0.51680  0.27640  0.37475  1.0000 0.1138863565
C   C21       1.0  0.77640  0.01680  0.87475  1.0000 0.1138863565
C   C22       1.0  0.22360  0.98320  0.87475  1.0000 0.1138863565
C   C23       1.0  0.51680  0.72360  0.87475  1.0000 0.1138863565
C   C24       1.0  0.48320  0.27640  0.87475  1.0000 0.1138863565
C   C25       1.0  0.26173  0.97110  0.43420  1.0000 -0.1925590521
C   C26       1.0  0.73827  0.02890  0.43420  1.0000 -0.1925590521
C   C27       1.0  0.52890  0.76173  0.43420  1.0000 -0.1925590521
C   C28       1.0  0.47110  0.23827  0.43420  1.0000 -0.1925590521
C   C29       1.0  0.73827  0.97110  0.93420  1.0000 -0.1925590521
C   C30       1.0  0.26173  0.02890  0.93420  1.0000 -0.1925590521
C   C31       1.0  0.47110  0.76173  0.93420  1.0000 -0.1925590521
C   C32       1.0  0.52890  0.23827  0.93420  1.0000 -0.1925590521
C   C33       1.0  0.33939  0.96739  0.43130  1.0000 0.1004202451
C   C34       1.0  0.66061  0.03261  0.43130  1.0000 0.1004202451
C   C35       1.0  0.53261  0.83939  0.43130  1.0000 0.1004202451
C   C36       1.0  0.46739  0.16061  0.43130  1.0000 0.1004202451
C   C37       1.0  0.66061  0.96739  0.93130  1.0000 0.1004202451
C   C38       1.0  0.33939  0.03261  0.93130  1.0000 0.1004202451
C   C39       1.0  0.46739  0.83939  0.93130  1.0000 0.1004202451
C   C40       1.0  0.53261  0.16061  0.93130  1.0000 0.1004202451
C   C41       1.0  0.14060  0.02300  0.37629  1.0000 0.0653677146
C   C42       1.0  0.85940  0.97700  0.37629  1.0000 0.0653677146
C   C43       1.0  0.47700  0.64060  0.37629  1.0000 0.0653677146
C   C44       1.0  0.52300  0.35940  0.37629  1.0000 0.0653677146
C   C45       1.0  0.85940  0.02300  0.87629  1.0000 0.0653677146
C   C46       1.0  0.14060  0.97700  0.87629  1.0000 0.0653677146
C   C47       1.0  0.52300  0.64060  0.87629  1.0000 0.0653677146
C   C48       1.0  0.47700  0.35940  0.87629  1.0000 0.0653677146
C   C49       1.0  0.09621  0.95970  0.37827  1.0000 -0.1925590521
C   C50       1.0  0.90379  0.04030  0.37827  1.0000 -0.1925590521
C   C51       1.0  0.54030  0.59621  0.37827  1.0000 -0.1925590521
C   C52       1.0  0.45970  0.40379  0.37827  1.0000 -0.1925590521
C   C53       1.0  0.90379  0.95970  0.87827  1.0000 -0.1925590521
C   C54       1.0  0.09621  0.04030  0.87827  1.0000 -0.1925590521
C   C55       1.0  0.45970  0.59621  0.87827  1.0000 -0.1925590521
C   C56       1.0  0.54030  0.40379  0.87827  1.0000 -0.1925590521
C   C57       1.0  0.01735  0.96450  0.37764  1.0000 0.0791625904
C   C58       1.0  0.98265  0.03550  0.37764  1.0000 0.0791625904
C   C59       1.0  0.53550  0.51735  0.37764  1.0000 0.0791625904
C   C60       1.0  0.46450  0.48265  0.37764  1.0000 0.0791625904
C   C61       1.0  0.98265  0.96450  0.87764  1.0000 0.0791625904
C   C62       1.0  0.01735  0.03550  0.87764  1.0000 0.0791625904
C   C63       1.0  0.46450  0.51735  0.87764  1.0000 0.0791625904
C   C64       1.0  0.53550  0.48265  0.87764  1.0000 0.0791625904
C   C65       1.0  0.02890  0.10090  0.37550  1.0000 -0.1472426214
C   C66       1.0  0.97110  0.89910  0.37550  1.0000 -0.1472426214
C   C67       1.0  0.39910  0.52890  0.37550  1.0000 -0.1472426214
C   C68       1.0  0.60090  0.47110  0.37550  1.0000 -0.1472426214
C   C69       1.0  0.97110  0.10090  0.87550  1.0000 -0.1472426214
C   C70       1.0  0.02890  0.89910  0.87550  1.0000 -0.1472426214
C   C71       1.0  0.60090  0.52890  0.87550  1.0000 -0.1472426214
C   C72       1.0  0.39910  0.47110  0.87550  1.0000 -0.1472426214
C   C73       1.0  0.10540  0.09480  0.37370  1.0000 -0.1638395263
C   C74       1.0  0.89460  0.90520  0.37370  1.0000 -0.1638395263
C   C75       1.0  0.40520  0.60540  0.37370  1.0000 -0.1638395263
C   C76       1.0  0.59480  0.39460  0.37370  1.0000 -0.1638395263
C   C77       1.0  0.89460  0.09480  0.87370  1.0000 -0.1638395263
C   C78       1.0  0.10540  0.90520  0.87370  1.0000 -0.1638395263
C   C79       1.0  0.59480  0.60540  0.87370  1.0000 -0.1638395263
C   C80       1.0  0.40520  0.39460  0.87370  1.0000 -0.1638395263
C   C81       1.0  0.84347  0.45017  0.18600  1.0000 0.1004202451
C   C82       1.0  0.15653  0.54983  0.18600  1.0000 0.1004202451
C   C83       1.0  0.95017  0.65653  0.18600  1.0000 0.1004202451
C   C84       1.0  0.04983  0.34347  0.18600  1.0000 0.1004202451
C   C85       1.0  0.15653  0.45017  0.68600  1.0000 0.1004202451
C   C86       1.0  0.84347  0.54983  0.68600  1.0000 0.1004202451
C   C87       1.0  0.04983  0.65653  0.68600  1.0000 0.1004202451
C   C88       1.0  0.95017  0.34347  0.68600  1.0000 0.1004202451
C   C89       1.0  0.76631  0.44238  0.18620  1.0000 -0.1977946682
C   C90       1.0  0.23369  0.55762  0.18620  1.0000 -0.1977946682
C   C91       1.0  0.94238  0.73369  0.18620  1.0000 -0.1977946682
C   C92       1.0  0.05762  0.26631  0.18620  1.0000 -0.1977946682
C   C93       1.0  0.23369  0.44238  0.68620  1.0000 -0.1977946682
C   C94       1.0  0.76631  0.55762  0.68620  1.0000 -0.1977946682
C   C95       1.0  0.05762  0.73369  0.68620  1.0000 -0.1977946682
C   C96       1.0  0.94238  0.26631  0.68620  1.0000 -0.1977946682
C   C97       1.0  0.72360  0.48320  0.12525  1.0000 0.1138863565
C   C98       1.0  0.27640  0.51680  0.12525  1.0000 0.1138863565
C   C99       1.0  0.98320  0.77640  0.12525  1.0000 0.1138863565
C   C100      1.0  0.01680  0.22360  0.12525  1.0000 0.1138863565
C   C101      1.0  0.27640  0.48320  0.62525  1.0000 0.1138863565
C   C102      1.0  0.72360  0.51680  0.62525  1.0000 0.1138863565
C   C103      1.0  0.01680  0.77640  0.62525  1.0000 0.1138863565
C   C104      1.0  0.98320  0.22360  0.62525  1.0000 0.1138863565
C   C105      1.0  0.76173  0.52890  0.06580  1.0000 -0.1925590521
C   C106      1.0  0.23827  0.47110  0.06580  1.0000 -0.1925590521
C   C107      1.0  0.02890  0.73827  0.06580  1.0000 -0.1925590521
C   C108      1.0  0.97110  0.26173  0.06580  1.0000 -0.1925590521
C   C109      1.0  0.23827  0.52890  0.56580  1.0000 -0.1925590521
C   C110      1.0  0.76173  0.47110  0.56580  1.0000 -0.1925590521
C   C111      1.0  0.97110  0.73827  0.56580  1.0000 -0.1925590521
C   C112      1.0  0.02890  0.26173  0.56580  1.0000 -0.1925590521
C   C113      1.0  0.83939  0.53261  0.06870  1.0000 0.1004202451
C   C114      1.0  0.16061  0.46739  0.06870  1.0000 0.1004202451
C   C115      1.0  0.03261  0.66061  0.06870  1.0000 0.1004202451
C   C116      1.0  0.96739  0.33939  0.06870  1.0000 0.1004202451
C   C117      1.0  0.16061  0.53261  0.56870  1.0000 0.1004202451
C   C118      1.0  0.83939  0.46739  0.56870  1.0000 0.1004202451
C   C119      1.0  0.96739  0.66061  0.56870  1.0000 0.1004202451
C   C120      1.0  0.03261  0.33939  0.56870  1.0000 0.1004202451
C   C121      1.0  0.64060  0.47700  0.12371  1.0000 0.0653677146
C   C122      1.0  0.35940  0.52300  0.12371  1.0000 0.0653677146
C   C123      1.0  0.97700  0.85940  0.12371  1.0000 0.0653677146
C   C124      1.0  0.02300  0.14060  0.12371  1.0000 0.0653677146
C   C125      1.0  0.35940  0.47700  0.62371  1.0000 0.0653677146
C   C126      1.0  0.64060  0.52300  0.62371  1.0000 0.0653677146
C   C127      1.0  0.02300  0.85940  0.62371  1.0000 0.0653677146
C   C128      1.0  0.97700  0.14060  0.62371  1.0000 0.0653677146
C   C129      1.0  0.59621  0.54030  0.12173  1.0000 -0.1925590521
C   C130      1.0  0.40379  0.45970  0.12173  1.0000 -0.1925590521
C   C131      1.0  0.04030  0.90379  0.12173  1.0000 -0.1925590521
C   C132      1.0  0.95970  0.09621  0.12173  1.0000 -0.1925590521
C   C133      1.0  0.40379  0.54030  0.62173  1.0000 -0.1925590521
C   C134      1.0  0.59621  0.45970  0.62173  1.0000 -0.1925590521
C   C135      1.0  0.95970  0.90379  0.62173  1.0000 -0.1925590521
C   C136      1.0  0.04030  0.09621  0.62173  1.0000 -0.1925590521
C   C137      1.0  0.51735  0.53550  0.12236  1.0000 0.0791625904
C   C138      1.0  0.48265  0.46450  0.12236  1.0000 0.0791625904
C   C139      1.0  0.03550  0.98265  0.12236  1.0000 0.0791625904
C   C140      1.0  0.96450  0.01735  0.12236  1.0000 0.0791625904
C   C141      1.0  0.48265  0.53550  0.62236  1.0000 0.0791625904
C   C142      1.0  0.51735  0.46450  0.62236  1.0000 0.0791625904
C   C143      1.0  0.96450  0.98265  0.62236  1.0000 0.0791625904
C   C144      1.0  0.03550  0.01735  0.62236  1.0000 0.0791625904
C   C145      1.0  0.52890  0.39910  0.12450  1.0000 -0.1472426214
C   C146      1.0  0.47110  0.60090  0.12450  1.0000 -0.1472426214
C   C147      1.0  0.89910  0.97110  0.12450  1.0000 -0.1472426214
C   C148      1.0  0.10090  0.02890  0.12450  1.0000 -0.1472426214
C   C149      1.0  0.47110  0.39910  0.62450  1.0000 -0.1472426214
C   C150      1.0  0.52890  0.60090  0.62450  1.0000 -0.1472426214
C   C151      1.0  0.10090  0.97110  0.62450  1.0000 -0.1472426214
C   C152      1.0  0.89910  0.02890  0.62450  1.0000 -0.1472426214
C   C153      1.0  0.60540  0.40520  0.12630  1.0000 -0.1638395263
C   C154      1.0  0.39460  0.59480  0.12630  1.0000 -0.1638395263
C   C155      1.0  0.90520  0.89460  0.12630  1.0000 -0.1638395263
C   C156      1.0  0.09480  0.10540  0.12630  1.0000 -0.1638395263
C   C157      1.0  0.39460  0.40520  0.62630  1.0000 -0.1638395263
C   C158      1.0  0.60540  0.59480  0.62630  1.0000 -0.1638395263
C   C159      1.0  0.09480  0.89460  0.62630  1.0000 -0.1638395263
C   C160      1.0  0.90520  0.10540  0.62630  1.0000 -0.1638395263
N   N1        1.0  0.38016  0.00602  0.37193  1.0000 -0.2380928079
N   N2        1.0  0.61984  0.99398  0.37193  1.0000 -0.2380928079
N   N3        1.0  0.49398  0.88016  0.37193  1.0000 -0.2380928079
N   N4        1.0  0.50602  0.11984  0.37193  1.0000 -0.2380928079
N   N5        1.0  0.61984  0.00602  0.87193  1.0000 -0.2380928079
N   N6        1.0  0.38016  0.99398  0.87193  1.0000 -0.2380928079
N   N7        1.0  0.50602  0.88016  0.87193  1.0000 -0.2380928079
N   N8        1.0  0.49398  0.11984  0.87193  1.0000 -0.2380928079
N   N9        1.0  0.88016  0.49398  0.12807  1.0000 -0.2380928079
N   N10       1.0  0.11984  0.50602  0.12807  1.0000 -0.2380928079
N   N11       1.0  0.99398  0.61984  0.12807  1.0000 -0.2380928079
N   N12       1.0  0.00602  0.38016  0.12807  1.0000 -0.2380928079
N   N13       1.0  0.11984  0.49398  0.62807  1.0000 -0.2380928079
N   N14       1.0  0.88016  0.50602  0.62807  1.0000 -0.2380928079
N   N15       1.0  0.00602  0.61984  0.62807  1.0000 -0.2380928079
N   N16       1.0  0.99398  0.38016  0.62807  1.0000 -0.2380928079
F   F1        1.0  0.50000  0.00000  0.23430  1.0000 -0.5087331308
F   F2        1.0  0.50000  0.00000  0.73430  1.0000 -0.5087331308
F   F3        1.0  0.42104  0.94930  0.12137  1.0000 -0.5569508186
F   F4        1.0  0.57896  0.05070  0.12137  1.0000 -0.5569508186
F   F5        1.0  0.55070  0.92104  0.12137  1.0000 -0.5569508186
F   F6        1.0  0.44930  0.07896  0.12137  1.0000 -0.5569508186
F   F7        1.0  0.57896  0.94930  0.62137  1.0000 -0.5569508186
F   F8        1.0  0.42104  0.05070  0.62137  1.0000 -0.5569508186
F   F9        1.0  0.44930  0.92104  0.62137  1.0000 -0.5569508186
F   F10       1.0  0.55070  0.07896  0.62137  1.0000 -0.5569508186
F   F11       1.0  0.50000  0.00000  0.00870  1.0000 -0.5087331308
F   F12       1.0  0.50000  0.00000  0.50870  1.0000 -0.5087331308
F   F13       1.0  0.00000  0.50000  0.26570  1.0000 -0.5087331308
F   F14       1.0  0.00000  0.50000  0.76570  1.0000 -0.5087331308
F   F15       1.0  0.92104  0.55070  0.37863  1.0000 -0.5569508186
F   F16       1.0  0.07896  0.44930  0.37863  1.0000 -0.5569508186
F   F17       1.0  0.05070  0.57896  0.37863  1.0000 -0.5569508186
F   F18       1.0  0.94930  0.42104  0.37863  1.0000 -0.5569508186
F   F19       1.0  0.07896  0.55070  0.87863  1.0000 -0.5569508186
F   F20       1.0  0.92104  0.44930  0.87863  1.0000 -0.5569508186
F   F21       1.0  0.94930  0.57896  0.87863  1.0000 -0.5569508186
F   F22       1.0  0.05070  0.42104  0.87863  1.0000 -0.5569508186
F   F23       1.0  0.00000  0.50000  0.49130  1.0000 -0.5087331308
F   F24       1.0  0.00000  0.50000  0.99130  1.0000 -0.5087331308
