# DDEC6 charges by PACMAN v1.1 (https://github.com/mtap-research/PACMAN-charge/)
data_2011[Er][eea]3[ASR]1
_chemical_formula_sum              "Er6 H54 C96 O72"
_cell_length_a       18.8226
_cell_length_b       18.8226
_cell_length_c       18.8226
_cell_angle_alpha    62.8981
_cell_angle_beta     62.8981
_cell_angle_gamma    62.8981

_symmetry_space_group_name_H-M    "P 1"
_symmetry_Int_Tables_number       1

loop_
  _symmetry_equiv_pos_as_xyz
  'x, y, z'

loop_
  _atom_site_type_symbol
  _atom_site_label
  _atom_site_symmetry_multiplicity
  _atom_site_fract_x
  _atom_site_fract_y
  _atom_site_fract_z
  _atom_site_occupancy
  _atom_site_charge
Er  Er1       1.0  0.44068  0.00444  0.43372  1.0000 1.8796083821
Er  Er2       1.0  0.00444  0.43372  0.44068  1.0000 1.8796083821
Er  Er3       1.0  0.43372  0.44068  0.00444  1.0000 1.8796083821
Er  Er4       1.0  0.55932  0.99556  0.56628  1.0000 1.8796083821
Er  Er5       1.0  0.99556  0.56628  0.55932  1.0000 1.8796083821
Er  Er6       1.0  0.56628  0.55932  0.99556  1.0000 1.8796083821
H   H1        1.0  0.48190  0.77500  0.76410  1.0000 0.1005350295
H   H2        1.0  0.77500  0.76410  0.48190  1.0000 0.1005350295
H   H3        1.0  0.76410  0.48190  0.77500  1.0000 0.1005350295
H   H4        1.0  0.51810  0.22500  0.23590  1.0000 0.1005350295
H   H5        1.0  0.22500  0.23590  0.51810  1.0000 0.1005350295
H   H6        1.0  0.23590  0.51810  0.22500  1.0000 0.1005350295
H   H7        1.0  0.36270  0.61010  0.84480  1.0000 0.1122409555
H   H8        1.0  0.61010  0.84480  0.36270  1.0000 0.1122409555
H   H9        1.0  0.84480  0.36270  0.61010  1.0000 0.1122409555
H   H10       1.0  0.63730  0.38990  0.15520  1.0000 0.1122409555
H   H11       1.0  0.38990  0.15520  0.63730  1.0000 0.1122409555
H   H12       1.0  0.15520  0.63730  0.38990  1.0000 0.1122409555
H   H13       1.0  0.34470  0.80570  0.63420  1.0000 0.14480027
H   H14       1.0  0.80570  0.63420  0.34470  1.0000 0.14480027
H   H15       1.0  0.63420  0.34470  0.80570  1.0000 0.14480027
H   H16       1.0  0.65530  0.19430  0.36580  1.0000 0.14480027
H   H17       1.0  0.19430  0.36580  0.65530  1.0000 0.1452181581
H   H18       1.0  0.36580  0.65530  0.19430  1.0000 0.14480027
H   H19       1.0  0.33300  0.56010  0.77180  1.0000 0.1005350295
H   H20       1.0  0.56010  0.77180  0.33300  1.0000 0.1005350295
H   H21       1.0  0.77180  0.33300  0.56010  1.0000 0.1005350295
H   H22       1.0  0.66700  0.43990  0.22820  1.0000 0.1005350295
H   H23       1.0  0.43990  0.22820  0.66700  1.0000 0.1005350295
H   H24       1.0  0.22820  0.66700  0.43990  1.0000 0.1005350295
H   H25       1.0  0.24970  0.60360  0.83230  1.0000 0.1005350295
H   H26       1.0  0.60360  0.83230  0.24970  1.0000 0.1005350295
H   H27       1.0  0.83230  0.24970  0.60360  1.0000 0.1005350295
H   H28       1.0  0.75030  0.39640  0.16770  1.0000 0.1005350295
H   H29       1.0  0.39640  0.16770  0.75030  1.0000 0.1005350295
H   H30       1.0  0.16770  0.75030  0.39640  1.0000 0.1005350295
H   H31       1.0  0.12070  0.60590  0.83420  1.0000 0.1188267475
H   H32       1.0  0.60590  0.83420  0.12070  1.0000 0.1188267475
H   H33       1.0  0.83420  0.12070  0.60590  1.0000 0.1188267475
H   H34       1.0  0.87930  0.39410  0.16580  1.0000 0.1188267475
H   H35       1.0  0.39410  0.16580  0.87930  1.0000 0.1188267475
H   H36       1.0  0.16580  0.87930  0.39410  1.0000 0.1188267475
H   H37       1.0  0.04530  0.59520  0.77390  1.0000 0.1188267475
H   H38       1.0  0.59520  0.77390  0.04530  1.0000 0.1188267475
H   H39       1.0  0.77390  0.04530  0.59520  1.0000 0.1188267475
H   H40       1.0  0.95470  0.40480  0.22610  1.0000 0.1188267475
H   H41       1.0  0.40480  0.22610  0.95470  1.0000 0.1188267475
H   H42       1.0  0.22610  0.95470  0.40480  1.0000 0.1188267475
H   H43       1.0  0.24700  0.56100  0.57880  1.0000 0.1122409555
H   H44       1.0  0.56100  0.57880  0.24700  1.0000 0.1122409555
H   H45       1.0  0.57880  0.24700  0.56100  1.0000 0.1122409555
H   H46       1.0  0.75300  0.43900  0.42120  1.0000 0.1122409555
H   H47       1.0  0.43900  0.42120  0.75300  1.0000 0.1122409555
H   H48       1.0  0.42120  0.75300  0.43900  1.0000 0.1122409555
H   H49       1.0  0.32440  0.56620  0.64170  1.0000 0.1122409555
H   H50       1.0  0.56620  0.64170  0.32440  1.0000 0.1122409555
H   H51       1.0  0.64170  0.32440  0.56620  1.0000 0.1122409555
H   H52       1.0  0.67560  0.43380  0.35830  1.0000 0.1122409555
H   H53       1.0  0.43380  0.35830  0.67560  1.0000 0.1122409555
H   H54       1.0  0.35830  0.67560  0.43380  1.0000 0.1122409555
C   C1        1.0  0.43904  0.88044  0.62484  1.0000 0.6463635756
C   C2        1.0  0.88044  0.62484  0.43904  1.0000 0.6463635756
C   C3        1.0  0.62484  0.43904  0.88044  1.0000 0.6463635756
C   C4        1.0  0.56096  0.11956  0.37516  1.0000 0.6463635756
C   C5        1.0  0.11956  0.37516  0.56096  1.0000 0.6463635756
C   C6        1.0  0.37516  0.56096  0.11956  1.0000 0.6463635756
C   C7        1.0  0.41458  0.80348  0.68978  1.0000 -0.0065290866
C   C8        1.0  0.80348  0.68978  0.41458  1.0000 -0.0065290866
C   C9        1.0  0.68978  0.41458  0.80348  1.0000 -0.0065290866
C   C10       1.0  0.58542  0.19652  0.31022  1.0000 -0.0065290866
C   C11       1.0  0.19652  0.31022  0.58542  1.0000 -0.0065290866
C   C12       1.0  0.31022  0.58542  0.19652  1.0000 -0.0065290866
C   C13       1.0  0.44758  0.75698  0.75728  1.0000 -0.1538259542
C   C14       1.0  0.75698  0.75728  0.44758  1.0000 -0.1538259542
C   C15       1.0  0.75728  0.44758  0.75698  1.0000 -0.1538259542
C   C16       1.0  0.55242  0.24302  0.24272  1.0000 -0.1538259542
C   C17       1.0  0.24302  0.24272  0.55242  1.0000 -0.1538259542
C   C18       1.0  0.24272  0.55242  0.24302  1.0000 -0.1538259542
C   C19       1.0  0.42856  0.68436  0.81316  1.0000 -0.0294863406
C   C20       1.0  0.68436  0.81316  0.42856  1.0000 -0.0294863406
C   C21       1.0  0.81316  0.42856  0.68436  1.0000 -0.0294863406
C   C22       1.0  0.57144  0.31564  0.18684  1.0000 -0.0294863406
C   C23       1.0  0.31564  0.18684  0.57144  1.0000 -0.0294863406
C   C24       1.0  0.18684  0.57144  0.31564  1.0000 -0.0294863406
C   C25       1.0  0.37661  0.65821  0.80561  1.0000 -0.21971271
C   C26       1.0  0.65821  0.80561  0.37661  1.0000 -0.21971271
C   C27       1.0  0.80561  0.37661  0.65821  1.0000 -0.21971271
C   C28       1.0  0.62339  0.34179  0.19439  1.0000 -0.21971271
C   C29       1.0  0.34179  0.19439  0.62339  1.0000 -0.21971271
C   C30       1.0  0.19439  0.62339  0.34179  1.0000 -0.21971271
C   C31       1.0  0.34449  0.70459  0.73789  1.0000 0.2443493996
C   C32       1.0  0.70459  0.73789  0.34449  1.0000 0.2443493996
C   C33       1.0  0.73789  0.34449  0.70459  1.0000 0.2443493996
C   C34       1.0  0.65551  0.29541  0.26211  1.0000 0.2443493996
C   C35       1.0  0.29541  0.26211  0.65551  1.0000 0.2443493996
C   C36       1.0  0.26211  0.65551  0.29541  1.0000 0.2443493996
C   C37       1.0  0.36496  0.77616  0.67996  1.0000 -0.2085375867
C   C38       1.0  0.77616  0.67996  0.36496  1.0000 -0.2085375867
C   C39       1.0  0.67996  0.36496  0.77616  1.0000 -0.2085375867
C   C40       1.0  0.63504  0.22384  0.32004  1.0000 -0.2085375867
C   C41       1.0  0.22384  0.32004  0.63504  1.0000 -0.2085375867
C   C42       1.0  0.32004  0.63504  0.22384  1.0000 -0.2085375867
C   C43       1.0  0.27960  0.60470  0.77430  1.0000 -0.0898193699
C   C44       1.0  0.60470  0.77430  0.27960  1.0000 -0.0898193699
C   C45       1.0  0.77430  0.27960  0.60470  1.0000 -0.0898193699
C   C46       1.0  0.72040  0.39530  0.22570  1.0000 -0.0898193699
C   C47       1.0  0.39530  0.22570  0.72040  1.0000 -0.0898193699
C   C48       1.0  0.22570  0.72040  0.39530  1.0000 -0.0898193699
C   C49       1.0  0.22930  0.59330  0.74060  1.0000 0.0632432792
C   C50       1.0  0.59330  0.74060  0.22930  1.0000 0.0632432792
C   C51       1.0  0.74060  0.22930  0.59330  1.0000 0.0632432792
C   C52       1.0  0.77070  0.40670  0.25940  1.0000 0.0632432792
C   C53       1.0  0.40670  0.25940  0.77070  1.0000 0.0632432792
C   C54       1.0  0.25940  0.77070  0.40670  1.0000 0.0632432792
C   C55       1.0  0.14680  0.59780  0.78170  1.0000 -0.1591089486
C   C56       1.0  0.59780  0.78170  0.14680  1.0000 -0.1591089486
C   C57       1.0  0.78170  0.14680  0.59780  1.0000 -0.1591089486
C   C58       1.0  0.85320  0.40220  0.21830  1.0000 -0.1591089486
C   C59       1.0  0.40220  0.21830  0.85320  1.0000 -0.1591089486
C   C60       1.0  0.21830  0.85320  0.40220  1.0000 -0.1591089486
C   C61       1.0  0.10190  0.59060  0.74560  1.0000 -0.0898193699
C   C62       1.0  0.59060  0.74560  0.10190  1.0000 -0.0898193699
C   C63       1.0  0.74560  0.10190  0.59060  1.0000 -0.0898193699
C   C64       1.0  0.89810  0.40940  0.25440  1.0000 -0.0898193699
C   C65       1.0  0.40940  0.25440  0.89810  1.0000 -0.0898193699
C   C66       1.0  0.25440  0.89810  0.40940  1.0000 -0.0898193699
C   C67       1.0  0.13728  0.57718  0.67138  1.0000 -0.0231170763
C   C68       1.0  0.57718  0.67138  0.13728  1.0000 -0.0231170763
C   C69       1.0  0.67138  0.13728  0.57718  1.0000 -0.0231170763
C   C70       1.0  0.86272  0.42282  0.32862  1.0000 -0.0231170763
C   C71       1.0  0.42282  0.32862  0.86272  1.0000 -0.0231170763
C   C72       1.0  0.32862  0.86272  0.42282  1.0000 -0.0231170763
C   C73       1.0  0.08839  0.57179  0.63119  1.0000 0.5443345997
C   C74       1.0  0.57179  0.63119  0.08839  1.0000 0.5443345997
C   C75       1.0  0.63119  0.08839  0.57179  1.0000 0.5443345997
C   C76       1.0  0.91161  0.42821  0.36881  1.0000 0.5443345997
C   C77       1.0  0.42821  0.36881  0.91161  1.0000 0.5443345997
C   C78       1.0  0.36881  0.91161  0.42821  1.0000 0.5443345997
C   C79       1.0  0.22100  0.56970  0.63090  1.0000 -0.125087386
C   C80       1.0  0.56970  0.63090  0.22100  1.0000 -0.125087386
C   C81       1.0  0.63090  0.22100  0.56970  1.0000 -0.1245842781
C   C82       1.0  0.77900  0.43030  0.36910  1.0000 -0.1245842781
C   C83       1.0  0.43030  0.36910  0.77900  1.0000 -0.1245842781
C   C84       1.0  0.36910  0.77900  0.43030  1.0000 -0.125087386
C   C85       1.0  0.26690  0.57520  0.66770  1.0000 -0.1591089486
C   C86       1.0  0.57520  0.66770  0.26690  1.0000 -0.1591089486
C   C87       1.0  0.66770  0.26690  0.57520  1.0000 -0.1591089486
C   C88       1.0  0.73310  0.42480  0.33230  1.0000 -0.1591089486
C   C89       1.0  0.42480  0.33230  0.73310  1.0000 -0.1591089486
C   C90       1.0  0.33230  0.73310  0.42480  1.0000 -0.1591089486
C   C91       1.0  0.46499  0.63649  0.88259  1.0000 0.6381156935
C   C92       1.0  0.63649  0.88259  0.46499  1.0000 0.6381156935
C   C93       1.0  0.88259  0.46499  0.63649  1.0000 0.6381156935
C   C94       1.0  0.53501  0.36351  0.11741  1.0000 0.6381156935
C   C95       1.0  0.36351  0.11741  0.53501  1.0000 0.6381156935
C   C96       1.0  0.11741  0.53501  0.36351  1.0000 0.6381156935
O   O1        1.0  0.40479  0.92129  0.56979  1.0000 -0.6040237394
O   O2        1.0  0.92129  0.56979  0.40479  1.0000 -0.6052056458
O   O3        1.0  0.56979  0.40479  0.92129  1.0000 -0.6040237394
O   O4        1.0  0.59521  0.07871  0.43021  1.0000 -0.6040237394
O   O5        1.0  0.07871  0.43021  0.59521  1.0000 -0.6040237394
O   O6        1.0  0.43021  0.59521  0.07871  1.0000 -0.6040237394
O   O7        1.0  0.49398  0.89528  0.63168  1.0000 -0.6840698149
O   O8        1.0  0.89528  0.63168  0.49398  1.0000 -0.6840698149
O   O9        1.0  0.63168  0.49398  0.89528  1.0000 -0.6840698149
O   O10       1.0  0.50602  0.10472  0.36832  1.0000 -0.6840698149
O   O11       1.0  0.10472  0.36832  0.50602  1.0000 -0.6851068046
O   O12       1.0  0.36832  0.50602  0.10472  1.0000 -0.6840698149
O   O13       1.0  0.37490  0.11370  0.32900  1.0000 -0.0404384856
O   O14       1.0  0.11370  0.32900  0.37490  1.0000 -0.0404384856
O   O15       1.0  0.32900  0.37490  0.11370  1.0000 -0.0404384856
O   O16       1.0  0.62510  0.88630  0.67100  1.0000 -0.0404384856
O   O17       1.0  0.88630  0.67100  0.62510  1.0000 -0.0404384856
O   O18       1.0  0.67100  0.62510  0.88630  1.0000 -0.0453209449
O   O19       1.0  0.01738  0.56208  0.67498  1.0000 -0.618378322
O   O20       1.0  0.56208  0.67498  0.01738  1.0000 -0.618378322
O   O21       1.0  0.67498  0.01738  0.56208  1.0000 -0.618378322
O   O22       1.0  0.98262  0.43792  0.32502  1.0000 -0.618378322
O   O23       1.0  0.43792  0.32502  0.98262  1.0000 -0.618378322
O   O24       1.0  0.32502  0.98262  0.43792  1.0000 -0.618378322
O   O25       1.0  0.52800  0.99580  0.29290  1.0000 -0.0404384856
O   O26       1.0  0.99580  0.29290  0.52800  1.0000 -0.0404384856
O   O27       1.0  0.29290  0.52800  0.99580  1.0000 -0.0294863406
O   O28       1.0  0.47200  0.00420  0.70710  1.0000 -0.0294863406
O   O29       1.0  0.00420  0.70710  0.47200  1.0000 -0.0294863406
O   O30       1.0  0.70710  0.47200  0.00420  1.0000 -0.0404384856
O   O31       1.0  0.11722  0.57872  0.55532  1.0000 -0.6040237394
O   O32       1.0  0.57872  0.55532  0.11722  1.0000 -0.6040237394
O   O33       1.0  0.55532  0.11722  0.57872  1.0000 -0.6040237394
O   O34       1.0  0.88278  0.42128  0.44468  1.0000 -0.6040237394
O   O35       1.0  0.42128  0.44468  0.88278  1.0000 -0.6052056458
O   O36       1.0  0.44468  0.88278  0.42128  1.0000 -0.6040237394
O   O37       1.0  0.50801  0.66361  0.89291  1.0000 -0.6370046443
O   O38       1.0  0.66361  0.89291  0.50801  1.0000 -0.6370046443
O   O39       1.0  0.89291  0.50801  0.66361  1.0000 -0.6370046443
O   O40       1.0  0.49199  0.33639  0.10709  1.0000 -0.6370046443
O   O41       1.0  0.33639  0.10709  0.49199  1.0000 -0.6370046443
O   O42       1.0  0.10709  0.49199  0.33639  1.0000 -0.6370046443
O   O43       1.0  0.45278  0.56678  0.92998  1.0000 -0.7276647793
O   O44       1.0  0.56678  0.92998  0.45278  1.0000 -0.7276647793
O   O45       1.0  0.92998  0.45278  0.56678  1.0000 -0.7276647793
O   O46       1.0  0.54722  0.43322  0.07002  1.0000 -0.7276647793
O   O47       1.0  0.43322  0.07002  0.54722  1.0000 -0.7276647793
O   O48       1.0  0.07002  0.54722  0.43322  1.0000 -0.7276647793
O   O49       1.0  0.29285  0.68365  0.72395  1.0000 -0.1835827561
O   O50       1.0  0.68365  0.72395  0.29285  1.0000 -0.1835827561
O   O51       1.0  0.72395  0.29285  0.68365  1.0000 -0.1835827561
O   O52       1.0  0.70715  0.31635  0.27605  1.0000 -0.1835827561
O   O53       1.0  0.31635  0.27605  0.70715  1.0000 -0.1835827561
O   O54       1.0  0.27605  0.70715  0.31635  1.0000 -0.1835827561
O   O55       1.0  0.32000  0.25650  0.26450  1.0000 0.2098287685
O   O56       1.0  0.25650  0.26450  0.32000  1.0000 0.199936727
O   O57       1.0  0.26450  0.32000  0.25650  1.0000 0.199936727
O   O58       1.0  0.68000  0.74350  0.73550  1.0000 0.2098287685
O   O59       1.0  0.74350  0.73550  0.68000  1.0000 0.193441892
O   O60       1.0  0.73550  0.68000  0.74350  1.0000 0.2098287685
O   O61       1.0  0.46320  0.03950  0.29690  1.0000 0.0455073509
O   O62       1.0  0.03950  0.29690  0.46320  1.0000 0.0446814168
O   O63       1.0  0.29690  0.46320  0.03950  1.0000 0.0329155493
O   O64       1.0  0.53680  0.96050  0.70310  1.0000 0.0329155493
O   O65       1.0  0.96050  0.70310  0.53680  1.0000 0.0455073509
O   O66       1.0  0.70310  0.53680  0.96050  1.0000 0.0446814168
O   O67       1.0  0.33830  0.17230  0.33430  1.0000 0.1188267475
O   O68       1.0  0.17230  0.33430  0.33830  1.0000 0.1188267475
O   O69       1.0  0.33430  0.33830  0.17230  1.0000 0.1188267475
O   O70       1.0  0.66170  0.82770  0.66570  1.0000 0.1188267475
O   O71       1.0  0.82770  0.66570  0.66170  1.0000 0.1188267475
O   O72       1.0  0.66570  0.66170  0.82770  1.0000 0.1122409555
