# DDEC6 charges by PACMAN v1.1 (https://github.com/mtap-research/PACMAN-charge/)
data_2011[Zn][gra]3[ASR]1
_chemical_formula_sum              "Zn4 C32 O16 F16"
_cell_length_a       8.246
_cell_length_b       19.408
_cell_length_c       9.705
_cell_angle_alpha    90
_cell_angle_beta     101.79
_cell_angle_gamma    90

_symmetry_space_group_name_H-M    "P 1"
_symmetry_Int_Tables_number       1

loop_
  _symmetry_equiv_pos_as_xyz
  'x, y, z'

loop_
  _atom_site_type_symbol
  _atom_site_label
  _atom_site_symmetry_multiplicity
  _atom_site_fract_x
  _atom_site_fract_y
  _atom_site_fract_z
  _atom_site_occupancy
  _atom_site_charge
Zn  Zn1       1.0  0.70771  0.52376  0.85260  1.0000 0.943035969
Zn  Zn2       1.0  0.29229  0.02376  0.14740  1.0000 0.943035969
Zn  Zn3       1.0  0.36316  0.55583  0.92766  1.0000 0.969685593
Zn  Zn4       1.0  0.63684  0.05583  0.07234  1.0000 0.969685593
C   C1        1.0  0.52483  0.42537  0.97871  1.0000 0.6530632464
C   C2        1.0  0.47517  0.92537  0.02129  1.0000 0.6530632464
C   C3        1.0  0.47389  0.35546  0.01629  1.0000 -0.2070183853
C   C4        1.0  0.52611  0.85546  0.98371  1.0000 -0.2070183853
C   C5        1.0  0.51750  0.33356  0.15562  1.0000 0.1694648037
C   C6        1.0  0.48250  0.83356  0.84438  1.0000 0.1694648037
C   C7        1.0  0.46947  0.26874  0.19482  1.0000 0.1694648037
C   C8        1.0  0.53053  0.76874  0.80518  1.0000 0.1694648037
C   C9        1.0  0.37571  0.22505  0.09519  1.0000 -0.2002496185
C   C10       1.0  0.62429  0.72505  0.90481  1.0000 -0.2002496185
C   C11       1.0  0.32945  0.24802  0.95573  1.0000 0.1694648037
C   C12       1.0  0.67055  0.74802  0.04427  1.0000 0.1694648037
C   C13       1.0  0.37770  0.31271  0.91645  1.0000 0.1694648037
C   C14       1.0  0.62230  0.81271  0.08355  1.0000 0.1694648037
C   C15       1.0  0.33504  0.15336  0.12758  1.0000 0.6226556389
C   C16       1.0  0.66496  0.65336  0.87242  1.0000 0.6226556389
C   C17       1.0  0.39510  0.53211  0.63757  1.0000 0.6582405059
C   C18       1.0  0.60490  0.03211  0.36243  1.0000 0.6582405059
C   C19       1.0  0.29949  0.52913  0.48885  1.0000 -0.2070183853
C   C20       1.0  0.70051  0.02913  0.51115  1.0000 -0.2070183853
C   C21       1.0  0.28706  0.46920  0.40848  1.0000 0.1764339892
C   C22       1.0  0.71294  0.96920  0.59152  1.0000 0.1764339892
C   C23       1.0  0.20269  0.46931  0.26699  1.0000 0.1764339892
C   C24       1.0  0.79731  0.96931  0.73301  1.0000 0.1764339892
C   C25       1.0  0.13215  0.52953  0.20169  1.0000 -0.2173832791
C   C26       1.0  0.86785  0.02953  0.79831  1.0000 -0.2173832791
C   C27       1.0  0.13922  0.58839  0.28548  1.0000 0.1619264422
C   C28       1.0  0.86078  0.08839  0.71452  1.0000 0.1619264422
C   C29       1.0  0.21782  0.58791  0.42760  1.0000 0.1764339892
C   C30       1.0  0.78218  0.08791  0.57240  1.0000 0.1764339892
C   C31       1.0  0.05220  0.53328  0.04686  1.0000 0.6723959831
C   C32       1.0  0.94780  0.03328  0.95314  1.0000 0.6723959831
O   O1        1.0  0.45605  0.47471  0.03378  1.0000 -0.5652037771
O   O2        1.0  0.54395  0.97471  0.96622  1.0000 -0.5652037771
O   O3        1.0  0.62785  0.42894  0.89889  1.0000 -0.4963605912
O   O4        1.0  0.37215  0.92894  0.10111  1.0000 -0.4963605912
O   O5        1.0  0.22740  0.13820  0.19508  1.0000 -0.4603419514
O   O6        1.0  0.77260  0.63820  0.80492  1.0000 -0.4603419514
O   O7        1.0  0.41737  0.10538  0.07180  1.0000 -0.622946492
O   O8        1.0  0.58263  0.60538  0.92820  1.0000 -0.622946492
O   O9        1.0  0.54998  0.52205  0.65967  1.0000 -0.5133507164
O   O10       1.0  0.45002  0.02205  0.34033  1.0000 -0.5200124891
O   O11       1.0  0.30145  0.54666  0.72449  1.0000 -0.5499421569
O   O12       1.0  0.69855  0.04666  0.27551  1.0000 -0.5499421569
O   O13       1.0  0.13671  0.55407  0.95854  1.0000 -0.5499421569
O   O14       1.0  0.86329  0.05407  0.04146  1.0000 -0.5499421569
O   O15       1.0  0.90015  0.51652  0.01623  1.0000 -0.5200124891
O   O16       1.0  0.09985  0.01652  0.98377  1.0000 -0.5200124891
F   F1        1.0  0.60909  0.37515  0.25403  1.0000 -0.0979142575
F   F2        1.0  0.39091  0.87515  0.74597  1.0000 -0.0979142575
F   F3        1.0  0.52187  0.24825  0.33085  1.0000 -0.0979142575
F   F4        1.0  0.47813  0.74825  0.66915  1.0000 -0.0979142575
F   F5        1.0  0.23756  0.20619  0.85679  1.0000 -0.0979142575
F   F6        1.0  0.76244  0.70619  0.14321  1.0000 -0.0979142575
F   F7        1.0  0.32897  0.33414  0.78120  1.0000 -0.0979142575
F   F8        1.0  0.67103  0.83414  0.21880  1.0000 -0.0979142575
F   F9        1.0  0.35821  0.41012  0.46693  1.0000 -0.0979142575
F   F10       1.0  0.64179  0.91012  0.53307  1.0000 -0.0979142575
F   F11       1.0  0.19431  0.40946  0.19254  1.0000 -0.0979142575
F   F12       1.0  0.80569  0.90946  0.80746  1.0000 -0.0979142575
F   F13       1.0  0.07489  0.64873  0.22816  1.0000 -0.0979142575
F   F14       1.0  0.92511  0.14873  0.77184  1.0000 -0.0979142575
F   F15       1.0  0.22283  0.64720  0.50216  1.0000 -0.0896638731
F   F16       1.0  0.77717  0.14720  0.49784  1.0000 -0.0896638731
