# DDEC6 charges by PACMAN v1.1 (https://github.com/mtap-research/PACMAN-charge/)
data_2011[Nd][rob]3[ASR]2
_chemical_formula_sum              "Nd8 H24 C72 S12 O48"
_cell_length_a       16.9836
_cell_length_b       12.1799
_cell_length_c       27.7375
_cell_angle_alpha    90
_cell_angle_beta     114.666
_cell_angle_gamma    90

_symmetry_space_group_name_H-M    "P 1"
_symmetry_Int_Tables_number       1

loop_
  _symmetry_equiv_pos_as_xyz
  'x, y, z'

loop_
  _atom_site_type_symbol
  _atom_site_label
  _atom_site_symmetry_multiplicity
  _atom_site_fract_x
  _atom_site_fract_y
  _atom_site_fract_z
  _atom_site_occupancy
  _atom_site_charge
Nd  Nd1       1.0  0.06718  0.47639  0.58152  1.0000 2.0732633675
Nd  Nd2       1.0  0.93282  0.47639  0.91848  1.0000 2.0732633675
Nd  Nd3       1.0  0.93282  0.52361  0.41848  1.0000 2.0732633675
Nd  Nd4       1.0  0.06718  0.52361  0.08152  1.0000 2.0732633675
Nd  Nd5       1.0  0.54308  0.99845  0.58251  1.0000 2.0895426477
Nd  Nd6       1.0  0.45692  0.99845  0.91749  1.0000 2.0895426477
Nd  Nd7       1.0  0.45692  0.00155  0.41749  1.0000 2.0895426477
Nd  Nd8       1.0  0.54308  0.00155  0.08251  1.0000 2.0895426477
H   H1        1.0  0.09080  0.71470  0.42080  1.0000 0.1080662812
H   H2        1.0  0.90920  0.71470  0.07920  1.0000 0.1080662812
H   H3        1.0  0.90920  0.28530  0.57920  1.0000 0.1080662812
H   H4        1.0  0.09080  0.28530  0.92080  1.0000 0.1080662812
H   H5        1.0  0.19940  0.82500  0.40540  1.0000 0.1283404121
H   H6        1.0  0.80060  0.82500  0.09460  1.0000 0.1283404121
H   H7        1.0  0.80060  0.17500  0.59460  1.0000 0.1283404121
H   H8        1.0  0.19940  0.17500  0.90540  1.0000 0.1283404121
H   H9        1.0  0.34180  0.48970  0.76100  1.0000 0.1283404121
H   H10       1.0  0.65820  0.48970  0.73900  1.0000 0.1283404121
H   H11       1.0  0.65820  0.51030  0.23900  1.0000 0.1283404121
H   H12       1.0  0.34180  0.51030  0.26100  1.0000 0.1283404121
H   H13       1.0  0.42710  0.60000  0.83850  1.0000 0.1283404121
H   H14       1.0  0.57290  0.60000  0.66150  1.0000 0.1283404121
H   H15       1.0  0.57290  0.40000  0.16150  1.0000 0.1283404121
H   H16       1.0  0.42710  0.40000  0.33850  1.0000 0.1283404121
H   H17       1.0  0.14180  0.26830  0.39760  1.0000 0.1283404121
H   H18       1.0  0.85820  0.26830  0.10240  1.0000 0.1283404121
H   H19       1.0  0.85820  0.73170  0.60240  1.0000 0.1283404121
H   H20       1.0  0.14180  0.73170  0.89760  1.0000 0.1283404121
H   H21       1.0  0.27540  0.17320  0.41070  1.0000 0.1283404121
H   H22       1.0  0.72460  0.17320  0.08930  1.0000 0.1283404121
H   H23       1.0  0.72460  0.82680  0.58930  1.0000 0.1283404121
H   H24       1.0  0.27540  0.82680  0.91070  1.0000 0.1283404121
C   C1        1.0  0.16470  0.72000  0.50040  1.0000 -0.1278552005
C   C2        1.0  0.83530  0.72000  0.99960  1.0000 -0.1278552005
C   C3        1.0  0.83530  0.28000  0.49960  1.0000 -0.1278552005
C   C4        1.0  0.16470  0.28000  0.00040  1.0000 -0.1278552005
C   C5        1.0  0.14170  0.74000  0.44780  1.0000 -0.1278552005
C   C6        1.0  0.85830  0.74000  0.05220  1.0000 -0.1278552005
C   C7        1.0  0.85830  0.26000  0.55220  1.0000 -0.1278552005
C   C8        1.0  0.14170  0.26000  0.94780  1.0000 -0.1278552005
C   C9        1.0  0.20430  0.80510  0.43890  1.0000 -0.1021733962
C   C10       1.0  0.79570  0.80510  0.06110  1.0000 -0.1021733962
C   C11       1.0  0.79570  0.19490  0.56110  1.0000 -0.1021733962
C   C12       1.0  0.20430  0.19490  0.93890  1.0000 -0.1021733962
C   C13       1.0  0.27070  0.83410  0.48410  1.0000 -0.1401859635
C   C14       1.0  0.72930  0.83410  0.01590  1.0000 -0.1401859635
C   C15       1.0  0.72930  0.16590  0.51590  1.0000 -0.1401859635
C   C16       1.0  0.27070  0.16590  0.98410  1.0000 -0.1401859635
C   C17       1.0  0.12030  0.65030  0.52460  1.0000 0.6129439677
C   C18       1.0  0.87970  0.65030  0.97540  1.0000 0.6129439677
C   C19       1.0  0.87970  0.34970  0.47540  1.0000 0.6129439677
C   C20       1.0  0.12030  0.34970  0.02460  1.0000 0.6129439677
C   C21       1.0  0.34730  0.89730  0.48880  1.0000 0.6383500899
C   C22       1.0  0.65270  0.89730  0.01120  1.0000 0.6383500899
C   C23       1.0  0.65270  0.10270  0.51120  1.0000 0.6383500899
C   C24       1.0  0.34730  0.10270  0.98880  1.0000 0.6383500899
C   C25       1.0  0.25080  0.60670  0.73470  1.0000 -0.1216380868
C   C26       1.0  0.74920  0.60670  0.76530  1.0000 -0.1216380868
C   C27       1.0  0.74920  0.39330  0.26530  1.0000 -0.1216380868
C   C28       1.0  0.25080  0.39330  0.23470  1.0000 -0.1216380868
C   C29       1.0  0.32470  0.55870  0.76740  1.0000 -0.0901069214
C   C30       1.0  0.67530  0.55870  0.73260  1.0000 -0.0901069214
C   C31       1.0  0.67530  0.44130  0.23260  1.0000 -0.0901069214
C   C32       1.0  0.32470  0.44130  0.26740  1.0000 -0.0901069214
C   C33       1.0  0.37420  0.62210  0.81220  1.0000 -0.1021733962
C   C34       1.0  0.62580  0.62210  0.68780  1.0000 -0.1021733962
C   C35       1.0  0.62580  0.37790  0.18780  1.0000 -0.1021733962
C   C36       1.0  0.37420  0.37790  0.31220  1.0000 -0.1021733962
C   C37       1.0  0.33530  0.72020  0.81240  1.0000 -0.1216380868
C   C38       1.0  0.66470  0.72020  0.68760  1.0000 -0.1216380868
C   C39       1.0  0.66470  0.27980  0.18760  1.0000 -0.1216380868
C   C40       1.0  0.33530  0.27980  0.31240  1.0000 -0.1216380868
C   C41       1.0  0.18480  0.56310  0.68440  1.0000 0.5768775846
C   C42       1.0  0.81520  0.56310  0.81560  1.0000 0.5768775846
C   C43       1.0  0.81520  0.43690  0.31560  1.0000 0.5768775846
C   C44       1.0  0.18480  0.43690  0.18440  1.0000 0.5768775846
C   C45       1.0  0.37140  0.81070  0.85060  1.0000 0.5702226366
C   C46       1.0  0.62860  0.81070  0.64940  1.0000 0.5702226366
C   C47       1.0  0.62860  0.18930  0.14940  1.0000 0.5702226366
C   C48       1.0  0.37140  0.18930  0.35060  1.0000 0.5702226366
C   C49       1.0  0.19280  0.31480  0.47480  1.0000 -0.1401859635
C   C50       1.0  0.80720  0.31480  0.02520  1.0000 -0.1401859635
C   C51       1.0  0.80720  0.68520  0.52520  1.0000 -0.1401859635
C   C52       1.0  0.19280  0.68520  0.97480  1.0000 -0.1401859635
C   C53       1.0  0.18990  0.26520  0.43000  1.0000 -0.1021733962
C   C54       1.0  0.81010  0.26520  0.07000  1.0000 -0.1021733962
C   C55       1.0  0.81010  0.73480  0.57000  1.0000 -0.1021733962
C   C56       1.0  0.18990  0.73480  0.93000  1.0000 -0.1021733962
C   C57       1.0  0.26650  0.20900  0.43760  1.0000 -0.1216380868
C   C58       1.0  0.73350  0.20900  0.06240  1.0000 -0.1216380868
C   C59       1.0  0.73350  0.79100  0.56240  1.0000 -0.1216380868
C   C60       1.0  0.26650  0.79100  0.93760  1.0000 -0.1216380868
C   C61       1.0  0.32630  0.21340  0.48920  1.0000 -0.1216380868
C   C62       1.0  0.67370  0.21340  0.01080  1.0000 -0.1216380868
C   C63       1.0  0.67370  0.78660  0.51080  1.0000 -0.1216380868
C   C64       1.0  0.32630  0.78660  0.98920  1.0000 -0.1216380868
C   C65       1.0  0.12570  0.38120  0.48270  1.0000 0.6383500899
C   C66       1.0  0.87430  0.38120  0.01730  1.0000 0.6383500899
C   C67       1.0  0.87430  0.61880  0.51730  1.0000 0.6383500899
C   C68       1.0  0.12570  0.61880  0.98270  1.0000 0.6383500899
C   C69       1.0  0.41250  0.16000  0.51480  1.0000 0.6294842566
C   C70       1.0  0.58750  0.16000  0.98520  1.0000 0.6294842566
C   C71       1.0  0.58750  0.84000  0.48520  1.0000 0.6294842566
C   C72       1.0  0.41250  0.84000  0.01480  1.0000 0.6294842566
S   S1        1.0  0.25950  0.78220  0.53764  1.0000 0.2317050079
S   S2        1.0  0.74050  0.78220  0.96236  1.0000 0.2317050079
S   S3        1.0  0.74050  0.21780  0.46236  1.0000 0.2317050079
S   S4        1.0  0.25950  0.21780  0.03764  1.0000 0.2317050079
S   S5        1.0  0.23874  0.73240  0.75851  1.0000 0.2005955557
S   S6        1.0  0.76126  0.73240  0.74149  1.0000 0.2005955557
S   S7        1.0  0.76126  0.26760  0.24149  1.0000 0.2005955557
S   S8        1.0  0.23874  0.26760  0.25851  1.0000 0.2005955557
S   S9        1.0  0.28953  0.28940  0.52793  1.0000 0.293878218
S   S10       1.0  0.71047  0.28940  0.97207  1.0000 0.293878218
S   S11       1.0  0.71047  0.71060  0.47207  1.0000 0.2951154316
S   S12       1.0  0.28953  0.71060  0.02793  1.0000 0.2951154316
O   O1        1.0  0.04760  0.60850  0.49440  1.0000 -0.7705447172
O   O2        1.0  0.95240  0.60850  0.00560  1.0000 -0.7705447172
O   O3        1.0  0.95240  0.39150  0.50560  1.0000 -0.7705447172
O   O4        1.0  0.04760  0.39150  0.99440  1.0000 -0.7705447172
O   O5        1.0  0.15520  0.63350  0.57240  1.0000 -0.5482286607
O   O6        1.0  0.84480  0.63350  0.92760  1.0000 -0.5482286607
O   O7        1.0  0.84480  0.36650  0.42760  1.0000 -0.5482286607
O   O8        1.0  0.15520  0.36650  0.07240  1.0000 -0.5482286607
O   O9        1.0  0.39840  0.92350  0.53500  1.0000 -0.6527181958
O   O10       1.0  0.60160  0.92350  0.96500  1.0000 -0.6527181958
O   O11       1.0  0.60160  0.07650  0.46500  1.0000 -0.6527181958
O   O12       1.0  0.39840  0.07650  0.03500  1.0000 -0.6527181958
O   O13       1.0  0.35450  0.91900  0.44730  1.0000 -0.6586315329
O   O14       1.0  0.64550  0.91900  0.05270  1.0000 -0.6586315329
O   O15       1.0  0.64550  0.08100  0.55270  1.0000 -0.6586315329
O   O16       1.0  0.35450  0.08100  0.94730  1.0000 -0.6586315329
O   O17       1.0  0.11440  0.61060  0.66200  1.0000 -0.6271482105
O   O18       1.0  0.88560  0.61060  0.83800  1.0000 -0.6271482105
O   O19       1.0  0.88560  0.38940  0.33800  1.0000 -0.6271482105
O   O20       1.0  0.11440  0.38940  0.16200  1.0000 -0.6271482105
O   O21       1.0  0.20230  0.47770  0.66550  1.0000 -0.6729905402
O   O22       1.0  0.79770  0.47770  0.83450  1.0000 -0.6729905402
O   O23       1.0  0.79770  0.52230  0.33450  1.0000 -0.6729905402
O   O24       1.0  0.20230  0.52230  0.16550  1.0000 -0.6729905402
O   O25       1.0  0.44720  0.79890  0.88740  1.0000 -0.6244768893
O   O26       1.0  0.55280  0.79890  0.61260  1.0000 -0.6271482105
O   O27       1.0  0.55280  0.20110  0.11260  1.0000 -0.6244768893
O   O28       1.0  0.44720  0.20110  0.38740  1.0000 -0.6271482105
O   O29       1.0  0.32920  0.89620  0.84670  1.0000 -0.6527181958
O   O30       1.0  0.67080  0.89620  0.65330  1.0000 -0.6527181958
O   O31       1.0  0.67080  0.10380  0.15330  1.0000 -0.6527181958
O   O32       1.0  0.32920  0.10380  0.34670  1.0000 -0.6527181958
O   O33       1.0  0.14210  0.40950  0.52890  1.0000 -0.6586315329
O   O34       1.0  0.85790  0.40950  0.97110  1.0000 -0.6586315329
O   O35       1.0  0.85790  0.59050  0.47110  1.0000 -0.6586315329
O   O36       1.0  0.14210  0.59050  0.02890  1.0000 -0.6586315329
O   O37       1.0  0.05750  0.40000  0.44200  1.0000 -0.6586315329
O   O38       1.0  0.94250  0.40000  0.05800  1.0000 -0.6586315329
O   O39       1.0  0.94250  0.60000  0.55800  1.0000 -0.6586315329
O   O40       1.0  0.05750  0.60000  0.94200  1.0000 -0.6586315329
O   O41       1.0  0.45070  0.16510  0.56400  1.0000 -0.6350217258
O   O42       1.0  0.54930  0.16510  0.93600  1.0000 -0.6350217258
O   O43       1.0  0.54930  0.83490  0.43600  1.0000 -0.6350217258
O   O44       1.0  0.45070  0.83490  0.06400  1.0000 -0.6350217258
O   O45       1.0  0.44390  0.11280  0.48650  1.0000 -0.725261191
O   O46       1.0  0.55610  0.11280  0.01350  1.0000 -0.725261191
O   O47       1.0  0.55610  0.88720  0.51350  1.0000 -0.725261191
O   O48       1.0  0.44390  0.88720  0.98650  1.0000 -0.725261191
