# DDEC6 charges by PACMAN v1.1 (https://github.com/mtap-research/PACMAN-charge/)
data_2011[Cd][bcu]3[ASR]1
_chemical_formula_sum              "Cd8 H88 C116 S4 N8 O32"
_cell_length_a       11.166
_cell_length_b       17.71
_cell_length_c       19.669
_cell_angle_alpha    90
_cell_angle_beta     97.07
_cell_angle_gamma    90

_symmetry_space_group_name_H-M    "P 1"
_symmetry_Int_Tables_number       1

loop_
  _symmetry_equiv_pos_as_xyz
  'x, y, z'

loop_
  _atom_site_type_symbol
  _atom_site_label
  _atom_site_symmetry_multiplicity
  _atom_site_fract_x
  _atom_site_fract_y
  _atom_site_fract_z
  _atom_site_occupancy
  _atom_site_charge
Cd  Cd1       1.0  0.60605  0.61237  0.55870  1.0000 0.9683424942
Cd  Cd2       1.0  0.39395  0.11237  0.94130  1.0000 0.9683424942
Cd  Cd3       1.0  0.39395  0.38763  0.44130  1.0000 0.9683424942
Cd  Cd4       1.0  0.60605  0.88763  0.05870  1.0000 0.9683424942
Cd  Cd5       1.0  0.56441  0.55927  0.37736  1.0000 1.0457669012
Cd  Cd6       1.0  0.43559  0.05927  0.12264  1.0000 1.0457669012
Cd  Cd7       1.0  0.43559  0.44073  0.62264  1.0000 1.0457669012
Cd  Cd8       1.0  0.56441  0.94073  0.87736  1.0000 1.0457669012
H   H1        1.0  0.35650  0.73380  0.43420  1.0000 0.1206225795
H   H2        1.0  0.64350  0.23380  0.06580  1.0000 0.1206225795
H   H3        1.0  0.64350  0.26620  0.56580  1.0000 0.1206225795
H   H4        1.0  0.35650  0.76620  0.93420  1.0000 0.1206225795
H   H5        1.0  0.16730  0.75520  0.37920  1.0000 0.1120498664
H   H6        1.0  0.83270  0.25520  0.12080  1.0000 0.1120498664
H   H7        1.0  0.83270  0.24480  0.62080  1.0000 0.1120498664
H   H8        1.0  0.16730  0.74480  0.87920  1.0000 0.1120498664
H   H9        1.0  0.14100  0.82800  0.27840  1.0000 0.1001995435
H   H10       1.0  0.85900  0.32800  0.22160  1.0000 0.1001995435
H   H11       1.0  0.85900  0.17200  0.72160  1.0000 0.1001995435
H   H12       1.0  0.14100  0.67200  0.77840  1.0000 0.1001995435
H   H13       1.0  0.30210  0.87440  0.23180  1.0000 0.1206225795
H   H14       1.0  0.69790  0.37440  0.26820  1.0000 0.1206225795
H   H15       1.0  0.69790  0.12560  0.76820  1.0000 0.1206225795
H   H16       1.0  0.30210  0.62560  0.73180  1.0000 0.1206225795
H   H17       1.0  0.75630  0.91660  0.25290  1.0000 0.1120498664
H   H18       1.0  0.24370  0.41660  0.24710  1.0000 0.1120498664
H   H19       1.0  0.24370  0.08340  0.74710  1.0000 0.1120498664
H   H20       1.0  0.75630  0.58340  0.75290  1.0000 0.1120498664
H   H21       1.0  0.93880  0.90090  0.31330  1.0000 0.1120498664
H   H22       1.0  0.06120  0.40090  0.18670  1.0000 0.1120498664
H   H23       1.0  0.06120  0.09910  0.68670  1.0000 0.1120498664
H   H24       1.0  0.93880  0.59910  0.81330  1.0000 0.1120498664
H   H25       1.0  0.96220  0.83240  0.41630  1.0000 0.1120498664
H   H26       1.0  0.03780  0.33240  0.08370  1.0000 0.1120498664
H   H27       1.0  0.03780  0.16760  0.58370  1.0000 0.1120498664
H   H28       1.0  0.96220  0.66760  0.91630  1.0000 0.1120498664
H   H29       1.0  0.79890  0.77540  0.45270  1.0000 0.1206225795
H   H30       1.0  0.20110  0.27540  0.04730  1.0000 0.1206225795
H   H31       1.0  0.20110  0.22460  0.54730  1.0000 0.1206225795
H   H32       1.0  0.79890  0.72460  0.95270  1.0000 0.1206225795
H   H33       1.0  0.86280  0.58690  0.50190  1.0000 0.1206225795
H   H34       1.0  0.13720  0.08690  0.99810  1.0000 0.1206225795
H   H35       1.0  0.13720  0.41310  0.49810  1.0000 0.1206225795
H   H36       1.0  0.86280  0.91310  0.00190  1.0000 0.1206225795
H   H37       1.0  0.05900  0.62750  0.51350  1.0000 0.1540399045
H   H38       1.0  0.94100  0.12750  0.98650  1.0000 0.1540399045
H   H39       1.0  0.94100  0.37250  0.48650  1.0000 0.1540399045
H   H40       1.0  0.05900  0.87250  0.01350  1.0000 0.1540399045
H   H41       1.0  0.99020  0.75430  0.67020  1.0000 0.138044592
H   H42       1.0  0.00980  0.25430  0.82980  1.0000 0.138044592
H   H43       1.0  0.00980  0.24570  0.32980  1.0000 0.138044592
H   H44       1.0  0.99020  0.74570  0.17020  1.0000 0.138044592
H   H45       1.0  0.79540  0.70910  0.65750  1.0000 0.1120498664
H   H46       1.0  0.20460  0.20910  0.84250  1.0000 0.1120498664
H   H47       1.0  0.20460  0.29090  0.34250  1.0000 0.1120498664
H   H48       1.0  0.79540  0.79090  0.15750  1.0000 0.1120498664
H   H49       1.0  0.22780  0.69070  0.57970  1.0000 0.138044592
H   H50       1.0  0.77220  0.19070  0.92030  1.0000 0.138044592
H   H51       1.0  0.77220  0.30930  0.42030  1.0000 0.138044592
H   H52       1.0  0.22780  0.80930  0.07970  1.0000 0.138044592
H   H53       1.0  0.20690  0.73130  0.64820  1.0000 0.1120498664
H   H54       1.0  0.79310  0.23130  0.85180  1.0000 0.1120498664
H   H55       1.0  0.79310  0.26870  0.35180  1.0000 0.1120498664
H   H56       1.0  0.20690  0.76870  0.14820  1.0000 0.1120498664
H   H57       1.0  0.15570  0.79650  0.51710  1.0000 0.1001995435
H   H58       1.0  0.84430  0.29650  0.98290  1.0000 0.1001995435
H   H59       1.0  0.84430  0.20350  0.48290  1.0000 0.1001995435
H   H60       1.0  0.15570  0.70350  0.01710  1.0000 0.1001995435
H   H61       1.0  0.12970  0.83700  0.58470  1.0000 0.084667135
H   H62       1.0  0.87030  0.33700  0.91530  1.0000 0.084667135
H   H63       1.0  0.87030  0.16300  0.41530  1.0000 0.084667135
H   H64       1.0  0.12970  0.66300  0.08470  1.0000 0.084667135
H   H65       1.0  0.36550  0.79840  0.55520  1.0000 0.1296871565
H   H66       1.0  0.63450  0.29840  0.94480  1.0000 0.1296871565
H   H67       1.0  0.63450  0.20160  0.44480  1.0000 0.1296871565
H   H68       1.0  0.36550  0.70160  0.05520  1.0000 0.1296871565
H   H69       1.0  0.31400  0.88080  0.55020  1.0000 0.1296871565
H   H70       1.0  0.68600  0.38080  0.94980  1.0000 0.1296871565
H   H71       1.0  0.68600  0.11920  0.44980  1.0000 0.1296871565
H   H72       1.0  0.31400  0.61920  0.05020  1.0000 0.1296871565
H   H73       1.0  0.30780  0.93290  0.78770  1.0000 0.1120498664
H   H74       1.0  0.69220  0.43290  0.71230  1.0000 0.1120498664
H   H75       1.0  0.69220  0.06710  0.21230  1.0000 0.1120498664
H   H76       1.0  0.30780  0.56710  0.28770  1.0000 0.1120498664
H   H77       1.0  0.22390  0.90980  0.67620  1.0000 0.138044592
H   H78       1.0  0.77610  0.40980  0.82380  1.0000 0.138044592
H   H79       1.0  0.77610  0.09020  0.32380  1.0000 0.138044592
H   H80       1.0  0.22390  0.59020  0.17620  1.0000 0.138044592
H   H81       1.0  0.51810  0.78950  0.64990  1.0000 0.1540399045
H   H82       1.0  0.48190  0.28950  0.85010  1.0000 0.1540399045
H   H83       1.0  0.48190  0.21050  0.35010  1.0000 0.1540399045
H   H84       1.0  0.51810  0.71050  0.14990  1.0000 0.1540399045
H   H85       1.0  0.59260  0.81890  0.76050  1.0000 0.1001995435
H   H86       1.0  0.40740  0.31890  0.73950  1.0000 0.1001995435
H   H87       1.0  0.40740  0.18110  0.23950  1.0000 0.1001995435
H   H88       1.0  0.59260  0.68110  0.26050  1.0000 0.1001995435
C   C1        1.0  0.58500  0.73020  0.46310  1.0000 0.5789328925
C   C2        1.0  0.41500  0.23020  0.03690  1.0000 0.5789328925
C   C3        1.0  0.41500  0.26980  0.53690  1.0000 0.5789328925
C   C4        1.0  0.58500  0.76980  0.96310  1.0000 0.5789328925
C   C5        1.0  0.56670  0.78240  0.40280  1.0000 -0.1211843295
C   C6        1.0  0.43330  0.28240  0.09720  1.0000 -0.1211843295
C   C7        1.0  0.43330  0.21760  0.59720  1.0000 -0.1211843295
C   C8        1.0  0.56670  0.71760  0.90280  1.0000 -0.1211843295
C   C9        1.0  0.45080  0.79560  0.36970  1.0000 0.0564257688
C   C10       1.0  0.54920  0.29560  0.13030  1.0000 0.0564257688
C   C11       1.0  0.54920  0.20440  0.63030  1.0000 0.0564257688
C   C12       1.0  0.45080  0.70440  0.86970  1.0000 0.0564257688
C   C13       1.0  0.34680  0.76330  0.39490  1.0000 -0.1343457289
C   C14       1.0  0.65320  0.26330  0.10510  1.0000 -0.1343457289
C   C15       1.0  0.65320  0.23670  0.60510  1.0000 -0.1343457289
C   C16       1.0  0.34680  0.73670  0.89490  1.0000 -0.1343457289
C   C17       1.0  0.23420  0.77540  0.36180  1.0000 -0.0983031802
C   C18       1.0  0.76580  0.27540  0.13820  1.0000 -0.0983031802
C   C19       1.0  0.76580  0.22460  0.63820  1.0000 -0.0983031802
C   C20       1.0  0.23420  0.72460  0.86180  1.0000 -0.0983031802
C   C21       1.0  0.21850  0.81910  0.30020  1.0000 -0.1090721619
C   C22       1.0  0.78150  0.31910  0.19980  1.0000 -0.1090721619
C   C23       1.0  0.78150  0.18090  0.69980  1.0000 -0.1090721619
C   C24       1.0  0.21850  0.68090  0.80020  1.0000 -0.1090721619
C   C25       1.0  0.31480  0.84800  0.27290  1.0000 -0.1474096192
C   C26       1.0  0.68520  0.34800  0.22710  1.0000 -0.1474096192
C   C27       1.0  0.68520  0.15200  0.72710  1.0000 -0.1474096192
C   C28       1.0  0.31480  0.65200  0.77290  1.0000 -0.1474096192
C   C29       1.0  0.43520  0.83860  0.30600  1.0000 0.0564257688
C   C30       1.0  0.56480  0.33860  0.19400  1.0000 0.0564257688
C   C31       1.0  0.56480  0.16140  0.69400  1.0000 0.0564257688
C   C32       1.0  0.43520  0.66140  0.80600  1.0000 0.0564257688
C   C33       1.0  0.53840  0.86620  0.27900  1.0000 -0.1211843295
C   C34       1.0  0.46160  0.36620  0.22100  1.0000 -0.1211843295
C   C35       1.0  0.46160  0.13380  0.72100  1.0000 -0.1211843295
C   C36       1.0  0.53840  0.63380  0.77900  1.0000 -0.1211843295
C   C37       1.0  0.65390  0.85710  0.31490  1.0000 0.0564257688
C   C38       1.0  0.34610  0.35710  0.18510  1.0000 0.0564257688
C   C39       1.0  0.34610  0.14290  0.68510  1.0000 0.0564257688
C   C40       1.0  0.65390  0.64290  0.81490  1.0000 0.0564257688
C   C41       1.0  0.76230  0.88870  0.29330  1.0000 -0.1474096192
C   C42       1.0  0.23770  0.38870  0.20670  1.0000 -0.1474096192
C   C43       1.0  0.23770  0.11130  0.70670  1.0000 -0.1474096192
C   C44       1.0  0.76230  0.61130  0.79330  1.0000 -0.1474096192
C   C45       1.0  0.87160  0.87940  0.32930  1.0000 -0.1090721619
C   C46       1.0  0.12840  0.37940  0.17070  1.0000 -0.1090721619
C   C47       1.0  0.12840  0.12060  0.67070  1.0000 -0.1090721619
C   C48       1.0  0.87160  0.62060  0.82930  1.0000 -0.1090721619
C   C49       1.0  0.88640  0.83750  0.39130  1.0000 -0.0983031802
C   C50       1.0  0.11360  0.33750  0.10870  1.0000 -0.0983031802
C   C51       1.0  0.11360  0.16250  0.60870  1.0000 -0.0983031802
C   C52       1.0  0.88640  0.66250  0.89130  1.0000 -0.0983031802
C   C53       1.0  0.78830  0.80510  0.41340  1.0000 -0.1474096192
C   C54       1.0  0.21170  0.30510  0.08660  1.0000 -0.1474096192
C   C55       1.0  0.21170  0.19490  0.58660  1.0000 -0.1474096192
C   C56       1.0  0.78830  0.69490  0.91340  1.0000 -0.1474096192
C   C57       1.0  0.66860  0.81470  0.37850  1.0000 0.0516896471
C   C58       1.0  0.33140  0.31470  0.12150  1.0000 0.0516896471
C   C59       1.0  0.33140  0.18530  0.62150  1.0000 0.0516896471
C   C60       1.0  0.66860  0.68530  0.87850  1.0000 0.0516896471
C   C61       1.0  0.52460  0.89950  0.20670  1.0000 0.60124005
C   C62       1.0  0.47540  0.39950  0.29330  1.0000 0.60124005
C   C63       1.0  0.47540  0.10050  0.79330  1.0000 0.60124005
C   C64       1.0  0.52460  0.60050  0.70670  1.0000 0.60124005
C   C65       1.0  0.88850  0.62030  0.53720  1.0000 0.0901736902
C   C66       1.0  0.11150  0.12030  0.96280  1.0000 0.0901736902
C   C67       1.0  0.11150  0.37970  0.46280  1.0000 0.0901736902
C   C68       1.0  0.88850  0.87970  0.03720  1.0000 0.0901736902
C   C69       1.0  0.00720  0.64520  0.54340  1.0000 -0.1958897152
C   C70       1.0  0.99280  0.14520  0.95660  1.0000 -0.1958897152
C   C71       1.0  0.99280  0.35480  0.45660  1.0000 -0.1958897152
C   C72       1.0  0.00720  0.85480  0.04340  1.0000 -0.1958897152
C   C73       1.0  0.04810  0.69570  0.59330  1.0000 0.1661872863
C   C74       1.0  0.95190  0.19570  0.90670  1.0000 0.1661872863
C   C75       1.0  0.95190  0.30430  0.40670  1.0000 0.1661872863
C   C76       1.0  0.04810  0.80430  0.09330  1.0000 0.1661872863
C   C77       1.0  0.96640  0.71950  0.63580  1.0000 -0.2230156064
C   C78       1.0  0.03360  0.21950  0.86420  1.0000 -0.2230156064
C   C79       1.0  0.03360  0.28050  0.36420  1.0000 -0.2230156064
C   C80       1.0  0.96640  0.78050  0.13580  1.0000 -0.2230156064
C   C81       1.0  0.84840  0.69190  0.62800  1.0000 0.0901736902
C   C82       1.0  0.15160  0.19190  0.87200  1.0000 0.0901736902
C   C83       1.0  0.15160  0.30810  0.37200  1.0000 0.0901736902
C   C84       1.0  0.84840  0.80810  0.12800  1.0000 0.0901736902
C   C85       1.0  0.17660  0.72630  0.60000  1.0000 -0.2462357171
C   C86       1.0  0.82340  0.22630  0.90000  1.0000 -0.2462357171
C   C87       1.0  0.82340  0.27370  0.40000  1.0000 -0.2462357171
C   C88       1.0  0.17660  0.77370  0.10000  1.0000 -0.2462357171
C   C89       1.0  0.18310  0.80170  0.56560  1.0000 -0.1433364488
C   C90       1.0  0.81690  0.30170  0.93440  1.0000 -0.1433364488
C   C91       1.0  0.81690  0.19830  0.43440  1.0000 -0.1433364488
C   C92       1.0  0.18310  0.69830  0.06560  1.0000 -0.1433364488
C   C93       1.0  0.31290  0.83350  0.57510  1.0000 -0.2370187082
C   C94       1.0  0.68710  0.33350  0.92490  1.0000 -0.2370187082
C   C95       1.0  0.68710  0.16650  0.42490  1.0000 -0.2370187082
C   C96       1.0  0.31290  0.66650  0.07510  1.0000 -0.2370187082
C   C97       1.0  0.35150  0.90480  0.75930  1.0000 0.0901736902
C   C98       1.0  0.64850  0.40480  0.74070  1.0000 0.0901736902
C   C99       1.0  0.64850  0.09520  0.24070  1.0000 0.0901736902
C   C100      1.0  0.35150  0.59520  0.25930  1.0000 0.0901736902
C   C101      1.0  0.29960  0.89070  0.69240  1.0000 -0.2058107146
C   C102      1.0  0.70040  0.39070  0.80760  1.0000 -0.2058107146
C   C103      1.0  0.70040  0.10930  0.30760  1.0000 -0.2058107146
C   C104      1.0  0.29960  0.60930  0.19240  1.0000 -0.2058107146
C   C105      1.0  0.36360  0.84750  0.65080  1.0000 0.175640773
C   C106      1.0  0.63640  0.34750  0.84920  1.0000 0.175640773
C   C107      1.0  0.63640  0.15250  0.34920  1.0000 0.175640773
C   C108      1.0  0.36360  0.65250  0.15080  1.0000 0.175640773
C   C109      1.0  0.47380  0.81960  0.67640  1.0000 -0.1888010912
C   C110      1.0  0.52620  0.31960  0.82360  1.0000 -0.1888010912
C   C111      1.0  0.52620  0.18040  0.32360  1.0000 -0.1888010912
C   C112      1.0  0.47380  0.68040  0.17640  1.0000 -0.1888010912
C   C113      1.0  0.51730  0.83790  0.74320  1.0000 0.0732796453
C   C114      1.0  0.48270  0.33790  0.75680  1.0000 0.0732796453
C   C115      1.0  0.48270  0.16210  0.25680  1.0000 0.0732796453
C   C116      1.0  0.51730  0.66210  0.24320  1.0000 0.0732796453
S   S1        1.0  0.33105  0.55527  0.48332  1.0000 1.4015939943
S   S2        1.0  0.66895  0.05527  0.01668  1.0000 1.4015939943
S   S3        1.0  0.66895  0.44473  0.51668  1.0000 1.4015939943
S   S4        1.0  0.33105  0.94473  0.98332  1.0000 1.4015939943
N   N1        1.0  0.80880  0.64160  0.57930  1.0000 -0.2561855503
N   N2        1.0  0.19120  0.14160  0.92070  1.0000 -0.2561855503
N   N3        1.0  0.19120  0.35840  0.42070  1.0000 -0.2561855503
N   N4        1.0  0.80880  0.85840  0.07930  1.0000 -0.2561855503
N   N5        1.0  0.46060  0.88010  0.78450  1.0000 -0.2736692913
N   N6        1.0  0.53940  0.38010  0.71550  1.0000 -0.2736692913
N   N7        1.0  0.53940  0.11990  0.21550  1.0000 -0.2736692913
N   N8        1.0  0.46060  0.61990  0.28450  1.0000 -0.2736692913
O   O1        1.0  0.60610  0.66100  0.44940  1.0000 -0.5939145573
O   O2        1.0  0.39390  0.16100  0.05060  1.0000 -0.5939145573
O   O3        1.0  0.39390  0.33900  0.55060  1.0000 -0.5939145573
O   O4        1.0  0.60610  0.83900  0.94940  1.0000 -0.5939145573
O   O5        1.0  0.58050  0.75280  0.52290  1.0000 -0.5199668296
O   O6        1.0  0.41950  0.25280  0.97710  1.0000 -0.5199668296
O   O7        1.0  0.41950  0.24720  0.47710  1.0000 -0.5199668296
O   O8        1.0  0.58050  0.74720  0.02290  1.0000 -0.5199668296
O   O9        1.0  0.45700  0.95580  0.19390  1.0000 -0.5707120635
O   O10       1.0  0.54300  0.45580  0.30610  1.0000 -0.5707120635
O   O11       1.0  0.54300  0.04420  0.80610  1.0000 -0.5707120635
O   O12       1.0  0.45700  0.54420  0.69390  1.0000 -0.5707120635
O   O13       1.0  0.58570  0.86640  0.16650  1.0000 -0.5437081345
O   O14       1.0  0.41430  0.36640  0.33350  1.0000 -0.5437081345
O   O15       1.0  0.41430  0.13360  0.83350  1.0000 -0.5437081345
O   O16       1.0  0.58570  0.63360  0.66650  1.0000 -0.5437081345
O   O17       1.0  0.40530  0.61600  0.51990  1.0000 -0.6614341028
O   O18       1.0  0.59470  0.11600  0.98010  1.0000 -0.6614341028
O   O19       1.0  0.59470  0.38400  0.48010  1.0000 -0.6614341028
O   O20       1.0  0.40530  0.88400  0.01990  1.0000 -0.6614341028
O   O21       1.0  0.39990  0.52080  0.42920  1.0000 -0.7195064314
O   O22       1.0  0.60010  0.02080  0.07080  1.0000 -0.7195064314
O   O23       1.0  0.60010  0.47920  0.57080  1.0000 -0.7195064314
O   O24       1.0  0.39990  0.97920  0.92920  1.0000 -0.7195064314
O   O25       1.0  0.21680  0.58370  0.45150  1.0000 -0.6254687198
O   O26       1.0  0.78320  0.08370  0.04850  1.0000 -0.6254687198
O   O27       1.0  0.78320  0.41630  0.54850  1.0000 -0.6254687198
O   O28       1.0  0.21680  0.91630  0.95150  1.0000 -0.6254687198
O   O29       1.0  0.31290  0.49260  0.53160  1.0000 -0.6977974959
O   O30       1.0  0.68710  0.99260  0.96840  1.0000 -0.6977974959
O   O31       1.0  0.68710  0.50740  0.46840  1.0000 -0.6977974959
O   O32       1.0  0.31290  0.00740  0.03160  1.0000 -0.6977974959
