# DDEC6 charges by PACMAN v1.1 (https://github.com/mtap-research/PACMAN-charge/)
data_2011[Co][nan]3[ASR]12
_chemical_formula_sum              "Co12 H68 C96 N16 O36"
_cell_length_a       18.7824
_cell_length_b       19.6842
_cell_length_c       12.049
_cell_angle_alpha    90
_cell_angle_beta     90
_cell_angle_gamma    90

_symmetry_space_group_name_H-M    "P 1"
_symmetry_Int_Tables_number       1

loop_
  _symmetry_equiv_pos_as_xyz
  'x, y, z'

loop_
  _atom_site_type_symbol
  _atom_site_label
  _atom_site_symmetry_multiplicity
  _atom_site_fract_x
  _atom_site_fract_y
  _atom_site_fract_z
  _atom_site_occupancy
  _atom_site_charge
Co  Co1       1.0  0.20543  0.33686  0.82931  1.0000 0.9885059654
Co  Co2       1.0  0.79457  0.66314  0.17069  1.0000 0.9885059654
Co  Co3       1.0  0.29457  0.66314  0.32931  1.0000 0.9885059654
Co  Co4       1.0  0.70543  0.33686  0.67069  1.0000 0.9885059654
Co  Co5       1.0  0.79457  0.83686  0.17069  1.0000 0.9885059654
Co  Co6       1.0  0.20543  0.16314  0.82931  1.0000 0.9885059654
Co  Co7       1.0  0.70543  0.16314  0.67069  1.0000 0.9885059654
Co  Co8       1.0  0.29457  0.83686  0.32931  1.0000 0.9885059654
Co  Co9       1.0  0.15896  0.25000  0.52762  1.0000 0.7765663996
Co  Co10      1.0  0.84104  0.75000  0.47238  1.0000 0.7765663996
Co  Co11      1.0  0.34104  0.75000  0.02762  1.0000 0.7765663996
Co  Co12      1.0  0.65896  0.25000  0.97238  1.0000 0.7765663996
H   H1        1.0  0.18202  0.56159  0.31050  1.0000 0.0904629327
H   H2        1.0  0.81798  0.43841  0.68950  1.0000 0.0904629327
H   H3        1.0  0.31798  0.43841  0.81050  1.0000 0.0904629327
H   H4        1.0  0.68202  0.56159  0.18950  1.0000 0.0904629327
H   H5        1.0  0.81798  0.06159  0.68950  1.0000 0.0904629327
H   H6        1.0  0.18202  0.93841  0.31050  1.0000 0.0904629327
H   H7        1.0  0.68202  0.93841  0.18950  1.0000 0.0904629327
H   H8        1.0  0.31798  0.06159  0.81050  1.0000 0.0904629327
H   H9        1.0  0.13837  0.45768  0.40705  1.0000 0.1107636768
H   H10       1.0  0.86163  0.54232  0.59295  1.0000 0.1107636768
H   H11       1.0  0.36163  0.54232  0.90705  1.0000 0.1107636768
H   H12       1.0  0.63837  0.45768  0.09295  1.0000 0.1107636768
H   H13       1.0  0.86163  0.95768  0.59295  1.0000 0.1107636768
H   H14       1.0  0.13837  0.04232  0.40705  1.0000 0.1107636768
H   H15       1.0  0.63837  0.04232  0.09295  1.0000 0.1107636768
H   H16       1.0  0.36163  0.95768  0.90705  1.0000 0.1107636768
H   H17       1.0  0.32219  0.47164  0.62216  1.0000 0.1107636768
H   H18       1.0  0.67781  0.52836  0.37784  1.0000 0.1107636768
H   H19       1.0  0.17781  0.52836  0.12216  1.0000 0.1107636768
H   H20       1.0  0.82219  0.47164  0.87784  1.0000 0.1107636768
H   H21       1.0  0.67781  0.97164  0.37784  1.0000 0.1107636768
H   H22       1.0  0.32219  0.02836  0.62216  1.0000 0.1107636768
H   H23       1.0  0.82219  0.02836  0.87784  1.0000 0.1107636768
H   H24       1.0  0.17781  0.97164  0.12216  1.0000 0.1107636768
H   H25       1.0  0.36036  0.57377  0.51501  1.0000 0.0904629327
H   H26       1.0  0.63964  0.42623  0.48499  1.0000 0.0904629327
H   H27       1.0  0.13964  0.42623  0.01501  1.0000 0.0904629327
H   H28       1.0  0.86036  0.57377  0.98499  1.0000 0.0904629327
H   H29       1.0  0.63964  0.07377  0.48499  1.0000 0.0904629327
H   H30       1.0  0.36036  0.92623  0.51501  1.0000 0.0904629327
H   H31       1.0  0.86036  0.92623  0.98499  1.0000 0.0904629327
H   H32       1.0  0.13964  0.07377  0.01501  1.0000 0.0904629327
H   H33       1.0  0.55442  0.35628  0.92923  1.0000 0.0904629327
H   H34       1.0  0.44558  0.64372  0.07077  1.0000 0.0904629327
H   H35       1.0  0.94558  0.64372  0.42923  1.0000 0.0904629327
H   H36       1.0  0.05442  0.35628  0.57077  1.0000 0.0904629327
H   H37       1.0  0.44558  0.85628  0.07077  1.0000 0.0904629327
H   H38       1.0  0.55442  0.14372  0.92923  1.0000 0.0904629327
H   H39       1.0  0.05442  0.14372  0.57077  1.0000 0.0904629327
H   H40       1.0  0.94558  0.85628  0.42923  1.0000 0.0904629327
H   H41       1.0  0.42238  0.35940  0.89507  1.0000 0.1107636768
H   H42       1.0  0.57762  0.64060  0.10493  1.0000 0.1107636768
H   H43       1.0  0.07762  0.64060  0.39507  1.0000 0.1107636768
H   H44       1.0  0.92238  0.35940  0.60493  1.0000 0.1107636768
H   H45       1.0  0.57762  0.85940  0.10493  1.0000 0.1107636768
H   H46       1.0  0.42238  0.14060  0.89507  1.0000 0.1107636768
H   H47       1.0  0.92238  0.14060  0.60493  1.0000 0.1107636768
H   H48       1.0  0.07762  0.85940  0.39507  1.0000 0.1107636768
H   H49       1.0  0.20264  0.35630  0.36284  1.0000 0.0818088374
H   H50       1.0  0.79736  0.64370  0.63716  1.0000 0.0818088374
H   H51       1.0  0.29736  0.64370  0.86284  1.0000 0.0818088374
H   H52       1.0  0.70264  0.35630  0.13716  1.0000 0.0818088374
H   H53       1.0  0.79736  0.85630  0.63716  1.0000 0.0818088374
H   H54       1.0  0.20264  0.14370  0.36284  1.0000 0.0818088374
H   H55       1.0  0.70264  0.14370  0.13716  1.0000 0.0818088374
H   H56       1.0  0.29736  0.85630  0.86284  1.0000 0.0818088374
H   H57       1.0  0.19269  0.36013  0.16026  1.0000 0.1107636768
H   H58       1.0  0.80731  0.63987  0.83974  1.0000 0.1107636768
H   H59       1.0  0.30731  0.63987  0.66026  1.0000 0.1107636768
H   H60       1.0  0.69269  0.36013  0.33974  1.0000 0.1107636768
H   H61       1.0  0.80731  0.86013  0.83974  1.0000 0.1107636768
H   H62       1.0  0.19269  0.13987  0.16026  1.0000 0.1107636768
H   H63       1.0  0.69269  0.13987  0.33974  1.0000 0.1107636768
H   H64       1.0  0.30731  0.86013  0.66026  1.0000 0.1107636768
H   H65       1.0  0.12562  0.25000  0.77414  1.0000 0.3640961632
H   H66       1.0  0.87438  0.75000  0.22586  1.0000 0.3640961632
H   H67       1.0  0.37438  0.75000  0.27414  1.0000 0.3640961632
H   H68       1.0  0.62562  0.25000  0.72586  1.0000 0.3640961632
C   C1        1.0  0.21225  0.53960  0.37904  1.0000 0.0904629327
C   C2        1.0  0.78775  0.46040  0.62096  1.0000 0.0904629327
C   C3        1.0  0.28775  0.46040  0.87904  1.0000 0.0904629327
C   C4        1.0  0.71225  0.53960  0.12096  1.0000 0.0904629327
C   C5        1.0  0.78775  0.03960  0.62096  1.0000 0.0904629327
C   C6        1.0  0.21225  0.96040  0.37904  1.0000 0.0904629327
C   C7        1.0  0.71225  0.96040  0.12096  1.0000 0.0904629327
C   C8        1.0  0.28775  0.03960  0.87904  1.0000 0.0904629327
C   C9        1.0  0.18809  0.48154  0.43480  1.0000 -0.1681333349
C   C10       1.0  0.81191  0.51846  0.56520  1.0000 -0.1681333349
C   C11       1.0  0.31191  0.51846  0.93480  1.0000 -0.1681333349
C   C12       1.0  0.68809  0.48154  0.06520  1.0000 -0.1681333349
C   C13       1.0  0.81191  0.98154  0.56520  1.0000 -0.1681333349
C   C14       1.0  0.18809  0.01846  0.43480  1.0000 -0.1681333349
C   C15       1.0  0.68809  0.01846  0.06520  1.0000 -0.1681333349
C   C16       1.0  0.31191  0.98154  0.93480  1.0000 -0.1681333349
C   C17       1.0  0.22646  0.45480  0.52570  1.0000 -0.0024777682
C   C18       1.0  0.77354  0.54520  0.47430  1.0000 -0.0024777682
C   C19       1.0  0.27354  0.54520  0.02570  1.0000 -0.0024777682
C   C20       1.0  0.72646  0.45480  0.97430  1.0000 -0.0024777682
C   C21       1.0  0.77354  0.95480  0.47430  1.0000 -0.0024777682
C   C22       1.0  0.22646  0.04520  0.52570  1.0000 -0.0024777682
C   C23       1.0  0.72646  0.04520  0.97430  1.0000 -0.0024777682
C   C24       1.0  0.27354  0.95480  0.02570  1.0000 -0.0024777682
C   C25       1.0  0.28936  0.48998  0.55339  1.0000 -0.1518283036
C   C26       1.0  0.71064  0.51002  0.44661  1.0000 -0.1518283036
C   C27       1.0  0.21064  0.51002  0.05339  1.0000 -0.1518283036
C   C28       1.0  0.78936  0.48998  0.94661  1.0000 -0.1518283036
C   C29       1.0  0.71064  0.98998  0.44661  1.0000 -0.1518283036
C   C30       1.0  0.28936  0.01002  0.55339  1.0000 -0.1518283036
C   C31       1.0  0.78936  0.01002  0.94661  1.0000 -0.1518283036
C   C32       1.0  0.21064  0.98998  0.05339  1.0000 -0.1518283036
C   C33       1.0  0.31109  0.54701  0.49282  1.0000 0.0818088374
C   C34       1.0  0.68891  0.45299  0.50718  1.0000 0.0818088374
C   C35       1.0  0.18891  0.45299  0.99282  1.0000 0.0818088374
C   C36       1.0  0.81109  0.54701  0.00718  1.0000 0.0818088374
C   C37       1.0  0.68891  0.04701  0.50718  1.0000 0.0818088374
C   C38       1.0  0.31109  0.95299  0.49282  1.0000 0.0818088374
C   C39       1.0  0.81109  0.95299  0.00718  1.0000 0.0818088374
C   C40       1.0  0.18891  0.04701  0.99282  1.0000 0.0818088374
C   C41       1.0  0.20428  0.39073  0.58815  1.0000 0.5641587907
C   C42       1.0  0.79572  0.60927  0.41185  1.0000 0.5641587907
C   C43       1.0  0.29572  0.60927  0.08815  1.0000 0.5641587907
C   C44       1.0  0.70428  0.39073  0.91185  1.0000 0.5641587907
C   C45       1.0  0.79572  0.89073  0.41185  1.0000 0.5641587907
C   C46       1.0  0.20428  0.10927  0.58815  1.0000 0.5641587907
C   C47       1.0  0.70428  0.10927  0.91185  1.0000 0.5641587907
C   C48       1.0  0.29572  0.89073  0.08815  1.0000 0.5641587907
C   C49       1.0  0.52381  0.30947  0.91893  1.0000 0.0603155858
C   C50       1.0  0.47619  0.69053  0.08107  1.0000 0.0603155858
C   C51       1.0  0.97619  0.69053  0.41893  1.0000 0.0603155858
C   C52       1.0  0.02381  0.30947  0.58107  1.0000 0.0603155858
C   C53       1.0  0.47619  0.80947  0.08107  1.0000 0.0603155858
C   C54       1.0  0.52381  0.19053  0.91893  1.0000 0.0603155858
C   C55       1.0  0.02381  0.19053  0.58107  1.0000 0.0603155858
C   C56       1.0  0.97619  0.80947  0.41893  1.0000 0.0603155858
C   C57       1.0  0.45078  0.31093  0.90061  1.0000 -0.1359834856
C   C58       1.0  0.54922  0.68907  0.09939  1.0000 -0.1359834856
C   C59       1.0  0.04922  0.68907  0.40061  1.0000 -0.1359834856
C   C60       1.0  0.95078  0.31093  0.59939  1.0000 -0.1359834856
C   C61       1.0  0.54922  0.81093  0.09939  1.0000 -0.1359834856
C   C62       1.0  0.45078  0.18907  0.90061  1.0000 -0.1359834856
C   C63       1.0  0.95078  0.18907  0.59939  1.0000 -0.1359834856
C   C64       1.0  0.04922  0.81093  0.40061  1.0000 -0.1359834856
C   C65       1.0  0.41264  0.25000  0.88884  1.0000 -0.0092014495
C   C66       1.0  0.58736  0.75000  0.11116  1.0000 -0.0092014495
C   C67       1.0  0.08736  0.75000  0.38884  1.0000 -0.0092014495
C   C68       1.0  0.91264  0.25000  0.61116  1.0000 -0.0092014495
C   C69       1.0  0.33532  0.25000  0.86322  1.0000 0.5832489863
C   C70       1.0  0.66468  0.75000  0.13678  1.0000 0.5832489863
C   C71       1.0  0.16468  0.75000  0.36322  1.0000 0.5832489863
C   C72       1.0  0.83532  0.25000  0.63678  1.0000 0.5832489863
C   C73       1.0  0.19760  0.30906  0.31647  1.0000 0.0603155858
C   C74       1.0  0.80240  0.69094  0.68353  1.0000 0.0603155858
C   C75       1.0  0.30240  0.69094  0.81647  1.0000 0.0603155858
C   C76       1.0  0.69760  0.30906  0.18353  1.0000 0.0603155858
C   C77       1.0  0.80240  0.80906  0.68353  1.0000 0.0603155858
C   C78       1.0  0.19760  0.19094  0.31647  1.0000 0.0603155858
C   C79       1.0  0.69760  0.19094  0.18353  1.0000 0.0603155858
C   C80       1.0  0.30240  0.80906  0.81647  1.0000 0.0603155858
C   C81       1.0  0.19109  0.31076  0.20225  1.0000 -0.1359834856
C   C82       1.0  0.80891  0.68924  0.79775  1.0000 -0.1359834856
C   C83       1.0  0.30891  0.68924  0.70225  1.0000 -0.1359834856
C   C84       1.0  0.69109  0.31076  0.29775  1.0000 -0.1359834856
C   C85       1.0  0.80891  0.81076  0.79775  1.0000 -0.1359834856
C   C86       1.0  0.19109  0.18924  0.20225  1.0000 -0.1359834856
C   C87       1.0  0.69109  0.18924  0.29775  1.0000 -0.1348236219
C   C88       1.0  0.30891  0.81076  0.70225  1.0000 -0.1359834856
C   C89       1.0  0.18523  0.25000  0.14029  1.0000 -0.0179530253
C   C90       1.0  0.81477  0.75000  0.85971  1.0000 -0.0179530253
C   C91       1.0  0.31477  0.75000  0.64029  1.0000 -0.0179530253
C   C92       1.0  0.68523  0.25000  0.35971  1.0000 -0.0179530253
C   C93       1.0  0.17748  0.25000  0.01841  1.0000 0.5641587907
C   C94       1.0  0.82252  0.75000  0.98159  1.0000 0.565298213
C   C95       1.0  0.32252  0.75000  0.51841  1.0000 0.565298213
C   C96       1.0  0.67748  0.25000  0.48159  1.0000 0.565298213
N   N1        1.0  0.27347  0.57364  0.40541  1.0000 -0.259146903
N   N2        1.0  0.72653  0.42636  0.59459  1.0000 -0.259146903
N   N3        1.0  0.22653  0.42636  0.90541  1.0000 -0.259146903
N   N4        1.0  0.77347  0.57364  0.09459  1.0000 -0.259146903
N   N5        1.0  0.72653  0.07364  0.59459  1.0000 -0.259146903
N   N6        1.0  0.27347  0.92636  0.40541  1.0000 -0.259146903
N   N7        1.0  0.77347  0.92636  0.09459  1.0000 -0.259146903
N   N8        1.0  0.22653  0.07364  0.90541  1.0000 -0.259146903
N   N9        1.0  0.56255  0.25000  0.92642  1.0000 -0.259146903
N   N10       1.0  0.43745  0.75000  0.07358  1.0000 -0.259146903
N   N11       1.0  0.93745  0.75000  0.42642  1.0000 -0.259146903
N   N12       1.0  0.06255  0.25000  0.57358  1.0000 -0.259146903
N   N13       1.0  0.19641  0.25000  0.37954  1.0000 -0.2480939605
N   N14       1.0  0.80359  0.75000  0.62046  1.0000 -0.2480939605
N   N15       1.0  0.30359  0.75000  0.87954  1.0000 -0.2480939605
N   N16       1.0  0.69641  0.25000  0.12046  1.0000 -0.2480939605
O   O1        1.0  0.17715  0.25000  0.76233  1.0000 -0.8597505257
O   O2        1.0  0.82285  0.75000  0.23767  1.0000 -0.8597505257
O   O3        1.0  0.32285  0.75000  0.26233  1.0000 -0.8597505257
O   O4        1.0  0.67715  0.25000  0.73767  1.0000 -0.8597505257
O   O5        1.0  0.16654  0.34832  0.53108  1.0000 -0.5540311948
O   O6        1.0  0.83346  0.65168  0.46892  1.0000 -0.5540311948
O   O7        1.0  0.33346  0.65168  0.03108  1.0000 -0.5540311948
O   O8        1.0  0.66654  0.34832  0.96892  1.0000 -0.5540311948
O   O9        1.0  0.83346  0.84832  0.46892  1.0000 -0.5540311948
O   O10       1.0  0.16654  0.15168  0.53108  1.0000 -0.5540311948
O   O11       1.0  0.66654  0.15168  0.96892  1.0000 -0.5540311948
O   O12       1.0  0.33346  0.84832  0.03108  1.0000 -0.5540311948
O   O13       1.0  0.22553  0.38590  0.68869  1.0000 -0.5573830322
O   O14       1.0  0.77447  0.61410  0.31131  1.0000 -0.5573830322
O   O15       1.0  0.27447  0.61410  0.18869  1.0000 -0.5573830322
O   O16       1.0  0.72553  0.38590  0.81131  1.0000 -0.5573830322
O   O17       1.0  0.77447  0.88590  0.31131  1.0000 -0.5573830322
O   O18       1.0  0.22553  0.11410  0.68869  1.0000 -0.5573830322
O   O19       1.0  0.72553  0.11410  0.81131  1.0000 -0.5573830322
O   O20       1.0  0.27447  0.88590  0.18869  1.0000 -0.5573830322
O   O21       1.0  0.30667  0.30894  0.85333  1.0000 -0.5573830322
O   O22       1.0  0.69333  0.69106  0.14667  1.0000 -0.5573830322
O   O23       1.0  0.19333  0.69106  0.35333  1.0000 -0.5573830322
O   O24       1.0  0.80667  0.30894  0.64667  1.0000 -0.5573830322
O   O25       1.0  0.69333  0.80894  0.14667  1.0000 -0.5573830322
O   O26       1.0  0.30667  0.19106  0.85333  1.0000 -0.5573830322
O   O27       1.0  0.80667  0.19106  0.64667  1.0000 -0.5573830322
O   O28       1.0  0.19333  0.80894  0.35333  1.0000 -0.5573830322
O   O29       1.0  0.17458  0.30906  0.97085  1.0000 -0.5670040042
O   O30       1.0  0.82542  0.69094  0.02915  1.0000 -0.5670040042
O   O31       1.0  0.32542  0.69094  0.47085  1.0000 -0.5670040042
O   O32       1.0  0.67458  0.30906  0.52915  1.0000 -0.5670040042
O   O33       1.0  0.82542  0.80906  0.02915  1.0000 -0.5670040042
O   O34       1.0  0.17458  0.19094  0.97085  1.0000 -0.5670040042
O   O35       1.0  0.67458  0.19094  0.52915  1.0000 -0.5670040042
O   O36       1.0  0.32542  0.80906  0.47085  1.0000 -0.5670040042
