# DDEC6 charges by PACMAN v1.1 (https://github.com/mtap-research/PACMAN-charge/)
data_2011[Zn][muo]3[ASR]1
_chemical_formula_sum              "Zn24 H198 C300 N6 O90"
_cell_length_a       41.459
_cell_length_b       41.459
_cell_length_c       17.561
_cell_angle_alpha    90
_cell_angle_beta     90
_cell_angle_gamma    120

_symmetry_space_group_name_H-M    "P 1"
_symmetry_Int_Tables_number       1

loop_
  _symmetry_equiv_pos_as_xyz
  'x, y, z'

loop_
  _atom_site_type_symbol
  _atom_site_label
  _atom_site_symmetry_multiplicity
  _atom_site_fract_x
  _atom_site_fract_y
  _atom_site_fract_z
  _atom_site_occupancy
  _atom_site_charge
Zn  Zn1       1.0  0.02882  0.62833  0.59764  1.0000 0.9489410175
Zn  Zn2       1.0  0.06887  0.59144  0.50592  1.0000 0.9439614402
Zn  Zn3       1.0  0.02897  0.62793  0.41815  1.0000 0.9489410175
Zn  Zn4       1.0  0.10421  0.67888  0.50904  1.0000 0.9489410175
Zn  Zn5       1.0  0.37167  0.40049  0.59764  1.0000 0.9489410175
Zn  Zn6       1.0  0.40856  0.47743  0.50592  1.0000 0.9439614402
Zn  Zn7       1.0  0.37207  0.40104  0.41815  1.0000 0.9489410175
Zn  Zn8       1.0  0.32112  0.42533  0.50904  1.0000 0.9489410175
Zn  Zn9       1.0  0.59951  0.97118  0.59764  1.0000 0.9489410175
Zn  Zn10      1.0  0.52257  0.93113  0.50592  1.0000 0.9439614402
Zn  Zn11      1.0  0.59896  0.97103  0.41815  1.0000 0.9489410175
Zn  Zn12      1.0  0.57467  0.89579  0.50904  1.0000 0.9489410175
Zn  Zn13      1.0  0.97118  0.37167  0.09764  1.0000 0.9489410175
Zn  Zn14      1.0  0.93113  0.40856  0.00592  1.0000 0.9439614402
Zn  Zn15      1.0  0.97103  0.37207  0.91815  1.0000 0.9489410175
Zn  Zn16      1.0  0.89579  0.32112  0.00904  1.0000 0.9489410175
Zn  Zn17      1.0  0.62833  0.59951  0.09764  1.0000 0.9489410175
Zn  Zn18      1.0  0.59144  0.52257  0.00592  1.0000 0.9439614402
Zn  Zn19      1.0  0.62793  0.59896  0.91815  1.0000 0.9489410175
Zn  Zn20      1.0  0.67888  0.57467  0.00904  1.0000 0.9489410175
Zn  Zn21      1.0  0.40049  0.02882  0.09764  1.0000 0.9489410175
Zn  Zn22      1.0  0.47743  0.06887  0.00592  1.0000 0.9439614402
Zn  Zn23      1.0  0.40104  0.02897  0.91815  1.0000 0.9489410175
Zn  Zn24      1.0  0.42533  0.10421  0.00904  1.0000 0.9489410175
H   H1        1.0  0.98280  0.54330  0.75750  1.0000 0.1282126637
H   H2        1.0  0.96090  0.49580  0.84700  1.0000 0.1282126637
H   H3        1.0  0.17350  0.59680  0.45950  1.0000 0.1282126637
H   H4        1.0  0.23260  0.60380  0.46500  1.0000 0.1197107129
H   H5        1.0  0.27190  0.70470  0.56050  1.0000 0.1197107129
H   H6        1.0  0.21280  0.69770  0.55510  1.0000 0.1282126637
H   H7        1.0  0.28230  0.60750  0.50670  1.0000 0.1098002692
H   H8        1.0  0.15670  0.74950  0.69430  1.0000 0.1197107129
H   H9        1.0  0.18200  0.78500  0.80320  1.0000 0.1197107129
H   H10       1.0  0.08230  0.72970  0.90650  1.0000 0.1197107129
H   H11       1.0  0.05700  0.69420  0.79760  1.0000 0.1282126637
H   H12       1.0  0.19050  0.82720  0.89640  1.0000 0.1098002692
H   H13       1.0  0.20640  0.82070  0.12030  1.0000 0.1098002692
H   H14       1.0  0.11850  0.73660  0.01500  1.0000 0.1098002692
H   H15       1.0  0.06270  0.69800  0.22890  1.0000 0.1197107129
H   H16       1.0  0.08860  0.72820  0.11490  1.0000 0.1197107129
H   H17       1.0  0.19040  0.77760  0.21010  1.0000 0.1098002692
H   H18       1.0  0.16450  0.74740  0.32420  1.0000 0.1282126637
H   H19       1.0  0.31320  0.91880  0.11150  1.0000 0.1282126637
H   H20       1.0  0.25830  0.86180  0.11320  1.0000 0.1197107129
H   H21       1.0  0.23120  0.88390  0.90770  1.0000 0.1098002692
H   H22       1.0  0.28610  0.94090  0.90600  1.0000 0.1282126637
H   H23       1.0  0.06590  0.45450  0.67550  1.0000 0.0710973197
H   H24       1.0  0.04790  0.39570  0.64350  1.0000 0.1098002692
H   H25       1.0  0.03330  0.38090  0.72620  1.0000 0.1098002692
H   H26       1.0  0.04920  0.42740  0.82980  1.0000 0.0710973197
H   H27       1.0  0.09720  0.48840  0.86610  1.0000 0.1282126637
H   H28       1.0  0.06280  0.48890  0.83040  1.0000 0.1098002692
H   H29       1.0  0.09890  0.50150  0.78170  1.0000 0.1197107129
H   H30       1.0  0.11280  0.44260  0.83900  1.0000 0.1282126637
H   H31       1.0  0.11720  0.45040  0.75110  1.0000 0.1197107129
H   H32       1.0  0.09050  0.41000  0.78130  1.0000 0.1033556696
H   H33       1.0  0.50089  0.45761  0.14534  1.0000 0.1098002692
H   H34       1.0  0.45670  0.43950  0.75750  1.0000 0.1282126637
H   H35       1.0  0.50420  0.46510  0.84700  1.0000 0.1282126637
H   H36       1.0  0.40320  0.57670  0.45950  1.0000 0.1282126637
H   H37       1.0  0.39620  0.62880  0.46500  1.0000 0.1197107129
H   H38       1.0  0.29530  0.56720  0.56050  1.0000 0.1197107129
H   H39       1.0  0.30230  0.51510  0.55510  1.0000 0.1282126637
H   H40       1.0  0.39250  0.67480  0.50670  1.0000 0.1098002692
H   H41       1.0  0.25050  0.40720  0.69430  1.0000 0.1197107129
H   H42       1.0  0.21500  0.39700  0.80320  1.0000 0.1197107129
H   H43       1.0  0.27030  0.35260  0.90650  1.0000 0.1197107129
H   H44       1.0  0.30580  0.36280  0.79760  1.0000 0.1282126637
H   H45       1.0  0.17280  0.36330  0.89640  1.0000 0.1098002692
H   H46       1.0  0.17930  0.38570  0.12030  1.0000 0.1098002692
H   H47       1.0  0.26340  0.38190  0.01500  1.0000 0.1098002692
H   H48       1.0  0.30200  0.36470  0.22890  1.0000 0.1197107129
H   H49       1.0  0.27180  0.36040  0.11490  1.0000 0.1197107129
H   H50       1.0  0.22240  0.41280  0.21010  1.0000 0.1098002692
H   H51       1.0  0.25260  0.41710  0.32420  1.0000 0.1282126637
H   H52       1.0  0.08120  0.39440  0.11150  1.0000 0.1282126637
H   H53       1.0  0.13820  0.39650  0.11320  1.0000 0.1098002692
H   H54       1.0  0.11610  0.34730  0.90770  1.0000 0.1098002692
H   H55       1.0  0.05910  0.34520  0.90600  1.0000 0.1282126637
H   H56       1.0  0.54550  0.61140  0.67550  1.0000 0.0710973197
H   H57       1.0  0.60430  0.65220  0.64350  1.0000 0.1098002692
H   H58       1.0  0.61910  0.65240  0.72620  1.0000 0.1098002692
H   H59       1.0  0.57260  0.62180  0.82980  1.0000 0.0710973197
H   H60       1.0  0.51160  0.60880  0.86610  1.0000 0.1282126637
H   H61       1.0  0.51110  0.57390  0.83040  1.0000 0.1098002692
H   H62       1.0  0.49850  0.59740  0.78170  1.0000 0.1197107129
H   H63       1.0  0.55740  0.67020  0.83900  1.0000 0.1282126637
H   H64       1.0  0.54960  0.66680  0.75110  1.0000 0.1197107129
H   H65       1.0  0.59000  0.68050  0.78130  1.0000 0.1033556696
H   H66       1.0  0.54239  0.04329  0.14534  1.0000 0.1098002692
H   H67       1.0  0.56050  0.01720  0.75750  1.0000 0.1282126637
H   H68       1.0  0.53490  0.03910  0.84700  1.0000 0.1282126637
H   H69       1.0  0.42330  0.82650  0.45950  1.0000 0.1282126637
H   H70       1.0  0.37120  0.76740  0.46500  1.0000 0.1197107129
H   H71       1.0  0.43280  0.72810  0.56050  1.0000 0.1197107129
H   H72       1.0  0.48490  0.78720  0.55510  1.0000 0.1282126637
H   H73       1.0  0.32520  0.71770  0.50670  1.0000 0.1098002692
H   H74       1.0  0.59280  0.84330  0.69430  1.0000 0.1197107129
H   H75       1.0  0.60300  0.81800  0.80320  1.0000 0.1197107129
H   H76       1.0  0.64740  0.91770  0.90650  1.0000 0.1197107129
H   H77       1.0  0.63720  0.94300  0.79760  1.0000 0.1282126637
H   H78       1.0  0.63670  0.80950  0.89640  1.0000 0.1098002692
H   H79       1.0  0.61430  0.79360  0.12030  1.0000 0.1098002692
H   H80       1.0  0.61810  0.88150  0.01500  1.0000 0.1098002692
H   H81       1.0  0.63530  0.93730  0.22890  1.0000 0.1197107129
H   H82       1.0  0.63960  0.91140  0.11490  1.0000 0.1197107129
H   H83       1.0  0.58720  0.80960  0.21010  1.0000 0.1098002692
H   H84       1.0  0.58290  0.83550  0.32420  1.0000 0.1282126637
H   H85       1.0  0.60560  0.68680  0.11150  1.0000 0.1282126637
H   H86       1.0  0.60350  0.74170  0.11320  1.0000 0.1197107129
H   H87       1.0  0.65270  0.76880  0.90770  1.0000 0.1098002692
H   H88       1.0  0.65480  0.71390  0.90600  1.0000 0.1282126637
H   H89       1.0  0.38860  0.93410  0.67550  1.0000 0.0710973197
H   H90       1.0  0.34780  0.95210  0.64350  1.0000 0.1098002692
H   H91       1.0  0.34760  0.96670  0.72620  1.0000 0.1098002692
H   H92       1.0  0.37820  0.95080  0.82980  1.0000 0.0710973197
H   H93       1.0  0.39120  0.90280  0.86610  1.0000 0.1282126637
H   H94       1.0  0.42610  0.93720  0.83040  1.0000 0.1098002692
H   H95       1.0  0.40260  0.90110  0.78170  1.0000 0.1197107129
H   H96       1.0  0.32980  0.88720  0.83900  1.0000 0.1282126637
H   H97       1.0  0.33320  0.88280  0.75110  1.0000 0.1197107129
H   H98       1.0  0.31950  0.90950  0.78130  1.0000 0.1033556696
H   H99       1.0  0.95671  0.49911  0.14534  1.0000 0.1098002692
H   H100      1.0  0.01720  0.45670  0.25750  1.0000 0.1282126637
H   H101      1.0  0.03910  0.50420  0.34700  1.0000 0.1282126637
H   H102      1.0  0.82650  0.40320  0.95950  1.0000 0.1282126637
H   H103      1.0  0.76740  0.39620  0.96500  1.0000 0.1197107129
H   H104      1.0  0.72810  0.29530  0.06050  1.0000 0.1197107129
H   H105      1.0  0.78720  0.30230  0.05510  1.0000 0.1282126637
H   H106      1.0  0.71770  0.39250  0.00670  1.0000 0.1098002692
H   H107      1.0  0.84330  0.25050  0.19430  1.0000 0.1197107129
H   H108      1.0  0.81800  0.21500  0.30320  1.0000 0.1197107129
H   H109      1.0  0.91770  0.27030  0.40650  1.0000 0.1197107129
H   H110      1.0  0.94300  0.30580  0.29760  1.0000 0.1282126637
H   H111      1.0  0.80950  0.17280  0.39640  1.0000 0.1098002692
H   H112      1.0  0.79360  0.17930  0.62030  1.0000 0.1098002692
H   H113      1.0  0.88150  0.26340  0.51500  1.0000 0.1098002692
H   H114      1.0  0.93730  0.30200  0.72890  1.0000 0.1197107129
H   H115      1.0  0.91140  0.27180  0.61490  1.0000 0.1197107129
H   H116      1.0  0.80960  0.22240  0.71010  1.0000 0.1098002692
H   H117      1.0  0.83550  0.25260  0.82420  1.0000 0.1282126637
H   H118      1.0  0.68680  0.08120  0.61150  1.0000 0.1282126637
H   H119      1.0  0.74170  0.13820  0.61320  1.0000 0.1197107129
H   H120      1.0  0.76880  0.11610  0.40770  1.0000 0.1197107129
H   H121      1.0  0.71390  0.05910  0.40600  1.0000 0.1282126637
H   H122      1.0  0.93410  0.54550  0.17550  1.0000 0.0710973197
H   H123      1.0  0.95210  0.60430  0.14350  1.0000 0.1098002692
H   H124      1.0  0.96670  0.61910  0.22620  1.0000 0.1098002692
H   H125      1.0  0.95080  0.57260  0.32980  1.0000 0.0710973197
H   H126      1.0  0.90280  0.51160  0.36610  1.0000 0.1282126637
H   H127      1.0  0.93720  0.51110  0.33040  1.0000 0.1098002692
H   H128      1.0  0.90110  0.49850  0.28170  1.0000 0.1197107129
H   H129      1.0  0.88720  0.55740  0.33900  1.0000 0.1282126637
H   H130      1.0  0.88280  0.54960  0.25110  1.0000 0.1197107129
H   H131      1.0  0.90950  0.59000  0.28130  1.0000 0.1033556696
H   H132      1.0  0.49911  0.54239  0.64534  1.0000 0.1098002692
H   H133      1.0  0.54330  0.56050  0.25750  1.0000 0.1282126637
H   H134      1.0  0.49580  0.53490  0.34700  1.0000 0.1282126637
H   H135      1.0  0.59680  0.42330  0.95950  1.0000 0.1282126637
H   H136      1.0  0.60380  0.37120  0.96500  1.0000 0.1197107129
H   H137      1.0  0.70470  0.43280  0.06050  1.0000 0.1197107129
H   H138      1.0  0.69770  0.48490  0.05510  1.0000 0.1282126637
H   H139      1.0  0.60750  0.32520  0.00670  1.0000 0.1098002692
H   H140      1.0  0.74950  0.59280  0.19430  1.0000 0.1197107129
H   H141      1.0  0.78500  0.60300  0.30320  1.0000 0.1197107129
H   H142      1.0  0.72970  0.64740  0.40650  1.0000 0.1197107129
H   H143      1.0  0.69420  0.63720  0.29760  1.0000 0.1282126637
H   H144      1.0  0.82720  0.63670  0.39640  1.0000 0.1098002692
H   H145      1.0  0.82070  0.61430  0.62030  1.0000 0.1098002692
H   H146      1.0  0.73660  0.61810  0.51500  1.0000 0.1098002692
H   H147      1.0  0.69800  0.63530  0.72890  1.0000 0.1197107129
H   H148      1.0  0.72820  0.63960  0.61490  1.0000 0.1197107129
H   H149      1.0  0.77760  0.58720  0.71010  1.0000 0.1098002692
H   H150      1.0  0.74740  0.58290  0.82420  1.0000 0.1282126637
H   H151      1.0  0.91880  0.60560  0.61150  1.0000 0.1282126637
H   H152      1.0  0.86180  0.60350  0.61320  1.0000 0.1197107129
H   H153      1.0  0.88390  0.65270  0.40770  1.0000 0.1098002692
H   H154      1.0  0.94090  0.65480  0.40600  1.0000 0.1282126637
H   H155      1.0  0.45450  0.38860  0.17550  1.0000 0.0710973197
H   H156      1.0  0.39570  0.34780  0.14350  1.0000 0.1098002692
H   H157      1.0  0.38090  0.34760  0.22620  1.0000 0.1098002692
H   H158      1.0  0.42740  0.37820  0.32980  1.0000 0.0710973197
H   H159      1.0  0.48840  0.39120  0.36610  1.0000 0.1282126637
H   H160      1.0  0.48890  0.42610  0.33040  1.0000 0.1098002692
H   H161      1.0  0.50150  0.40260  0.28170  1.0000 0.1197107129
H   H162      1.0  0.44260  0.32980  0.33900  1.0000 0.1282126637
H   H163      1.0  0.45040  0.33320  0.25110  1.0000 0.1197107129
H   H164      1.0  0.41000  0.31950  0.28130  1.0000 0.1033556696
H   H165      1.0  0.45761  0.95671  0.64534  1.0000 0.1098002692
H   H166      1.0  0.43950  0.98280  0.25750  1.0000 0.1282126637
H   H167      1.0  0.46510  0.96090  0.34700  1.0000 0.1282126637
H   H168      1.0  0.57670  0.17350  0.95950  1.0000 0.1282126637
H   H169      1.0  0.62880  0.23260  0.96500  1.0000 0.1197107129
H   H170      1.0  0.56720  0.27190  0.06050  1.0000 0.1197107129
H   H171      1.0  0.51510  0.21280  0.05510  1.0000 0.1282126637
H   H172      1.0  0.67480  0.28230  0.00670  1.0000 0.1098002692
H   H173      1.0  0.40720  0.15670  0.19430  1.0000 0.1197107129
H   H174      1.0  0.39700  0.18200  0.30320  1.0000 0.1197107129
H   H175      1.0  0.35260  0.08230  0.40650  1.0000 0.1197107129
H   H176      1.0  0.36280  0.05700  0.29760  1.0000 0.1282126637
H   H177      1.0  0.36330  0.19050  0.39640  1.0000 0.1098002692
H   H178      1.0  0.38570  0.20640  0.62030  1.0000 0.1098002692
H   H179      1.0  0.38190  0.11850  0.51500  1.0000 0.1098002692
H   H180      1.0  0.36470  0.06270  0.72890  1.0000 0.1197107129
H   H181      1.0  0.36040  0.08860  0.61490  1.0000 0.1197107129
H   H182      1.0  0.41280  0.19040  0.71010  1.0000 0.1098002692
H   H183      1.0  0.41710  0.16450  0.82420  1.0000 0.1282126637
H   H184      1.0  0.39440  0.31320  0.61150  1.0000 0.1282126637
H   H185      1.0  0.39650  0.25830  0.61320  1.0000 0.1197107129
H   H186      1.0  0.34730  0.23120  0.40770  1.0000 0.1098002692
H   H187      1.0  0.34520  0.28610  0.40600  1.0000 0.1282126637
H   H188      1.0  0.61140  0.06590  0.17550  1.0000 0.0710973197
H   H189      1.0  0.65220  0.04790  0.14350  1.0000 0.1098002692
H   H190      1.0  0.65240  0.03330  0.22620  1.0000 0.1098002692
H   H191      1.0  0.62180  0.04920  0.32980  1.0000 0.0710973197
H   H192      1.0  0.60880  0.09720  0.36610  1.0000 0.1282126637
H   H193      1.0  0.57390  0.06280  0.33040  1.0000 0.1098002692
H   H194      1.0  0.59740  0.09890  0.28170  1.0000 0.1197107129
H   H195      1.0  0.67020  0.11280  0.33900  1.0000 0.1282126637
H   H196      1.0  0.66680  0.11720  0.25110  1.0000 0.1197107129
H   H197      1.0  0.68050  0.09050  0.28130  1.0000 0.1033556696
H   H198      1.0  0.04329  0.50089  0.64534  1.0000 0.1098002692
C   C1        1.0  0.97170  0.43983  0.86501  1.0000 0.6054810372
C   C2        1.0  0.98720  0.46978  0.80415  1.0000 -0.0925843968
C   C3        1.0  0.01081  0.47125  0.74640  1.0000 0.1685376875
C   C4        1.0  0.02393  0.49970  0.69274  1.0000 -0.1522873256
C   C5        1.0  0.01344  0.52668  0.69691  1.0000 -0.0109323354
C   C6        1.0  0.98983  0.52521  0.75470  1.0000 -0.1068318487
C   C7        1.0  0.97671  0.49676  0.80832  1.0000 -0.1004768453
C   C8        1.0  0.02578  0.55910  0.64140  1.0000 0.600829105
C   C9        1.0  0.14788  0.64081  0.51840  1.0000 0.5896353723
C   C10       1.0  0.18730  0.64656  0.50680  1.0000 -0.0328682733
C   C11       1.0  0.19323  0.61843  0.47979  1.0000 -0.0925843968
C   C12       1.0  0.22862  0.62260  0.48300  1.0000 -0.1594883013
C   C13       1.0  0.25808  0.65491  0.51330  1.0000 0.0800630075
C   C14       1.0  0.25215  0.68304  0.54030  1.0000 -0.1522873256
C   C15       1.0  0.21676  0.67887  0.53700  1.0000 -0.1068318487
C   C16       1.0  0.29760  0.66225  0.50480  1.0000 0.0800630075
C   C17       1.0  0.30298  0.63133  0.50560  1.0000 -0.2002631488
C   C18       1.0  0.09207  0.69669  0.65755  1.0000 0.600829105
C   C19       1.0  0.10433  0.71831  0.73514  1.0000 -0.023089064
C   C20       1.0  0.14177  0.74553  0.73683  1.0000 -0.1004768453
C   C21       1.0  0.15693  0.76681  0.80209  1.0000 -0.1594883013
C   C22       1.0  0.13466  0.76086  0.86566  1.0000 0.0800630075
C   C23       1.0  0.09722  0.73365  0.86396  1.0000 -0.1594883013
C   C24       1.0  0.08205  0.71237  0.79871  1.0000 -0.0925843968
C   C25       1.0  0.15107  0.77931  0.94482  1.0000 0.0872083219
C   C26       1.0  0.18299  0.81421  0.94215  1.0000 -0.2088354472
C   C27       1.0  0.20371  0.82971  0.00789  1.0000 0.0800630075
C   C28       1.0  0.19252  0.81031  0.07630  1.0000 -0.2088354472
C   C29       1.0  0.16060  0.77542  0.07897  1.0000 0.0800630075
C   C30       1.0  0.13987  0.75992  0.01323  1.0000 -0.2088354472
C   C31       1.0  0.09084  0.69591  0.35370  1.0000 0.600829105
C   C32       1.0  0.11105  0.71973  0.28784  1.0000 -0.0544016275
C   C33       1.0  0.08832  0.71397  0.22515  1.0000 -0.0925843968
C   C34       1.0  0.10382  0.73204  0.15683  1.0000 -0.1522873256
C   C35       1.0  0.14205  0.75586  0.15120  1.0000 0.0800630075
C   C36       1.0  0.16478  0.76162  0.21389  1.0000 -0.1522873256
C   C37       1.0  0.14928  0.74356  0.28222  1.0000 -0.0804102732
C   C38       1.0  0.34314  0.97224  0.01080  1.0000 0.5820747477
C   C39       1.0  0.30506  0.93550  0.00857  1.0000 -0.023089064
C   C40       1.0  0.29674  0.91181  0.07063  1.0000 -0.1004768453
C   C41       1.0  0.26388  0.87767  0.07164  1.0000 -0.1594883013
C   C42       1.0  0.23932  0.86720  0.01059  1.0000 0.0800630075
C   C43       1.0  0.24763  0.89088  0.94853  1.0000 -0.1594883013
C   C44       1.0  0.28050  0.92503  0.94752  1.0000 -0.0925843968
C   C45       1.0  0.04850  0.43700  0.71300  1.0000 0.0138888452
C   C46       1.0  0.03290  0.39640  0.68510  1.0000 -0.0804102732
C   C47       1.0  0.98720  0.41040  0.67880  1.0000 0.5896353723
C   C48       1.0  0.06770  0.44420  0.79280  1.0000 0.0710973197
C   C49       1.0  0.08310  0.48450  0.82030  1.0000 -0.4173011346
C   C50       1.0  0.10010  0.43600  0.79090  1.0000 -0.4173011346
C   C51       1.0  0.56017  0.53187  0.86501  1.0000 0.6054810372
C   C52       1.0  0.53022  0.51742  0.80415  1.0000 -0.0925843968
C   C53       1.0  0.52875  0.53956  0.74640  1.0000 0.1685376875
C   C54       1.0  0.50030  0.52423  0.69274  1.0000 -0.1522873256
C   C55       1.0  0.47332  0.48676  0.69691  1.0000 -0.0109323354
C   C56       1.0  0.47479  0.46462  0.75470  1.0000 -0.1068318487
C   C57       1.0  0.50324  0.47995  0.80832  1.0000 -0.1004768453
C   C58       1.0  0.44090  0.46668  0.64140  1.0000 0.6054810372
C   C59       1.0  0.35919  0.50707  0.51840  1.0000 0.600829105
C   C60       1.0  0.35344  0.54074  0.50680  1.0000 -0.0328682733
C   C61       1.0  0.38157  0.57480  0.47979  1.0000 -0.0925843968
C   C62       1.0  0.37740  0.60602  0.48300  1.0000 -0.1594883013
C   C63       1.0  0.34509  0.60317  0.51330  1.0000 0.0800630075
C   C64       1.0  0.31696  0.56911  0.54030  1.0000 -0.1522873256
C   C65       1.0  0.32113  0.53789  0.53700  1.0000 -0.1068318487
C   C66       1.0  0.33775  0.63535  0.50480  1.0000 0.0800630075
C   C67       1.0  0.36867  0.67165  0.50560  1.0000 -0.2002631488
C   C68       1.0  0.30331  0.39538  0.65755  1.0000 0.600829105
C   C69       1.0  0.28169  0.38602  0.73514  1.0000 -0.023089064
C   C70       1.0  0.25447  0.39624  0.73683  1.0000 -0.1004768453
C   C71       1.0  0.23319  0.39012  0.80209  1.0000 -0.1594883013
C   C72       1.0  0.23914  0.37380  0.86566  1.0000 0.0800630075
C   C73       1.0  0.26635  0.36357  0.86396  1.0000 -0.1594883013
C   C74       1.0  0.28763  0.36968  0.79871  1.0000 -0.0925843968
C   C75       1.0  0.22069  0.37176  0.94482  1.0000 0.0872083219
C   C76       1.0  0.18579  0.36878  0.94215  1.0000 -0.2088354472
C   C77       1.0  0.17029  0.37400  0.00789  1.0000 0.0800630075
C   C78       1.0  0.18969  0.38221  0.07630  1.0000 -0.2088354472
C   C79       1.0  0.22458  0.38518  0.07897  1.0000 0.0800630075
C   C80       1.0  0.24008  0.37995  0.01323  1.0000 -0.2088354472
C   C81       1.0  0.30409  0.39493  0.35370  1.0000 0.600829105
C   C82       1.0  0.28027  0.39132  0.28784  1.0000 -0.0550353515
C   C83       1.0  0.28603  0.37435  0.22515  1.0000 -0.0925843968
C   C84       1.0  0.26796  0.37178  0.15683  1.0000 -0.1522873256
C   C85       1.0  0.24414  0.38619  0.15120  1.0000 0.0800630075
C   C86       1.0  0.23838  0.40316  0.21389  1.0000 -0.1522873256
C   C87       1.0  0.25644  0.40572  0.28222  1.0000 -0.0804102732
C   C88       1.0  0.02776  0.37090  0.01080  1.0000 0.5820747477
C   C89       1.0  0.06450  0.36956  0.00857  1.0000 -0.023089064
C   C90       1.0  0.08819  0.38493  0.07063  1.0000 -0.1004768453
C   C91       1.0  0.12233  0.38621  0.07164  1.0000 -0.1594883013
C   C92       1.0  0.13280  0.37212  0.01059  1.0000 0.0800630075
C   C93       1.0  0.10912  0.35675  0.94853  1.0000 -0.1594883013
C   C94       1.0  0.07497  0.35547  0.94752  1.0000 -0.0925843968
C   C95       1.0  0.56300  0.61150  0.71300  1.0000 0.0138888452
C   C96       1.0  0.60360  0.63650  0.68510  1.0000 -0.0804102732
C   C97       1.0  0.58960  0.57680  0.67880  1.0000 0.5896353723
C   C98       1.0  0.55580  0.62350  0.79280  1.0000 0.0710973197
C   C99       1.0  0.51550  0.59860  0.82030  1.0000 -0.4173011346
C   C100      1.0  0.56400  0.66410  0.79090  1.0000 -0.4173011346
C   C101      1.0  0.46813  0.02830  0.86501  1.0000 0.6054810372
C   C102      1.0  0.48258  0.01280  0.80415  1.0000 -0.0925843968
C   C103      1.0  0.46044  0.98919  0.74640  1.0000 0.1685376875
C   C104      1.0  0.47577  0.97607  0.69274  1.0000 -0.1522873256
C   C105      1.0  0.51324  0.98656  0.69691  1.0000 -0.0109323354
C   C106      1.0  0.53538  0.01017  0.75470  1.0000 -0.1068318487
C   C107      1.0  0.52005  0.02329  0.80832  1.0000 -0.1004768453
C   C108      1.0  0.53332  0.97422  0.64140  1.0000 0.6054810372
C   C109      1.0  0.49293  0.85212  0.51840  1.0000 0.600829105
C   C110      1.0  0.45926  0.81270  0.50680  1.0000 -0.0328682733
C   C111      1.0  0.42520  0.80677  0.47979  1.0000 -0.0925843968
C   C112      1.0  0.39398  0.77138  0.48300  1.0000 -0.1594883013
C   C113      1.0  0.39683  0.74192  0.51330  1.0000 0.0800630075
C   C114      1.0  0.43089  0.74785  0.54030  1.0000 -0.1522873256
C   C115      1.0  0.46211  0.78324  0.53700  1.0000 -0.1068318487
C   C116      1.0  0.36465  0.70240  0.50480  1.0000 0.0800630075
C   C117      1.0  0.32835  0.69702  0.50560  1.0000 -0.2002631488
C   C118      1.0  0.60462  0.90793  0.65755  1.0000 0.600829105
C   C119      1.0  0.61398  0.89567  0.73514  1.0000 -0.023089064
C   C120      1.0  0.60376  0.85823  0.73683  1.0000 -0.1004768453
C   C121      1.0  0.60988  0.84307  0.80209  1.0000 -0.1594883013
C   C122      1.0  0.62620  0.86534  0.86566  1.0000 0.0800630075
C   C123      1.0  0.63643  0.90278  0.86396  1.0000 -0.1594883013
C   C124      1.0  0.63032  0.91795  0.79871  1.0000 -0.0925843968
C   C125      1.0  0.62824  0.84893  0.94482  1.0000 0.0872083219
C   C126      1.0  0.63122  0.81701  0.94215  1.0000 -0.2088354472
C   C127      1.0  0.62600  0.79629  0.00789  1.0000 0.0800630075
C   C128      1.0  0.61779  0.80748  0.07630  1.0000 -0.2088354472
C   C129      1.0  0.61482  0.83940  0.07897  1.0000 0.0800630075
C   C130      1.0  0.62005  0.86013  0.01323  1.0000 -0.2088354472
C   C131      1.0  0.60507  0.90916  0.35370  1.0000 0.600829105
C   C132      1.0  0.60868  0.88895  0.28784  1.0000 -0.0544016275
C   C133      1.0  0.62565  0.91168  0.22515  1.0000 -0.0925843968
C   C134      1.0  0.62822  0.89618  0.15683  1.0000 -0.1522873256
C   C135      1.0  0.61381  0.85795  0.15120  1.0000 0.0800630075
C   C136      1.0  0.59684  0.83522  0.21389  1.0000 -0.1522873256
C   C137      1.0  0.59428  0.85072  0.28222  1.0000 -0.0804102732
C   C138      1.0  0.62910  0.65686  0.01080  1.0000 0.5820747477
C   C139      1.0  0.63044  0.69494  0.00857  1.0000 -0.023089064
C   C140      1.0  0.61507  0.70326  0.07063  1.0000 -0.1004768453
C   C141      1.0  0.61379  0.73612  0.07164  1.0000 -0.1594883013
C   C142      1.0  0.62788  0.76068  0.01059  1.0000 0.0800630075
C   C143      1.0  0.64325  0.75237  0.94853  1.0000 -0.1594883013
C   C144      1.0  0.64453  0.71950  0.94752  1.0000 -0.0925843968
C   C145      1.0  0.38850  0.95150  0.71300  1.0000 0.0138888452
C   C146      1.0  0.36350  0.96710  0.68510  1.0000 -0.0804102732
C   C147      1.0  0.42320  0.01280  0.67880  1.0000 0.5820747477
C   C148      1.0  0.37650  0.93230  0.79280  1.0000 0.0710973197
C   C149      1.0  0.40140  0.91690  0.82030  1.0000 -0.4173011346
C   C150      1.0  0.33590  0.89990  0.79090  1.0000 -0.4173011346
C   C151      1.0  0.02830  0.56017  0.36501  1.0000 0.6054810372
C   C152      1.0  0.01280  0.53022  0.30415  1.0000 -0.0925843968
C   C153      1.0  0.98919  0.52875  0.24640  1.0000 0.1685376875
C   C154      1.0  0.97607  0.50030  0.19274  1.0000 -0.1522873256
C   C155      1.0  0.98656  0.47332  0.19691  1.0000 -0.0109323354
C   C156      1.0  0.01017  0.47479  0.25470  1.0000 -0.1068318487
C   C157      1.0  0.02329  0.50324  0.30832  1.0000 -0.1004768453
C   C158      1.0  0.97422  0.44090  0.14140  1.0000 0.6054810372
C   C159      1.0  0.85212  0.35919  0.01840  1.0000 0.600829105
C   C160      1.0  0.81270  0.35344  0.00680  1.0000 -0.0328682733
C   C161      1.0  0.80677  0.38157  0.97979  1.0000 -0.0925843968
C   C162      1.0  0.77138  0.37740  0.98300  1.0000 -0.1594883013
C   C163      1.0  0.74192  0.34509  0.01330  1.0000 0.0800630075
C   C164      1.0  0.74785  0.31696  0.04030  1.0000 -0.1522873256
C   C165      1.0  0.78324  0.32113  0.03700  1.0000 -0.1068318487
C   C166      1.0  0.70240  0.33775  0.00480  1.0000 0.0800630075
C   C167      1.0  0.69702  0.36867  0.00560  1.0000 -0.2002631488
C   C168      1.0  0.90793  0.30331  0.15755  1.0000 0.600829105
C   C169      1.0  0.89567  0.28169  0.23514  1.0000 -0.023089064
C   C170      1.0  0.85823  0.25447  0.23683  1.0000 -0.1004768453
C   C171      1.0  0.84307  0.23319  0.30209  1.0000 -0.1594883013
C   C172      1.0  0.86534  0.23914  0.36566  1.0000 0.0800630075
C   C173      1.0  0.90278  0.26635  0.36396  1.0000 -0.1594883013
C   C174      1.0  0.91795  0.28763  0.29871  1.0000 -0.0925843968
C   C175      1.0  0.84893  0.22069  0.44482  1.0000 0.0872083219
C   C176      1.0  0.81701  0.18579  0.44215  1.0000 -0.2088354472
C   C177      1.0  0.79629  0.17029  0.50789  1.0000 0.0800630075
C   C178      1.0  0.80748  0.18969  0.57630  1.0000 -0.2088354472
C   C179      1.0  0.83940  0.22458  0.57897  1.0000 0.0800630075
C   C180      1.0  0.86013  0.24008  0.51323  1.0000 -0.2088354472
C   C181      1.0  0.90916  0.30409  0.85370  1.0000 0.600829105
C   C182      1.0  0.88895  0.28027  0.78784  1.0000 -0.0544016275
C   C183      1.0  0.91168  0.28603  0.72515  1.0000 -0.0925843968
C   C184      1.0  0.89618  0.26796  0.65683  1.0000 -0.1522873256
C   C185      1.0  0.85795  0.24414  0.65120  1.0000 0.0800630075
C   C186      1.0  0.83522  0.23838  0.71389  1.0000 -0.1522873256
C   C187      1.0  0.85072  0.25644  0.78222  1.0000 -0.0804102732
C   C188      1.0  0.65686  0.02776  0.51080  1.0000 0.5820747477
C   C189      1.0  0.69494  0.06450  0.50857  1.0000 -0.023089064
C   C190      1.0  0.70326  0.08819  0.57063  1.0000 -0.1004768453
C   C191      1.0  0.73612  0.12233  0.57164  1.0000 -0.1594883013
C   C192      1.0  0.76068  0.13280  0.51059  1.0000 0.0800630075
C   C193      1.0  0.75237  0.10912  0.44853  1.0000 -0.1594883013
C   C194      1.0  0.71950  0.07497  0.44752  1.0000 -0.1004768453
C   C195      1.0  0.95150  0.56300  0.21300  1.0000 0.0138888452
C   C196      1.0  0.96710  0.60360  0.18510  1.0000 -0.0804102732
C   C197      1.0  0.01280  0.58960  0.17880  1.0000 0.5820747477
C   C198      1.0  0.93230  0.55580  0.29280  1.0000 0.0710973197
C   C199      1.0  0.91690  0.51550  0.32030  1.0000 -0.4173011346
C   C200      1.0  0.89990  0.56400  0.29090  1.0000 -0.4173011346
C   C201      1.0  0.43983  0.46813  0.36501  1.0000 0.6054810372
C   C202      1.0  0.46978  0.48258  0.30415  1.0000 -0.0925843968
C   C203      1.0  0.47125  0.46044  0.24640  1.0000 0.1685376875
C   C204      1.0  0.49970  0.47577  0.19274  1.0000 -0.1522873256
C   C205      1.0  0.52668  0.51324  0.19691  1.0000 -0.0109323354
C   C206      1.0  0.52521  0.53538  0.25470  1.0000 -0.1068318487
C   C207      1.0  0.49676  0.52005  0.30832  1.0000 -0.1004768453
C   C208      1.0  0.55910  0.53332  0.14140  1.0000 0.6054810372
C   C209      1.0  0.64081  0.49293  0.01840  1.0000 0.5896353723
C   C210      1.0  0.64656  0.45926  0.00680  1.0000 -0.0328682733
C   C211      1.0  0.61843  0.42520  0.97979  1.0000 -0.0925843968
C   C212      1.0  0.62260  0.39398  0.98300  1.0000 -0.1594883013
C   C213      1.0  0.65491  0.39683  0.01330  1.0000 0.0800630075
C   C214      1.0  0.68304  0.43089  0.04030  1.0000 -0.1522873256
C   C215      1.0  0.67887  0.46211  0.03700  1.0000 -0.1068318487
C   C216      1.0  0.66225  0.36465  0.00480  1.0000 0.0800630075
C   C217      1.0  0.63133  0.32835  0.00560  1.0000 -0.2002631488
C   C218      1.0  0.69669  0.60462  0.15755  1.0000 0.600829105
C   C219      1.0  0.71831  0.61398  0.23514  1.0000 -0.023089064
C   C220      1.0  0.74553  0.60376  0.23683  1.0000 -0.1004768453
C   C221      1.0  0.76681  0.60988  0.30209  1.0000 -0.1594883013
C   C222      1.0  0.76086  0.62620  0.36566  1.0000 0.0800630075
C   C223      1.0  0.73365  0.63643  0.36396  1.0000 -0.1594883013
C   C224      1.0  0.71237  0.63032  0.29871  1.0000 -0.0925843968
C   C225      1.0  0.77931  0.62824  0.44482  1.0000 0.0872083219
C   C226      1.0  0.81421  0.63122  0.44215  1.0000 -0.2088354472
C   C227      1.0  0.82971  0.62600  0.50789  1.0000 0.0800630075
C   C228      1.0  0.81031  0.61779  0.57630  1.0000 -0.2088354472
C   C229      1.0  0.77542  0.61482  0.57897  1.0000 0.0800630075
C   C230      1.0  0.75992  0.62005  0.51323  1.0000 -0.2088354472
C   C231      1.0  0.69591  0.60507  0.85370  1.0000 0.600829105
C   C232      1.0  0.71973  0.60868  0.78784  1.0000 -0.0544016275
C   C233      1.0  0.71397  0.62565  0.72515  1.0000 -0.0925843968
C   C234      1.0  0.73204  0.62822  0.65683  1.0000 -0.1522873256
C   C235      1.0  0.75586  0.61381  0.65120  1.0000 0.0800630075
C   C236      1.0  0.76162  0.59684  0.71389  1.0000 -0.1522873256
C   C237      1.0  0.74356  0.59428  0.78222  1.0000 -0.0804102732
C   C238      1.0  0.97224  0.62910  0.51080  1.0000 0.5820747477
C   C239      1.0  0.93550  0.63044  0.50857  1.0000 -0.023089064
C   C240      1.0  0.91181  0.61507  0.57063  1.0000 -0.1004768453
C   C241      1.0  0.87767  0.61379  0.57164  1.0000 -0.1594883013
C   C242      1.0  0.86720  0.62788  0.51059  1.0000 0.0800630075
C   C243      1.0  0.89088  0.64325  0.44853  1.0000 -0.1594883013
C   C244      1.0  0.92503  0.64453  0.44752  1.0000 -0.0925843968
C   C245      1.0  0.43700  0.38850  0.21300  1.0000 0.0138888452
C   C246      1.0  0.39640  0.36350  0.18510  1.0000 -0.0804102732
C   C247      1.0  0.41040  0.42320  0.17880  1.0000 0.5896353723
C   C248      1.0  0.44420  0.37650  0.29280  1.0000 0.0710973197
C   C249      1.0  0.48450  0.40140  0.32030  1.0000 -0.4173011346
C   C250      1.0  0.43600  0.33590  0.29090  1.0000 -0.4173011346
C   C251      1.0  0.53187  0.97170  0.36501  1.0000 0.6054810372
C   C252      1.0  0.51742  0.98720  0.30415  1.0000 -0.0925843968
C   C253      1.0  0.53956  0.01081  0.24640  1.0000 0.1685376875
C   C254      1.0  0.52423  0.02393  0.19274  1.0000 -0.1522873256
C   C255      1.0  0.48676  0.01344  0.19691  1.0000 -0.0109323354
C   C256      1.0  0.46462  0.98983  0.25470  1.0000 -0.1068318487
C   C257      1.0  0.47995  0.97671  0.30832  1.0000 -0.1004768453
C   C258      1.0  0.46668  0.02578  0.14140  1.0000 0.600829105
C   C259      1.0  0.50707  0.14788  0.01840  1.0000 0.5896353723
C   C260      1.0  0.54074  0.18730  0.00680  1.0000 -0.0328682733
C   C261      1.0  0.57480  0.19323  0.97979  1.0000 -0.0925843968
C   C262      1.0  0.60602  0.22862  0.98300  1.0000 -0.1594883013
C   C263      1.0  0.60317  0.25808  0.01330  1.0000 0.0800630075
C   C264      1.0  0.56911  0.25215  0.04030  1.0000 -0.1522873256
C   C265      1.0  0.53789  0.21676  0.03700  1.0000 -0.1068318487
C   C266      1.0  0.63535  0.29760  0.00480  1.0000 0.0800630075
C   C267      1.0  0.67165  0.30298  0.00560  1.0000 -0.2002631488
C   C268      1.0  0.39538  0.09207  0.15755  1.0000 0.600829105
C   C269      1.0  0.38602  0.10433  0.23514  1.0000 -0.023089064
C   C270      1.0  0.39624  0.14177  0.23683  1.0000 -0.1004768453
C   C271      1.0  0.39012  0.15693  0.30209  1.0000 -0.1594883013
C   C272      1.0  0.37380  0.13466  0.36566  1.0000 0.0800630075
C   C273      1.0  0.36357  0.09722  0.36396  1.0000 -0.1594883013
C   C274      1.0  0.36968  0.08205  0.29871  1.0000 -0.0925843968
C   C275      1.0  0.37176  0.15107  0.44482  1.0000 0.0872083219
C   C276      1.0  0.36878  0.18299  0.44215  1.0000 -0.2088354472
C   C277      1.0  0.37400  0.20371  0.50789  1.0000 0.0800630075
C   C278      1.0  0.38221  0.19252  0.57630  1.0000 -0.2088354472
C   C279      1.0  0.38518  0.16060  0.57897  1.0000 0.0800630075
C   C280      1.0  0.37995  0.13987  0.51323  1.0000 -0.2088354472
C   C281      1.0  0.39493  0.09084  0.85370  1.0000 0.600829105
C   C282      1.0  0.39132  0.11105  0.78784  1.0000 -0.0544016275
C   C283      1.0  0.37435  0.08832  0.72515  1.0000 -0.0925843968
C   C284      1.0  0.37178  0.10382  0.65683  1.0000 -0.1522873256
C   C285      1.0  0.38619  0.14205  0.65120  1.0000 0.0800630075
C   C286      1.0  0.40316  0.16478  0.71389  1.0000 -0.1522873256
C   C287      1.0  0.40572  0.14928  0.78222  1.0000 -0.0804102732
C   C288      1.0  0.37090  0.34314  0.51080  1.0000 0.5820747477
C   C289      1.0  0.36956  0.30506  0.50857  1.0000 -0.023089064
C   C290      1.0  0.38493  0.29674  0.57063  1.0000 -0.1004768453
C   C291      1.0  0.38621  0.26388  0.57164  1.0000 -0.1594883013
C   C292      1.0  0.37212  0.23932  0.51059  1.0000 0.0800630075
C   C293      1.0  0.35675  0.24763  0.44853  1.0000 -0.1594883013
C   C294      1.0  0.35547  0.28050  0.44752  1.0000 -0.0925843968
C   C295      1.0  0.61150  0.04850  0.21300  1.0000 0.0138888452
C   C296      1.0  0.63650  0.03290  0.18510  1.0000 -0.0804102732
C   C297      1.0  0.57680  0.98720  0.17880  1.0000 0.5896353723
C   C298      1.0  0.62350  0.06770  0.29280  1.0000 0.0710973197
C   C299      1.0  0.59860  0.08310  0.32030  1.0000 -0.4173011346
C   C300      1.0  0.66410  0.10010  0.29090  1.0000 -0.4173011346
N   N1        1.0  0.01530  0.44080  0.71750  1.0000 -0.2214949914
N   N2        1.0  0.55920  0.57450  0.71750  1.0000 -0.2214949914
N   N3        1.0  0.42550  0.98470  0.71750  1.0000 -0.2214949914
N   N4        1.0  0.98470  0.55920  0.21750  1.0000 -0.2214949914
N   N5        1.0  0.44080  0.42550  0.21750  1.0000 -0.2214949914
N   N6        1.0  0.57450  0.01530  0.21750  1.0000 -0.2214949914
O   O1        1.0  0.05776  0.63162  0.50952  1.0000 -1.0270014319
O   O2        1.0  0.95283  0.44081  0.91993  1.0000 -0.518592657
O   O3        1.0  0.97535  0.41206  0.85559  1.0000 -0.5407278302
O   O4        1.0  0.01426  0.58170  0.65080  1.0000 -0.5407278302
O   O5        1.0  0.04898  0.55904  0.59549  1.0000 -0.5306332124
O   O6        1.0  0.14599  0.66959  0.49530  1.0000 -0.5407278302
O   O7        1.0  0.12246  0.60905  0.49780  1.0000 -0.518592657
O   O8        1.0  0.11046  0.70723  0.59661  1.0000 -0.5566322121
O   O9        1.0  0.06104  0.66839  0.66750  1.0000 -0.5306332124
O   O10       1.0  0.05683  0.67156  0.35580  1.0000 -0.5462199661
O   O11       1.0  0.11414  0.70394  0.40645  1.0000 -0.5114948166
O   O12       1.0  0.35291  0.98781  0.94712  1.0000 -0.5407278302
O   O13       1.0  0.35575  0.98292  0.07670  1.0000 -0.5306332124
O   O14       1.0  0.99550  0.38300  0.66020  1.0000 -0.2088354472
O   O15       1.0  0.95640  0.40640  0.66790  1.0000 -0.473511562
O   O16       1.0  0.36838  0.42614  0.50952  1.0000 -1.0270014319
O   O17       1.0  0.55919  0.51202  0.91993  1.0000 -0.518592657
O   O18       1.0  0.58794  0.56329  0.85559  1.0000 -0.5407278302
O   O19       1.0  0.41830  0.43256  0.65080  1.0000 -0.5407278302
O   O20       1.0  0.44096  0.48994  0.59549  1.0000 -0.5306332124
O   O21       1.0  0.33041  0.47640  0.49530  1.0000 -0.5407278302
O   O22       1.0  0.39095  0.51341  0.49780  1.0000 -0.518592657
O   O23       1.0  0.29277  0.40323  0.59661  1.0000 -0.5566322121
O   O24       1.0  0.33161  0.39265  0.66750  1.0000 -0.5306332124
O   O25       1.0  0.32844  0.38527  0.35580  1.0000 -0.5462199661
O   O26       1.0  0.29606  0.41020  0.40645  1.0000 -0.5114948166
O   O27       1.0  0.01219  0.36510  0.94712  1.0000 -0.5407278302
O   O28       1.0  0.01708  0.37283  0.07670  1.0000 -0.5306332124
O   O29       1.0  0.61700  0.61250  0.66020  1.0000 -0.2088354472
O   O30       1.0  0.59360  0.55000  0.66790  1.0000 -0.473511562
O   O31       1.0  0.57386  0.94224  0.50952  1.0000 -1.0270014319
O   O32       1.0  0.48798  0.04717  0.91993  1.0000 -0.518592657
O   O33       1.0  0.43671  0.02465  0.85559  1.0000 -0.5407278302
O   O34       1.0  0.56744  0.98574  0.65080  1.0000 -0.5407278302
O   O35       1.0  0.51006  0.95102  0.59549  1.0000 -0.5306332124
O   O36       1.0  0.52360  0.85401  0.49530  1.0000 -0.5407278302
O   O37       1.0  0.48659  0.87754  0.49780  1.0000 -0.518592657
O   O38       1.0  0.59677  0.88954  0.59661  1.0000 -0.5566322121
O   O39       1.0  0.60735  0.93896  0.66750  1.0000 -0.5306332124
O   O40       1.0  0.61473  0.94317  0.35580  1.0000 -0.5462199661
O   O41       1.0  0.58980  0.88586  0.40645  1.0000 -0.5114948166
O   O42       1.0  0.63490  0.64709  0.94712  1.0000 -0.5407278302
O   O43       1.0  0.62717  0.64425  0.07670  1.0000 -0.5306332124
O   O44       1.0  0.38750  0.00450  0.66020  1.0000 -0.2088354472
O   O45       1.0  0.45000  0.04360  0.66790  1.0000 -0.473511562
O   O46       1.0  0.94224  0.36838  0.00952  1.0000 -1.0270014319
O   O47       1.0  0.04717  0.55919  0.41993  1.0000 -0.518592657
O   O48       1.0  0.02465  0.58794  0.35559  1.0000 -0.5407278302
O   O49       1.0  0.98574  0.41830  0.15080  1.0000 -0.5407278302
O   O50       1.0  0.95102  0.44096  0.09549  1.0000 -0.5306332124
O   O51       1.0  0.85401  0.33041  0.99530  1.0000 -0.5407278302
O   O52       1.0  0.87754  0.39095  0.99780  1.0000 -0.518592657
O   O53       1.0  0.88954  0.29277  0.09661  1.0000 -0.5566322121
O   O54       1.0  0.93896  0.33161  0.16750  1.0000 -0.5306332124
O   O55       1.0  0.94317  0.32844  0.85580  1.0000 -0.5462199661
O   O56       1.0  0.88586  0.29606  0.90645  1.0000 -0.5114948166
O   O57       1.0  0.64709  0.01219  0.44712  1.0000 -0.5407278302
O   O58       1.0  0.64425  0.01708  0.57670  1.0000 -0.5306332124
O   O59       1.0  0.00450  0.61700  0.16020  1.0000 -0.2088354472
O   O60       1.0  0.04360  0.59360  0.16790  1.0000 -0.4762046847
O   O61       1.0  0.63162  0.57386  0.00952  1.0000 -1.0270014319
O   O62       1.0  0.44081  0.48798  0.41993  1.0000 -0.518592657
O   O63       1.0  0.41206  0.43671  0.35559  1.0000 -0.5407278302
O   O64       1.0  0.58170  0.56744  0.15080  1.0000 -0.5407278302
O   O65       1.0  0.55904  0.51006  0.09549  1.0000 -0.5306332124
O   O66       1.0  0.66959  0.52360  0.99530  1.0000 -0.5407278302
O   O67       1.0  0.60905  0.48659  0.99780  1.0000 -0.518592657
O   O68       1.0  0.70723  0.59677  0.09661  1.0000 -0.5566322121
O   O69       1.0  0.66839  0.60735  0.16750  1.0000 -0.5306332124
O   O70       1.0  0.67156  0.61473  0.85580  1.0000 -0.5462199661
O   O71       1.0  0.70394  0.58980  0.90645  1.0000 -0.5114948166
O   O72       1.0  0.98781  0.63490  0.44712  1.0000 -0.5407278302
O   O73       1.0  0.98292  0.62717  0.57670  1.0000 -0.5306332124
O   O74       1.0  0.38300  0.38750  0.16020  1.0000 -0.2088354472
O   O75       1.0  0.40640  0.45000  0.16790  1.0000 -0.473511562
O   O76       1.0  0.42614  0.05776  0.00952  1.0000 -1.0270014319
O   O77       1.0  0.51202  0.95283  0.41993  1.0000 -0.518592657
O   O78       1.0  0.56329  0.97535  0.35559  1.0000 -0.5407278302
O   O79       1.0  0.43256  0.01426  0.15080  1.0000 -0.5407278302
O   O80       1.0  0.48994  0.04898  0.09549  1.0000 -0.5306332124
O   O81       1.0  0.47640  0.14599  0.99530  1.0000 -0.5407278302
O   O82       1.0  0.51341  0.12246  0.99780  1.0000 -0.518592657
O   O83       1.0  0.40323  0.11046  0.09661  1.0000 -0.5566322121
O   O84       1.0  0.39265  0.06104  0.16750  1.0000 -0.5306332124
O   O85       1.0  0.38527  0.05683  0.85580  1.0000 -0.5462199661
O   O86       1.0  0.41020  0.11414  0.90645  1.0000 -0.5114948166
O   O87       1.0  0.36510  0.35291  0.44712  1.0000 -0.5407278302
O   O88       1.0  0.37283  0.35575  0.57670  1.0000 -0.5306332124
O   O89       1.0  0.61250  0.99550  0.16020  1.0000 -0.2088354472
O   O90       1.0  0.55000  0.95640  0.16790  1.0000 -0.473511562
