# DDEC6 charges by PACMAN v1.1 (https://github.com/mtap-research/PACMAN-charge/)
data_2011[Mg][flu]3[ASR]1
_chemical_formula_sum              "Mg8 P4 H52 C84 O32"
_cell_length_a       13.5792
_cell_length_b       13.8958
_cell_length_c       20.7478
_cell_angle_alpha    90
_cell_angle_beta     104.882
_cell_angle_gamma    90

_symmetry_space_group_name_H-M    "P 1"
_symmetry_Int_Tables_number       1

loop_
  _symmetry_equiv_pos_as_xyz
  'x, y, z'

loop_
  _atom_site_type_symbol
  _atom_site_label
  _atom_site_symmetry_multiplicity
  _atom_site_fract_x
  _atom_site_fract_y
  _atom_site_fract_z
  _atom_site_occupancy
  _atom_site_charge
Mg  Mg1       1.0  0.34614  0.13395  0.04953  1.0000 1.4480375195
Mg  Mg2       1.0  0.65386  0.63395  0.45047  1.0000 1.4480375195
Mg  Mg3       1.0  0.65386  0.86605  0.95047  1.0000 1.4480375195
Mg  Mg4       1.0  0.34614  0.36605  0.54953  1.0000 1.4480375195
Mg  Mg5       1.0  0.59493  0.04299  0.05170  1.0000 1.4122634971
Mg  Mg6       1.0  0.40507  0.54299  0.44830  1.0000 1.4122634971
Mg  Mg7       1.0  0.40507  0.95701  0.94830  1.0000 1.4122634971
Mg  Mg8       1.0  0.59493  0.45701  0.55170  1.0000 1.4122634971
P   P1        1.0  0.26404  0.03705  0.18150  1.0000 0.8828444028
P   P2        1.0  0.73596  0.53705  0.31850  1.0000 0.8828444028
P   P3        1.0  0.73596  0.96295  0.81850  1.0000 0.8828444028
P   P4        1.0  0.26404  0.46295  0.68150  1.0000 0.8828444028
H   H1        1.0  0.43290  0.97380  0.07290  1.0000 0.4037863159
H   H2        1.0  0.56710  0.47380  0.42710  1.0000 0.4037863159
H   H3        1.0  0.56710  0.02620  0.92710  1.0000 0.4037863159
H   H4        1.0  0.43290  0.52620  0.57290  1.0000 0.4037863159
H   H5        1.0  0.32480  0.23220  0.19310  1.0000 0.1219912523
H   H6        1.0  0.67520  0.73220  0.30690  1.0000 0.1219912523
H   H7        1.0  0.67520  0.76780  0.80690  1.0000 0.1219912523
H   H8        1.0  0.32480  0.26780  0.69310  1.0000 0.1219912523
H   H9        1.0  0.36250  0.34520  0.27860  1.0000 0.1106462551
H   H10       1.0  0.63750  0.84520  0.22140  1.0000 0.1106462551
H   H11       1.0  0.63750  0.65480  0.72140  1.0000 0.1106462551
H   H12       1.0  0.36250  0.15480  0.77860  1.0000 0.1106462551
H   H13       1.0  0.28640  0.15430  0.40340  1.0000 0.1219912523
H   H14       1.0  0.71360  0.65430  0.09660  1.0000 0.1219912523
H   H15       1.0  0.71360  0.84570  0.59660  1.0000 0.1219912523
H   H16       1.0  0.28640  0.34570  0.90340  1.0000 0.1219912523
H   H17       1.0  0.24680  0.04020  0.31830  1.0000 0.1106462551
H   H18       1.0  0.75320  0.54020  0.18170  1.0000 0.1106462551
H   H19       1.0  0.75320  0.95980  0.68170  1.0000 0.1045544291
H   H20       1.0  0.24680  0.45980  0.81830  1.0000 0.1106462551
H   H21       1.0  0.08070  0.13140  0.19560  1.0000 0.1106462551
H   H22       1.0  0.91930  0.63140  0.30440  1.0000 0.1106462551
H   H23       1.0  0.91930  0.86860  0.80440  1.0000 0.1106462551
H   H24       1.0  0.08070  0.36860  0.69560  1.0000 0.1106462551
H   H25       1.0  0.90770  0.11620  0.14230  1.0000 0.1272734435
H   H26       1.0  0.09230  0.61620  0.35770  1.0000 0.1272734435
H   H27       1.0  0.09230  0.88380  0.85770  1.0000 0.1272734435
H   H28       1.0  0.90770  0.38380  0.64230  1.0000 0.1272734435
H   H29       1.0  0.97020  0.89430  0.03550  1.0000 0.1219912523
H   H30       1.0  0.02980  0.39430  0.46450  1.0000 0.1219912523
H   H31       1.0  0.02980  0.10570  0.96450  1.0000 0.1219912523
H   H32       1.0  0.97020  0.60570  0.53550  1.0000 0.1219912523
H   H33       1.0  0.14430  0.91070  0.08610  1.0000 0.1219912523
H   H34       1.0  0.85570  0.41070  0.41390  1.0000 0.1219912523
H   H35       1.0  0.85570  0.08930  0.91390  1.0000 0.1219912523
H   H36       1.0  0.14430  0.58930  0.58610  1.0000 0.1219912523
H   H37       1.0  0.17880  0.86670  0.23190  1.0000 0.1106462551
H   H38       1.0  0.82120  0.36670  0.26810  1.0000 0.1106462551
H   H39       1.0  0.82120  0.13330  0.76810  1.0000 0.1106462551
H   H40       1.0  0.17880  0.63330  0.73190  1.0000 0.1106462551
H   H41       1.0  0.25180  0.73870  0.29990  1.0000 0.1219912523
H   H42       1.0  0.74820  0.23870  0.20010  1.0000 0.1219912523
H   H43       1.0  0.74820  0.26130  0.70010  1.0000 0.1219912523
H   H44       1.0  0.25180  0.76130  0.79990  1.0000 0.1219912523
H   H45       1.0  0.53220  0.83940  0.30350  1.0000 0.1106462551
H   H46       1.0  0.46780  0.33940  0.19650  1.0000 0.1106462551
H   H47       1.0  0.46780  0.16060  0.69650  1.0000 0.1106462551
H   H48       1.0  0.53220  0.66060  0.80350  1.0000 0.1106462551
H   H49       1.0  0.45990  0.96080  0.23070  1.0000 0.1272734435
H   H50       1.0  0.54010  0.46080  0.26930  1.0000 0.1272734435
H   H51       1.0  0.54010  0.03920  0.76930  1.0000 0.1272734435
H   H52       1.0  0.45990  0.53920  0.73070  1.0000 0.1272734435
C   C1        1.0  0.28410  0.12560  0.24731  1.0000 -0.1505666418
C   C2        1.0  0.71590  0.62560  0.25269  1.0000 -0.1505666418
C   C3        1.0  0.71590  0.87440  0.75269  1.0000 -0.1505666418
C   C4        1.0  0.28410  0.37440  0.74731  1.0000 -0.1505666418
C   C5        1.0  0.31740  0.21570  0.23610  1.0000 -0.0910566641
C   C6        1.0  0.68260  0.71570  0.26390  1.0000 -0.0910566641
C   C7        1.0  0.68260  0.78430  0.76390  1.0000 -0.0910566641
C   C8        1.0  0.31740  0.28430  0.73610  1.0000 -0.0910566641
C   C9        1.0  0.34020  0.28270  0.28700  1.0000 -0.0910566641
C   C10       1.0  0.65980  0.78270  0.21300  1.0000 -0.0910566641
C   C11       1.0  0.65980  0.71730  0.71300  1.0000 -0.0910566641
C   C12       1.0  0.34020  0.21730  0.78700  1.0000 -0.0910566641
C   C13       1.0  0.33080  0.25940  0.35036  1.0000 -0.0123102412
C   C14       1.0  0.66920  0.75940  0.14964  1.0000 -0.0123102412
C   C15       1.0  0.66920  0.74060  0.64964  1.0000 -0.0123102412
C   C16       1.0  0.33080  0.24060  0.85036  1.0000 -0.0123102412
C   C17       1.0  0.29510  0.17000  0.36060  1.0000 -0.0910566641
C   C18       1.0  0.70490  0.67000  0.13940  1.0000 -0.0910566641
C   C19       1.0  0.70490  0.83000  0.63940  1.0000 -0.0910566641
C   C20       1.0  0.29510  0.33000  0.86060  1.0000 -0.0910566641
C   C21       1.0  0.27130  0.10190  0.31030  1.0000 -0.0991133876
C   C22       1.0  0.72870  0.60190  0.18970  1.0000 -0.0991133876
C   C23       1.0  0.72870  0.89810  0.68970  1.0000 -0.0991133876
C   C24       1.0  0.27130  0.39810  0.81030  1.0000 -0.0991133876
C   C25       1.0  0.35920  0.33150  0.40660  1.0000 0.607279315
C   C26       1.0  0.64080  0.83150  0.09340  1.0000 0.607279315
C   C27       1.0  0.64080  0.66850  0.59340  1.0000 0.607279315
C   C28       1.0  0.35920  0.16850  0.90660  1.0000 0.607279315
C   C29       1.0  0.12930  0.02290  0.14608  1.0000 -0.1505666418
C   C30       1.0  0.87070  0.52290  0.35392  1.0000 -0.1505666418
C   C31       1.0  0.87070  0.97710  0.85392  1.0000 -0.1505666418
C   C32       1.0  0.12930  0.47710  0.64608  1.0000 -0.1505666418
C   C33       1.0  0.05870  0.08330  0.16250  1.0000 -0.0991133876
C   C34       1.0  0.94130  0.58330  0.33750  1.0000 -0.0991133876
C   C35       1.0  0.94130  0.91670  0.83750  1.0000 -0.0991133876
C   C36       1.0  0.05870  0.41670  0.66250  1.0000 -0.0991133876
C   C37       1.0  0.95580  0.07420  0.13080  1.0000 -0.0910566641
C   C38       1.0  0.04420  0.57420  0.36920  1.0000 -0.0910566641
C   C39       1.0  0.04420  0.92580  0.86920  1.0000 -0.0910566641
C   C40       1.0  0.95580  0.42580  0.63080  1.0000 -0.0910566641
C   C41       1.0  0.92340  0.00510  0.08340  1.0000 -0.0123102412
C   C42       1.0  0.07660  0.50510  0.41660  1.0000 -0.0123102412
C   C43       1.0  0.07660  0.99490  0.91660  1.0000 -0.0123102412
C   C44       1.0  0.92340  0.49490  0.58340  1.0000 -0.0123102412
C   C45       1.0  0.99310  0.94350  0.06760  1.0000 -0.0910566641
C   C46       1.0  0.00690  0.44350  0.43240  1.0000 -0.0910566641
C   C47       1.0  0.00690  0.05650  0.93240  1.0000 -0.0910566641
C   C48       1.0  0.99310  0.55650  0.56760  1.0000 -0.0910566641
C   C49       1.0  0.09650  0.95250  0.09800  1.0000 -0.0910566641
C   C50       1.0  0.90350  0.45250  0.40200  1.0000 -0.0910566641
C   C51       1.0  0.90350  0.04750  0.90200  1.0000 -0.0910566641
C   C52       1.0  0.09650  0.54750  0.59800  1.0000 -0.0910566641
C   C53       1.0  0.80990  0.99390  0.04950  1.0000 0.604234531
C   C54       1.0  0.19010  0.49390  0.45050  1.0000 0.604234531
C   C55       1.0  0.19010  0.00610  0.95050  1.0000 0.604234531
C   C56       1.0  0.80990  0.50610  0.54950  1.0000 0.604234531
C   C57       1.0  0.31140  0.92730  0.22540  1.0000 -0.1505666418
C   C58       1.0  0.68860  0.42730  0.27460  1.0000 -0.1505666418
C   C59       1.0  0.68860  0.07270  0.77460  1.0000 -0.1505666418
C   C60       1.0  0.31140  0.57270  0.72540  1.0000 -0.1505666418
C   C61       1.0  0.25090  0.86080  0.24600  1.0000 -0.1051370805
C   C62       1.0  0.74910  0.36080  0.25400  1.0000 -0.1051370805
C   C63       1.0  0.74910  0.13920  0.75400  1.0000 -0.1051370805
C   C64       1.0  0.25090  0.63920  0.74600  1.0000 -0.1051370805
C   C65       1.0  0.29430  0.78530  0.28710  1.0000 -0.0991133876
C   C66       1.0  0.70570  0.28530  0.21290  1.0000 -0.0991133876
C   C67       1.0  0.70570  0.21470  0.71290  1.0000 -0.0991133876
C   C68       1.0  0.29430  0.71470  0.78710  1.0000 -0.0991133876
C   C69       1.0  0.39930  0.77720  0.30990  1.0000 -0.0123102412
C   C70       1.0  0.60070  0.27720  0.19010  1.0000 -0.0123102412
C   C71       1.0  0.60070  0.22280  0.69010  1.0000 -0.0123102412
C   C72       1.0  0.39930  0.72280  0.80990  1.0000 -0.0123102412
C   C73       1.0  0.46010  0.84420  0.28850  1.0000 -0.0991133876
C   C74       1.0  0.53990  0.34420  0.21150  1.0000 -0.0991133876
C   C75       1.0  0.53990  0.15580  0.71150  1.0000 -0.0991133876
C   C76       1.0  0.46010  0.65580  0.78850  1.0000 -0.0991133876
C   C77       1.0  0.41730  0.91700  0.24620  1.0000 -0.0910566641
C   C78       1.0  0.58270  0.41700  0.25380  1.0000 -0.0910566641
C   C79       1.0  0.58270  0.08300  0.75380  1.0000 -0.0910566641
C   C80       1.0  0.41730  0.58300  0.74620  1.0000 -0.0910566641
C   C81       1.0  0.44710  0.69980  0.35920  1.0000 0.607279315
C   C82       1.0  0.55290  0.19980  0.14080  1.0000 0.607279315
C   C83       1.0  0.55290  0.30020  0.64080  1.0000 0.607279315
C   C84       1.0  0.44710  0.80020  0.85920  1.0000 0.607279315
O   O1        1.0  0.32120  0.06230  0.13157  1.0000 -0.7384439564
O   O2        1.0  0.67880  0.56230  0.36843  1.0000 -0.7384439564
O   O3        1.0  0.67880  0.93770  0.86843  1.0000 -0.7384439564
O   O4        1.0  0.32120  0.43770  0.63157  1.0000 -0.7384439564
O   O5        1.0  0.37150  0.41690  0.39263  1.0000 -0.6183805769
O   O6        1.0  0.62850  0.91690  0.10737  1.0000 -0.6183805769
O   O7        1.0  0.62850  0.58310  0.60737  1.0000 -0.6183805769
O   O8        1.0  0.37150  0.08310  0.89263  1.0000 -0.6183805769
O   O9        1.0  0.36950  0.29700  0.46473  1.0000 -0.6600591039
O   O10       1.0  0.63050  0.79700  0.03527  1.0000 -0.6654388761
O   O11       1.0  0.63050  0.70300  0.53527  1.0000 -0.6654388761
O   O12       1.0  0.36950  0.20300  0.96473  1.0000 -0.6654388761
O   O13       1.0  0.78570  0.92260  0.01136  1.0000 -0.6600591039
O   O14       1.0  0.21430  0.42260  0.48864  1.0000 -0.6600591039
O   O15       1.0  0.21430  0.07740  0.98864  1.0000 -0.6600591039
O   O16       1.0  0.78570  0.57740  0.51136  1.0000 -0.6600591039
O   O17       1.0  0.75180  0.05580  0.06207  1.0000 -0.6271671659
O   O18       1.0  0.24820  0.55580  0.43793  1.0000 -0.6271671659
O   O19       1.0  0.24820  0.94420  0.93793  1.0000 -0.6271671659
O   O20       1.0  0.75180  0.44420  0.56207  1.0000 -0.6271671659
O   O21       1.0  0.39160  0.62910  0.36522  1.0000 -0.6499303138
O   O22       1.0  0.60840  0.12910  0.13478  1.0000 -0.6499303138
O   O23       1.0  0.60840  0.37090  0.63478  1.0000 -0.6440698957
O   O24       1.0  0.39160  0.87090  0.86522  1.0000 -0.6440698957
O   O25       1.0  0.53840  0.71430  0.38969  1.0000 -0.6499303138
O   O26       1.0  0.46160  0.21430  0.11031  1.0000 -0.6499303138
O   O27       1.0  0.46160  0.28570  0.61031  1.0000 -0.6499303138
O   O28       1.0  0.53840  0.78570  0.88969  1.0000 -0.6499303138
O   O29       1.0  0.43996  0.02380  0.03977  1.0000 -1.1492432809
O   O30       1.0  0.56004  0.52380  0.46023  1.0000 -1.1492432809
O   O31       1.0  0.56004  0.97620  0.96023  1.0000 -1.1492432809
O   O32       1.0  0.43996  0.47620  0.53977  1.0000 -1.1492432809
