# DDEC6 charges by PACMAN v1.1 (https://github.com/mtap-research/PACMAN-charge/)
data_2011[Zn][uni]3[ASR]3
_chemical_formula_sum              "Zn6 H90 C66 N12 Cl6 O12"
_cell_length_a       17.703
_cell_length_b       17.703
_cell_length_c       10.585
_cell_angle_alpha    90
_cell_angle_beta     90
_cell_angle_gamma    120

_symmetry_space_group_name_H-M    "P 1"
_symmetry_Int_Tables_number       1

loop_
  _symmetry_equiv_pos_as_xyz
  'x, y, z'

loop_
  _atom_site_type_symbol
  _atom_site_label
  _atom_site_symmetry_multiplicity
  _atom_site_fract_x
  _atom_site_fract_y
  _atom_site_fract_z
  _atom_site_occupancy
  _atom_site_charge
Zn  Zn1       1.0  0.45986  0.53095  0.98054  1.0000 0.7155155881
Zn  Zn2       1.0  0.92891  0.45986  0.81387  1.0000 0.7155155881
Zn  Zn3       1.0  0.46905  0.92891  0.64721  1.0000 0.7155155881
Zn  Zn4       1.0  0.54014  0.46905  0.48054  1.0000 0.7155155881
Zn  Zn5       1.0  0.07109  0.54014  0.31387  1.0000 0.7155155881
Zn  Zn6       1.0  0.53095  0.07109  0.14721  1.0000 0.7155155881
H   H1        1.0  0.53100  0.44970  0.07230  1.0000 0.2506226643
H   H2        1.0  0.08130  0.53100  0.90563  1.0000 0.2506226643
H   H3        1.0  0.55030  0.08130  0.73897  1.0000 0.2506226643
H   H4        1.0  0.46900  0.55030  0.57230  1.0000 0.2506226643
H   H5        1.0  0.91870  0.46900  0.40563  1.0000 0.2506226643
H   H6        1.0  0.44970  0.91870  0.23897  1.0000 0.2506226643
H   H7        1.0  0.38180  0.33590  0.94510  1.0000 0.119845255
H   H8        1.0  0.04590  0.38180  0.77843  1.0000 0.119845255
H   H9        1.0  0.66410  0.04590  0.61177  1.0000 0.119845255
H   H10       1.0  0.61820  0.66410  0.44510  1.0000 0.119845255
H   H11       1.0  0.95410  0.61820  0.27843  1.0000 0.119845255
H   H12       1.0  0.33590  0.95410  0.11177  1.0000 0.119845255
H   H13       1.0  0.38330  0.35710  0.08920  1.0000 0.141071437
H   H14       1.0  0.02620  0.38330  0.92253  1.0000 0.141071437
H   H15       1.0  0.64290  0.02620  0.75587  1.0000 0.141071437
H   H16       1.0  0.61670  0.64290  0.58920  1.0000 0.141071437
H   H17       1.0  0.97380  0.61670  0.42253  1.0000 0.141071437
H   H18       1.0  0.35710  0.97380  0.25587  1.0000 0.141071437
H   H19       1.0  0.49350  0.32810  0.22490  1.0000 0.141071437
H   H20       1.0  0.16540  0.49350  0.05823  1.0000 0.141071437
H   H21       1.0  0.67190  0.16540  0.89157  1.0000 0.141071437
H   H22       1.0  0.50650  0.67190  0.72490  1.0000 0.141071437
H   H23       1.0  0.83460  0.50650  0.55823  1.0000 0.141071437
H   H24       1.0  0.32810  0.83460  0.39157  1.0000 0.141071437
H   H25       1.0  0.38650  0.20470  0.89750  1.0000 0.141071437
H   H26       1.0  0.18180  0.38650  0.73083  1.0000 0.141071437
H   H27       1.0  0.79530  0.18180  0.56417  1.0000 0.141071437
H   H28       1.0  0.61350  0.79530  0.39750  1.0000 0.141071437
H   H29       1.0  0.81820  0.61350  0.23083  1.0000 0.141071437
H   H30       1.0  0.20470  0.81820  0.06417  1.0000 0.141071437
H   H31       1.0  0.42750  0.10480  0.94900  1.0000 0.119845255
H   H32       1.0  0.32270  0.42750  0.78233  1.0000 0.119845255
H   H33       1.0  0.89520  0.32270  0.61567  1.0000 0.119845255
H   H34       1.0  0.57250  0.89520  0.44900  1.0000 0.119845255
H   H35       1.0  0.67730  0.57250  0.28233  1.0000 0.119845255
H   H36       1.0  0.10480  0.67730  0.11567  1.0000 0.119845255
H   H37       1.0  0.53400  0.22600  0.26430  1.0000 0.119845255
H   H38       1.0  0.30800  0.53400  0.09763  1.0000 0.119845255
H   H39       1.0  0.77400  0.30800  0.93097  1.0000 0.119845255
H   H40       1.0  0.46600  0.77400  0.76430  1.0000 0.119845255
H   H41       1.0  0.69200  0.46600  0.59763  1.0000 0.119845255
H   H42       1.0  0.22600  0.69200  0.43097  1.0000 0.119845255
H   H43       1.0  0.52980  0.37520  0.87060  1.0000 0.1090418521
H   H44       1.0  0.15460  0.52980  0.70393  1.0000 0.1090418521
H   H45       1.0  0.62480  0.15460  0.53727  1.0000 0.1090418521
H   H46       1.0  0.47020  0.62480  0.37060  1.0000 0.1090418521
H   H47       1.0  0.84540  0.47020  0.20393  1.0000 0.1090418521
H   H48       1.0  0.37520  0.84540  0.03727  1.0000 0.1090418521
H   H49       1.0  0.67590  0.48110  0.83870  1.0000 0.0906602361
H   H50       1.0  0.19480  0.67590  0.67203  1.0000 0.0906602361
H   H51       1.0  0.51890  0.19480  0.50537  1.0000 0.0906602361
H   H52       1.0  0.32410  0.51890  0.33870  1.0000 0.0906602361
H   H53       1.0  0.80520  0.32410  0.17203  1.0000 0.0906602361
H   H54       1.0  0.48110  0.80520  0.00537  1.0000 0.0906602361
H   H55       1.0  0.64300  0.42510  0.09240  1.0000 0.119845255
H   H56       1.0  0.21790  0.64300  0.92573  1.0000 0.119845255
H   H57       1.0  0.57490  0.21790  0.75907  1.0000 0.119845255
H   H58       1.0  0.35700  0.57490  0.59240  1.0000 0.119845255
H   H59       1.0  0.78210  0.35700  0.42573  1.0000 0.119845255
H   H60       1.0  0.42510  0.78210  0.25907  1.0000 0.119845255
H   H61       1.0  0.73240  0.45730  0.02360  1.0000 0.141071437
H   H62       1.0  0.27510  0.73240  0.85693  1.0000 0.141071437
H   H63       1.0  0.54270  0.27510  0.69027  1.0000 0.141071437
H   H64       1.0  0.26760  0.54270  0.52360  1.0000 0.141071437
H   H65       1.0  0.72490  0.26760  0.35693  1.0000 0.141071437
H   H66       1.0  0.45730  0.72490  0.19027  1.0000 0.141071437
H   H67       1.0  0.64960  0.37080  0.98040  1.0000 0.1315499191
H   H68       1.0  0.27880  0.64960  0.81373  1.0000 0.1315499191
H   H69       1.0  0.62920  0.27880  0.64707  1.0000 0.1315499191
H   H70       1.0  0.35040  0.62920  0.48040  1.0000 0.1315499191
H   H71       1.0  0.72120  0.35040  0.31373  1.0000 0.1315499191
H   H72       1.0  0.37080  0.72120  0.14707  1.0000 0.1315499191
H   H73       1.0  0.65370  0.57770  0.02920  1.0000 0.1090418521
H   H74       1.0  0.07600  0.65370  0.86253  1.0000 0.1090418521
H   H75       1.0  0.42230  0.07600  0.69587  1.0000 0.1090418521
H   H76       1.0  0.34630  0.42230  0.52920  1.0000 0.1090418521
H   H77       1.0  0.92400  0.34630  0.36253  1.0000 0.1090418521
H   H78       1.0  0.57770  0.92400  0.19587  1.0000 0.1090418521
H   H79       1.0  0.68110  0.60730  0.88900  1.0000 0.1315499191
H   H80       1.0  0.07380  0.68110  0.72233  1.0000 0.1315499191
H   H81       1.0  0.39270  0.07380  0.55567  1.0000 0.1315499191
H   H82       1.0  0.31890  0.39270  0.38900  1.0000 0.1315499191
H   H83       1.0  0.92620  0.31890  0.22233  1.0000 0.1315499191
H   H84       1.0  0.60730  0.92620  0.05567  1.0000 0.1315499191
H   H85       1.0  0.74560  0.59810  0.98070  1.0000 0.1315499191
H   H86       1.0  0.14750  0.74560  0.81403  1.0000 0.1315499191
H   H87       1.0  0.40190  0.14750  0.64737  1.0000 0.1315499191
H   H88       1.0  0.25440  0.40190  0.48070  1.0000 0.1315499191
H   H89       1.0  0.85250  0.25440  0.31403  1.0000 0.1315499191
H   H90       1.0  0.59810  0.85250  0.14737  1.0000 0.1315499191
C   C1        1.0  0.53190  0.47810  0.77520  1.0000 0.5677523756
C   C2        1.0  0.05380  0.53190  0.60853  1.0000 0.5677523756
C   C3        1.0  0.52190  0.05380  0.44187  1.0000 0.5677523756
C   C4        1.0  0.46810  0.52190  0.27520  1.0000 0.5677523756
C   C5        1.0  0.94620  0.46810  0.10853  1.0000 0.5677523756
C   C6        1.0  0.47810  0.94620  0.94187  1.0000 0.5677523756
C   C7        1.0  0.41700  0.35150  0.02130  1.0000 -0.1564381973
C   C8        1.0  0.06550  0.41700  0.85463  1.0000 -0.1564381973
C   C9        1.0  0.64850  0.06550  0.68797  1.0000 -0.1564381973
C   C10       1.0  0.58300  0.64850  0.52130  1.0000 -0.1564381973
C   C11       1.0  0.93450  0.58300  0.35463  1.0000 -0.1564381973
C   C12       1.0  0.35150  0.93450  0.18797  1.0000 -0.1564381973
C   C13       1.0  0.43530  0.27920  0.05320  1.0000 0.1484130367
C   C14       1.0  0.15610  0.43530  0.88653  1.0000 0.1484130367
C   C15       1.0  0.72080  0.15610  0.71987  1.0000 0.1484130367
C   C16       1.0  0.56470  0.72080  0.55320  1.0000 0.1484130367
C   C17       1.0  0.84390  0.56470  0.38653  1.0000 0.1484130367
C   C18       1.0  0.27920  0.84390  0.21987  1.0000 0.1484130367
C   C19       1.0  0.48020  0.28370  0.16690  1.0000 -0.1773615113
C   C20       1.0  0.19650  0.48020  0.00023  1.0000 -0.1773615113
C   C21       1.0  0.71630  0.19650  0.83357  1.0000 -0.1773615113
C   C22       1.0  0.51980  0.71630  0.66690  1.0000 -0.1773615113
C   C23       1.0  0.80350  0.51980  0.50023  1.0000 -0.1773615113
C   C24       1.0  0.28370  0.80350  0.33357  1.0000 -0.1773615113
C   C25       1.0  0.41620  0.21060  0.97260  1.0000 -0.2059411363
C   C26       1.0  0.20560  0.41620  0.80593  1.0000 -0.2059411363
C   C27       1.0  0.78940  0.20560  0.63927  1.0000 -0.2059411363
C   C28       1.0  0.58380  0.78940  0.47260  1.0000 -0.2059411363
C   C29       1.0  0.79440  0.58380  0.30593  1.0000 -0.2059411363
C   C30       1.0  0.21060  0.79440  0.13927  1.0000 -0.2059411363
C   C31       1.0  0.44160  0.15070  0.00450  1.0000 0.0801696213
C   C32       1.0  0.29090  0.44160  0.83783  1.0000 0.0801696213
C   C33       1.0  0.84930  0.29090  0.67117  1.0000 0.0801696213
C   C34       1.0  0.55840  0.84930  0.50450  1.0000 0.0801696213
C   C35       1.0  0.70910  0.55840  0.33783  1.0000 0.0801696213
C   C36       1.0  0.15070  0.70910  0.17117  1.0000 0.0801696213
C   C37       1.0  0.50380  0.22180  0.19030  1.0000 0.0727840557
C   C38       1.0  0.28200  0.50380  0.02363  1.0000 0.0727840557
C   C39       1.0  0.77820  0.28200  0.85697  1.0000 0.0727840557
C   C40       1.0  0.49620  0.77820  0.69030  1.0000 0.0727840557
C   C41       1.0  0.71800  0.49620  0.52363  1.0000 0.0727840557
C   C42       1.0  0.22180  0.71800  0.35697  1.0000 0.0727840557
C   C43       1.0  0.54990  0.43630  0.89150  1.0000 -0.0875405476
C   C44       1.0  0.11360  0.54990  0.72483  1.0000 -0.0875405476
C   C45       1.0  0.56370  0.11360  0.55817  1.0000 -0.0875405476
C   C46       1.0  0.45010  0.56370  0.39150  1.0000 -0.0875405476
C   C47       1.0  0.88640  0.45010  0.22483  1.0000 -0.0875405476
C   C48       1.0  0.43630  0.88640  0.05817  1.0000 -0.0875405476
C   C49       1.0  0.64770  0.48050  0.91870  1.0000 0.1090418521
C   C50       1.0  0.16720  0.64770  0.75203  1.0000 0.104688321
C   C51       1.0  0.51950  0.16720  0.58537  1.0000 0.1090418521
C   C52       1.0  0.35230  0.51950  0.41870  1.0000 0.1090418521
C   C53       1.0  0.83280  0.35230  0.25203  1.0000 0.1090418521
C   C54       1.0  0.48050  0.83280  0.08537  1.0000 0.1090418521
C   C55       1.0  0.67030  0.42850  0.01260  1.0000 -0.4436119751
C   C56       1.0  0.24180  0.67030  0.84593  1.0000 -0.4436119751
C   C57       1.0  0.57150  0.24180  0.67927  1.0000 -0.4436119751
C   C58       1.0  0.32970  0.57150  0.51260  1.0000 -0.4436119751
C   C59       1.0  0.75820  0.32970  0.34593  1.0000 -0.4436119751
C   C60       1.0  0.42850  0.75820  0.17927  1.0000 -0.4436119751
C   C61       1.0  0.68550  0.57440  0.95800  1.0000 -0.4216642783
C   C62       1.0  0.11110  0.68550  0.79133  1.0000 -0.4216642783
C   C63       1.0  0.42560  0.11110  0.62467  1.0000 -0.4216642783
C   C64       1.0  0.31450  0.42560  0.45800  1.0000 -0.4216642783
C   C65       1.0  0.88890  0.31450  0.29133  1.0000 -0.4216642783
C   C66       1.0  0.57440  0.88890  0.12467  1.0000 -0.4216642783
N   N1        1.0  0.48480  0.15450  0.10900  1.0000 -0.2331501599
N   N2        1.0  0.33030  0.48480  0.94233  1.0000 -0.2331501599
N   N3        1.0  0.84550  0.33030  0.77567  1.0000 -0.2331501599
N   N4        1.0  0.51520  0.84550  0.60900  1.0000 -0.2331501599
N   N5        1.0  0.66970  0.51520  0.44233  1.0000 -0.2331501599
N   N6        1.0  0.15450  0.66970  0.27567  1.0000 -0.2331501599
N   N7        1.0  0.49740  0.43680  0.00160  1.0000 -0.3137372589
N   N8        1.0  0.06060  0.49740  0.83493  1.0000 -0.3137372589
N   N9        1.0  0.56320  0.06060  0.66827  1.0000 -0.3137372589
N   N10       1.0  0.50260  0.56320  0.50160  1.0000 -0.3137372589
N   N11       1.0  0.93940  0.50260  0.33493  1.0000 -0.3137372589
N   N12       1.0  0.43680  0.93940  0.16827  1.0000 -0.3137372589
Cl  Cl1       1.0  0.54560  0.67676  0.97990  1.0000 -0.5697153266
Cl  Cl2       1.0  0.86884  0.54560  0.81323  1.0000 -0.5697153266
Cl  Cl3       1.0  0.32324  0.86884  0.64657  1.0000 -0.5697153266
Cl  Cl4       1.0  0.45440  0.32324  0.47990  1.0000 -0.5697153266
Cl  Cl5       1.0  0.13116  0.45440  0.31323  1.0000 -0.5697153266
Cl  Cl6       1.0  0.67676  0.13116  0.14657  1.0000 -0.5697153266
O   O1        1.0  0.56620  0.47250  0.67470  1.0000 -0.5407368398
O   O2        1.0  0.09370  0.56620  0.50803  1.0000 -0.5407368398
O   O3        1.0  0.52750  0.09370  0.34137  1.0000 -0.5407368398
O   O4        1.0  0.43380  0.52750  0.17470  1.0000 -0.5407368398
O   O5        1.0  0.90630  0.43380  0.00803  1.0000 -0.5407368398
O   O6        1.0  0.47250  0.90630  0.84137  1.0000 -0.5407368398
O   O7        1.0  0.48510  0.51180  0.78630  1.0000 -0.5407368398
O   O8        1.0  0.97330  0.48510  0.61963  1.0000 -0.5407368398
O   O9        1.0  0.48820  0.97330  0.45297  1.0000 -0.5407368398
O   O10       1.0  0.51490  0.48820  0.28630  1.0000 -0.5407368398
O   O11       1.0  0.02670  0.51490  0.11963  1.0000 -0.5407368398
O   O12       1.0  0.51180  0.02670  0.95297  1.0000 -0.5407368398
