# DDEC6 charges by PACMAN v1.1 (https://github.com/mtap-research/PACMAN-charge/)
data_2011[Sc][nan]3[ASR]3
_chemical_formula_sum              "Sc4 H24 C48 O24"
_cell_length_a       8.7543
_cell_length_b       11.1454
_cell_length_c       17.7411
_cell_angle_alpha    95.1832
_cell_angle_beta     104.284
_cell_angle_gamma    68.521

_symmetry_space_group_name_H-M    "P 1"
_symmetry_Int_Tables_number       1

loop_
  _symmetry_equiv_pos_as_xyz
  'x, y, z'

loop_
  _atom_site_type_symbol
  _atom_site_label
  _atom_site_symmetry_multiplicity
  _atom_site_fract_x
  _atom_site_fract_y
  _atom_site_fract_z
  _atom_site_occupancy
  _atom_site_charge
Sc  Sc1       1.0  0.36604  0.25000  0.73208  1.0000 1.8057106852
Sc  Sc2       1.0  0.63396  0.75000  0.26792  1.0000 1.8057106852
Sc  Sc3       1.0  0.88714  0.25000  0.77428  1.0000 1.8057106852
Sc  Sc4       1.0  0.11286  0.75000  0.22572  1.0000 1.8057106852
H   H1        1.0  0.17678  0.64214  0.74055  1.0000 0.1001298315
H   H2        1.0  0.69780  0.61481  0.74607  1.0000 0.1001298315
H   H3        1.0  0.58807  0.10095  0.90537  1.0000 0.1001298315
H   H4        1.0  0.19137  0.06833  0.99605  1.0000 0.1001298315
H   H5        1.0  0.26036  0.44391  0.52088  1.0000 0.1001298315
H   H6        1.0  0.75886  0.46391  0.60833  1.0000 0.0918483778
H   H7        1.0  0.56377  0.85786  0.74055  1.0000 0.1001298315
H   H8        1.0  0.04839  0.88509  0.74606  1.0000 0.1001298315
H   H9        1.0  0.31730  0.39905  0.90537  1.0000 0.1001298315
H   H10       1.0  0.80468  0.43167  0.99605  1.0000 0.1001298315
H   H11       1.0  0.26053  0.05609  0.52088  1.0000 0.1001298315
H   H12       1.0  0.84946  0.03609  0.60833  1.0000 0.0918483778
H   H13       1.0  0.82322  0.35786  0.25945  1.0000 0.1001298315
H   H14       1.0  0.30220  0.38519  0.25393  1.0000 0.1001298315
H   H15       1.0  0.41193  0.89905  0.09463  1.0000 0.1001298315
H   H16       1.0  0.80810  0.93253  0.00301  1.0000 0.1001298315
H   H17       1.0  0.74021  0.55576  0.47953  1.0000 0.1001298315
H   H18       1.0  0.24114  0.53609  0.39167  1.0000 0.0918483778
H   H19       1.0  0.43623  0.14214  0.25945  1.0000 0.1001298315
H   H20       1.0  0.95174  0.11481  0.25393  1.0000 0.1001298315
H   H21       1.0  0.68438  0.60024  0.09409  1.0000 0.1001298315
H   H22       1.0  0.19532  0.56833  0.00395  1.0000 0.1001298315
H   H23       1.0  0.73947  0.94391  0.47912  1.0000 0.1001298315
H   H24       1.0  0.15113  0.96426  0.39192  1.0000 0.0918483778
C   C1        1.0  0.02322  0.47815  0.74964  1.0000 0.6312438368
C   C2        1.0  0.95046  0.61758  0.75680  1.0000 -0.0642109991
C   C3        1.0  0.04247  0.69110  0.74860  1.0000 -0.0695694093
C   C4        1.0  0.77912  0.67608  0.75020  1.0000 -0.0786709245
C   C5        1.0  0.25855  0.13890  0.87096  1.0000 0.6312438368
C   C6        1.0  0.38317  0.06120  0.93502  1.0000 -0.0695694093
C   C7        1.0  0.55016  0.04792  0.94540  1.0000 -0.0786709245
C   C8        1.0  0.33101  0.02990  0.99550  1.0000 -0.0695694093
C   C9        1.0  0.54571  0.35720  0.63268  1.0000 0.6381463974
C   C10       1.0  0.52272  0.42919  0.56408  1.0000 -0.0695694093
C   C11       1.0  0.37125  0.46448  0.50976  1.0000 -0.0695694093
C   C12       1.0  0.64504  0.47547  0.55778  1.0000 -0.0786709245
C   C13       1.0  0.72642  0.02185  0.74964  1.0000 0.6312438368
C   C14       1.0  0.80634  0.88242  0.75680  1.0000 -0.0642109991
C   C15       1.0  0.70613  0.80890  0.74860  1.0000 -0.0695694093
C   C16       1.0  0.97108  0.82392  0.75020  1.0000 -0.0786709245
C   C17       1.0  0.61241  0.36110  0.87096  1.0000 0.6312438368
C   C18       1.0  0.55185  0.43880  0.93502  1.0000 -0.0695694093
C   C19       1.0  0.39524  0.45208  0.94540  1.0000 -0.0786709245
C   C20       1.0  0.66449  0.47010  0.99550  1.0000 -0.0695694093
C   C21       1.0  0.08697  0.14280  0.63268  1.0000 0.6381463974
C   C22       1.0  0.04136  0.07081  0.56408  1.0000 -0.0695694093
C   C23       1.0  0.13851  0.03552  0.50976  1.0000 -0.0695694093
C   C24       1.0  0.91274  0.02453  0.55778  1.0000 -0.0786709245
C   C25       1.0  0.97678  0.52185  0.25036  1.0000 0.6312438368
C   C26       1.0  0.04954  0.38242  0.24320  1.0000 -0.0642109991
C   C27       1.0  0.95753  0.30890  0.25140  1.0000 -0.0695694093
C   C28       1.0  0.22088  0.32392  0.24980  1.0000 -0.0786709245
C   C29       1.0  0.74145  0.86110  0.12904  1.0000 0.6312438368
C   C30       1.0  0.61683  0.93880  0.06498  1.0000 -0.0695694093
C   C31       1.0  0.44984  0.95208  0.05460  1.0000 -0.0786709245
C   C32       1.0  0.66899  0.97010  0.00450  1.0000 -0.0695694093
C   C33       1.0  0.45429  0.64280  0.36732  1.0000 0.6381463974
C   C34       1.0  0.47728  0.57081  0.43592  1.0000 -0.0695694093
C   C35       1.0  0.62875  0.53552  0.49024  1.0000 -0.0695694093
C   C36       1.0  0.35496  0.52453  0.44222  1.0000 -0.0786709245
C   C37       1.0  0.27358  0.97815  0.25036  1.0000 0.6312438368
C   C38       1.0  0.19366  0.11758  0.24320  1.0000 -0.0642109991
C   C39       1.0  0.29387  0.19110  0.25140  1.0000 -0.0695694093
C   C40       1.0  0.02892  0.17608  0.24980  1.0000 -0.0786709245
C   C41       1.0  0.38759  0.63890  0.12904  1.0000 0.6312438368
C   C42       1.0  0.44815  0.56120  0.06498  1.0000 -0.0695694093
C   C43       1.0  0.60476  0.54792  0.05460  1.0000 -0.0786709245
C   C44       1.0  0.33551  0.52990  0.00450  1.0000 -0.0695694093
C   C45       1.0  0.91303  0.85720  0.36732  1.0000 0.6381463974
C   C46       1.0  0.95864  0.92919  0.43592  1.0000 -0.0695694093
C   C47       1.0  0.86149  0.96448  0.49024  1.0000 -0.0695694093
C   C48       1.0  0.08726  0.97547  0.44222  1.0000 -0.0786709245
O   O1        1.0  0.16167  0.42320  0.73074  1.0000 -0.6090856374
O   O2        1.0  0.96602  0.40591  0.77484  1.0000 -0.6184203506
O   O3        1.0  0.29321  0.18076  0.81662  1.0000 -0.6184203506
O   O4        1.0  0.10364  0.16140  0.86074  1.0000 -0.5771985084
O   O5        1.0  0.43181  0.32356  0.64450  1.0000 -0.5955189646
O   O6        1.0  0.67188  0.34010  0.68844  1.0000 -0.6321276606
O   O7        1.0  0.56907  0.07680  0.73074  1.0000 -0.6090856374
O   O8        1.0  0.80882  0.09409  0.77484  1.0000 -0.6184203506
O   O9        1.0  0.52341  0.31924  0.81662  1.0000 -0.6184203506
O   O10       1.0  0.75710  0.33860  0.86074  1.0000 -0.5771985084
O   O11       1.0  0.21269  0.17644  0.64450  1.0000 -0.5955189646
O   O12       1.0  0.01656  0.15990  0.68844  1.0000 -0.6321276606
O   O13       1.0  0.83833  0.57680  0.26926  1.0000 -0.6090856374
O   O14       1.0  0.03398  0.59409  0.22516  1.0000 -0.6184203506
O   O15       1.0  0.70679  0.81924  0.18338  1.0000 -0.6184203506
O   O16       1.0  0.89636  0.83860  0.13926  1.0000 -0.5771985084
O   O17       1.0  0.56819  0.67644  0.35550  1.0000 -0.5955189646
O   O18       1.0  0.32812  0.65990  0.31156  1.0000 -0.6321276606
O   O19       1.0  0.43093  0.92320  0.26926  1.0000 -0.6090856374
O   O20       1.0  0.19118  0.90591  0.22516  1.0000 -0.6184203506
O   O21       1.0  0.47659  0.68076  0.18338  1.0000 -0.6184203506
O   O22       1.0  0.24290  0.66140  0.13926  1.0000 -0.5771985084
O   O23       1.0  0.78731  0.82356  0.35550  1.0000 -0.5955189646
O   O24       1.0  0.98344  0.84010  0.31156  1.0000 -0.6321276606
