# DDEC6 charges by PACMAN v1.1 (https://github.com/mtap-research/PACMAN-charge/)
data_2011[U][nan]3[ASR]1
_chemical_formula_sum              "U6 P8 H16 C24 O24 F2"
_cell_length_a       8.5409
_cell_length_b       19.1605
_cell_length_c       11.3037
_cell_angle_alpha    90
_cell_angle_beta     110.327
_cell_angle_gamma    90

_symmetry_space_group_name_H-M    "P 1"
_symmetry_Int_Tables_number       1

loop_
  _symmetry_equiv_pos_as_xyz
  'x, y, z'

loop_
  _atom_site_type_symbol
  _atom_site_label
  _atom_site_symmetry_multiplicity
  _atom_site_fract_x
  _atom_site_fract_y
  _atom_site_fract_z
  _atom_site_occupancy
  _atom_site_charge
U   U1        1.0  0.92295  0.25000  0.71975  1.0000 2.3449741485
U   U2        1.0  0.07705  0.75000  0.28025  1.0000 2.3242572429
U   U3        1.0  0.22773  0.49209  0.98384  1.0000 2.242402065
U   U4        1.0  0.77227  0.99209  0.01616  1.0000 2.2504989984
U   U5        1.0  0.77227  0.50791  0.01616  1.0000 2.2504989984
U   U6        1.0  0.22773  0.00791  0.98384  1.0000 2.242402065
P   P1        1.0  0.23403  0.38445  0.70954  1.0000 1.3158343913
P   P2        1.0  0.76597  0.88445  0.29046  1.0000 1.3123603942
P   P3        1.0  0.76597  0.61555  0.29046  1.0000 1.3123603942
P   P4        1.0  0.23403  0.11555  0.70954  1.0000 1.3158343913
P   P5        1.0  0.19895  0.56391  0.22512  1.0000 1.2822784068
P   P6        1.0  0.80105  0.06391  0.77488  1.0000 1.2822784068
P   P7        1.0  0.80105  0.43609  0.77488  1.0000 1.2822784068
P   P8        1.0  0.19895  0.93609  0.22512  1.0000 1.2822784068
H   H1        1.0  0.17840  0.35210  0.44910  1.0000 0.1127863707
H   H2        1.0  0.82160  0.85210  0.55090  1.0000 0.1127863707
H   H3        1.0  0.82160  0.64790  0.55090  1.0000 0.1127863707
H   H4        1.0  0.17840  0.14790  0.44910  1.0000 0.1127863707
H   H5        1.0  0.16840  0.41680  0.27260  1.0000 0.0795797141
H   H6        1.0  0.83160  0.91680  0.72740  1.0000 0.0795797141
H   H7        1.0  0.83160  0.58320  0.72740  1.0000 0.0795797141
H   H8        1.0  0.16840  0.08320  0.27260  1.0000 0.0795797141
H   H9        1.0  0.24520  0.59420  0.48040  1.0000 0.101547792
H   H10       1.0  0.75480  0.09420  0.51960  1.0000 0.101547792
H   H11       1.0  0.75480  0.40580  0.51960  1.0000 0.101547792
H   H12       1.0  0.24520  0.90580  0.48040  1.0000 0.101547792
H   H13       1.0  0.25570  0.52910  0.65800  1.0000 0.101547792
H   H14       1.0  0.74430  0.02910  0.34200  1.0000 0.101547792
H   H15       1.0  0.74430  0.47090  0.34200  1.0000 0.101547792
H   H16       1.0  0.25570  0.97090  0.65800  1.0000 0.101547792
C   C1        1.0  0.22020  0.43397  0.57150  1.0000 -0.2009972004
C   C2        1.0  0.77980  0.93397  0.42850  1.0000 -0.2009972004
C   C3        1.0  0.77980  0.56603  0.42850  1.0000 -0.2009972004
C   C4        1.0  0.22020  0.06603  0.57150  1.0000 -0.2009972004
C   C5        1.0  0.19310  0.40130  0.45580  1.0000 -0.1100156499
C   C6        1.0  0.80690  0.90130  0.54420  1.0000 -0.1100156499
C   C7        1.0  0.80690  0.59870  0.54420  1.0000 -0.1100156499
C   C8        1.0  0.19310  0.09870  0.45580  1.0000 -0.1100156499
C   C9        1.0  0.18730  0.43960  0.35100  1.0000 -0.1100156499
C   C10       1.0  0.81270  0.93960  0.64900  1.0000 -0.1100156499
C   C11       1.0  0.81270  0.56040  0.64900  1.0000 -0.1100156499
C   C12       1.0  0.18730  0.06040  0.35100  1.0000 -0.1100156499
C   C13       1.0  0.20920  0.51216  0.35980  1.0000 -0.2009972004
C   C14       1.0  0.79080  0.01216  0.64020  1.0000 -0.2009972004
C   C15       1.0  0.79080  0.48784  0.64020  1.0000 -0.2009972004
C   C16       1.0  0.20920  0.98784  0.35980  1.0000 -0.2009972004
C   C17       1.0  0.23290  0.54500  0.47420  1.0000 -0.1004466271
C   C18       1.0  0.76710  0.04500  0.52580  1.0000 -0.1004466271
C   C19       1.0  0.76710  0.45500  0.52580  1.0000 -0.1004466271
C   C20       1.0  0.23290  0.95500  0.47420  1.0000 -0.1004466271
C   C21       1.0  0.23890  0.50620  0.58000  1.0000 -0.1100156499
C   C22       1.0  0.76110  0.00620  0.42000  1.0000 -0.1100156499
C   C23       1.0  0.76110  0.49380  0.42000  1.0000 -0.1100156499
C   C24       1.0  0.23890  0.99380  0.58000  1.0000 -0.1100156499
O   O1        1.0  0.11540  0.32404  0.67570  1.0000 -0.8971670983
O   O2        1.0  0.88460  0.82404  0.32430  1.0000 -0.8971670983
O   O3        1.0  0.88460  0.67596  0.32430  1.0000 -0.8971670983
O   O4        1.0  0.11540  0.17596  0.67570  1.0000 -0.8971670983
O   O5        1.0  0.21050  0.43581  0.80350  1.0000 -0.9072719334
O   O6        1.0  0.78950  0.93581  0.19650  1.0000 -0.9072719334
O   O7        1.0  0.78950  0.56419  0.19650  1.0000 -0.9072719334
O   O8        1.0  0.21050  0.06419  0.80350  1.0000 -0.9072719334
O   O9        1.0  0.41840  0.35537  0.76310  1.0000 -0.6473668931
O   O10       1.0  0.58160  0.85537  0.23690  1.0000 -0.6444113372
O   O11       1.0  0.58160  0.64463  0.23690  1.0000 -0.6444113372
O   O12       1.0  0.41840  0.14463  0.76310  1.0000 -0.6473668931
O   O13       1.0  0.17410  0.63855  0.25460  1.0000 -0.8779993175
O   O14       1.0  0.82590  0.13855  0.74540  1.0000 -0.8779993175
O   O15       1.0  0.82590  0.36145  0.74540  1.0000 -0.8779993175
O   O16       1.0  0.17410  0.86145  0.25460  1.0000 -0.8779993175
O   O17       1.0  0.05920  0.53312  0.10900  1.0000 -1.0425400851
O   O18       1.0  0.94080  0.03312  0.89100  1.0000 -1.0425400851
O   O19       1.0  0.94080  0.46688  0.89100  1.0000 -1.0425400851
O   O20       1.0  0.05920  0.96688  0.10900  1.0000 -1.0425400851
O   O21       1.0  0.35430  0.55177  0.18750  1.0000 -0.7988919584
O   O22       1.0  0.64570  0.05177  0.81250  1.0000 -0.7988919584
O   O23       1.0  0.64570  0.44823  0.81250  1.0000 -0.7988919584
O   O24       1.0  0.35430  0.94823  0.18750  1.0000 -0.7988919584
F   F1        1.0  0.50000  0.50000  0.00000  1.0000 -0.8066967247
F   F2        1.0  0.50000  0.00000  0.00000  1.0000 -0.8066967247
