# DDEC6 charges by PACMAN v1.1 (https://github.com/mtap-research/PACMAN-charge/)
data_2011[Zn][nan]3[ASR]20
_chemical_formula_sum              "Zn28 H96 C176 N24 O96"
_cell_length_a       17.479
_cell_length_b       25.117
_cell_length_c       26.607
_cell_angle_alpha    90
_cell_angle_beta     90
_cell_angle_gamma    90

_symmetry_space_group_name_H-M    "P 1"
_symmetry_Int_Tables_number       1

loop_
  _symmetry_equiv_pos_as_xyz
  'x, y, z'

loop_
  _atom_site_type_symbol
  _atom_site_label
  _atom_site_symmetry_multiplicity
  _atom_site_fract_x
  _atom_site_fract_y
  _atom_site_fract_z
  _atom_site_occupancy
  _atom_site_charge
Zn  Zn1       1.0  0.26089  0.07901  0.17102  1.0000 1.0520035855
Zn  Zn2       1.0  0.76089  0.92099  0.82898  1.0000 1.0520035855
Zn  Zn3       1.0  0.26089  0.57901  0.32898  1.0000 1.0520035855
Zn  Zn4       1.0  0.76089  0.42099  0.67102  1.0000 1.0558992259
Zn  Zn5       1.0  0.71967  0.72035  0.19958  1.0000 0.8663592048
Zn  Zn6       1.0  0.21967  0.27965  0.80042  1.0000 0.8626014299
Zn  Zn7       1.0  0.71967  0.22035  0.30042  1.0000 0.8663592048
Zn  Zn8       1.0  0.21967  0.77965  0.69958  1.0000 0.8626014299
Zn  Zn9       1.0  0.56515  0.78971  0.16281  1.0000 0.8663592048
Zn  Zn10      1.0  0.06515  0.21029  0.83719  1.0000 0.8626014299
Zn  Zn11      1.0  0.56515  0.28971  0.33719  1.0000 0.8626014299
Zn  Zn12      1.0  0.06515  0.71029  0.66281  1.0000 0.8663592048
Zn  Zn13      1.0  0.06586  0.72138  0.03833  1.0000 0.8626014299
Zn  Zn14      1.0  0.56586  0.27862  0.96167  1.0000 0.8626014299
Zn  Zn15      1.0  0.06586  0.22138  0.46167  1.0000 0.8626014299
Zn  Zn16      1.0  0.56586  0.77862  0.53833  1.0000 0.8626014299
Zn  Zn17      1.0  0.09869  0.04563  0.09438  1.0000 0.9366651705
Zn  Zn18      1.0  0.59869  0.95437  0.90562  1.0000 0.9366651705
Zn  Zn19      1.0  0.09869  0.54563  0.40562  1.0000 0.9366651705
Zn  Zn20      1.0  0.59869  0.45437  0.59438  1.0000 0.9366651705
Zn  Zn21      1.0  0.22080  0.65112  0.07463  1.0000 0.8663592048
Zn  Zn22      1.0  0.72080  0.34888  0.92537  1.0000 0.8663592048
Zn  Zn23      1.0  0.22080  0.15112  0.42537  1.0000 0.8663592048
Zn  Zn24      1.0  0.72080  0.84888  0.57463  1.0000 0.8663592048
Zn  Zn25      1.0  0.68180  0.39644  0.14663  1.0000 0.7700731835
Zn  Zn26      1.0  0.18180  0.60356  0.85337  1.0000 0.7700731835
Zn  Zn27      1.0  0.68180  0.89644  0.35337  1.0000 0.7700731835
Zn  Zn28      1.0  0.18180  0.10356  0.64663  1.0000 0.7700731835
H   H1        1.0  0.62180  0.56280  0.16390  1.0000 0.1311142031
H   H2        1.0  0.12180  0.43720  0.83610  1.0000 0.1311142031
H   H3        1.0  0.62180  0.06280  0.33610  1.0000 0.1311142031
H   H4        1.0  0.12180  0.93720  0.66390  1.0000 0.1311142031
H   H5        1.0  0.43140  0.50240  0.10800  1.0000 0.1202857693
H   H6        1.0  0.93140  0.49760  0.89200  1.0000 0.1202857693
H   H7        1.0  0.43140  0.00240  0.39200  1.0000 0.1202857693
H   H8        1.0  0.93140  0.99760  0.60800  1.0000 0.1202857693
H   H9        1.0  0.44430  0.65910  0.12880  1.0000 0.1311142031
H   H10       1.0  0.94430  0.34090  0.87120  1.0000 0.1311142031
H   H11       1.0  0.44430  0.15910  0.37120  1.0000 0.1311142031
H   H12       1.0  0.94430  0.84090  0.62880  1.0000 0.1311142031
H   H13       1.0  0.83860  0.76060  0.07540  1.0000 0.1311142031
H   H14       1.0  0.33860  0.23940  0.92460  1.0000 0.1311142031
H   H15       1.0  0.83860  0.26060  0.42460  1.0000 0.1311142031
H   H16       1.0  0.33860  0.73940  0.57540  1.0000 0.1311142031
H   H17       1.0  0.85500  0.83610  0.94180  1.0000 0.1202857693
H   H18       1.0  0.35500  0.16390  0.05820  1.0000 0.1202857693
H   H19       1.0  0.85500  0.33610  0.55820  1.0000 0.1202857693
H   H20       1.0  0.35500  0.66390  0.44180  1.0000 0.1202857693
H   H21       1.0  0.66190  0.84530  0.02420  1.0000 0.1311142031
H   H22       1.0  0.16190  0.15470  0.97580  1.0000 0.1311142031
H   H23       1.0  0.66190  0.34530  0.47580  1.0000 0.1311142031
H   H24       1.0  0.16190  0.65470  0.52420  1.0000 0.1311142031
H   H25       1.0  0.94470  0.67530  0.16030  1.0000 0.1311142031
H   H26       1.0  0.44470  0.32470  0.83970  1.0000 0.1311142031
H   H27       1.0  0.94470  0.17530  0.33970  1.0000 0.1311142031
H   H28       1.0  0.44470  0.82470  0.66030  1.0000 0.1311142031
H   H29       1.0  0.12860  0.60200  0.21790  1.0000 0.1202857693
H   H30       1.0  0.62860  0.39800  0.78210  1.0000 0.1311142031
H   H31       1.0  0.12860  0.10200  0.28210  1.0000 0.1202857693
H   H32       1.0  0.62860  0.89800  0.71790  1.0000 0.1202857693
H   H33       1.0  0.93810  0.61940  0.29930  1.0000 0.1202857693
H   H34       1.0  0.43810  0.38060  0.70070  1.0000 0.1202857693
H   H35       1.0  0.93810  0.11940  0.20070  1.0000 0.1202857693
H   H36       1.0  0.43810  0.88060  0.79930  1.0000 0.1202857693
H   H37       1.0  0.15690  0.87880  0.08660  1.0000 0.1311142031
H   H38       1.0  0.65690  0.12120  0.91340  1.0000 0.1311142031
H   H39       1.0  0.15690  0.37880  0.41340  1.0000 0.1311142031
H   H40       1.0  0.65690  0.62120  0.58660  1.0000 0.1311142031
H   H41       1.0  0.35340  0.93770  0.13750  1.0000 0.1202857693
H   H42       1.0  0.85340  0.06230  0.86250  1.0000 0.1202857693
H   H43       1.0  0.35340  0.43770  0.36250  1.0000 0.1202857693
H   H44       1.0  0.85340  0.56230  0.63750  1.0000 0.1202857693
H   H45       1.0  0.33510  0.78190  0.11040  1.0000 0.1311142031
H   H46       1.0  0.83510  0.21810  0.88960  1.0000 0.1311142031
H   H47       1.0  0.33510  0.28190  0.38960  1.0000 0.1311142031
H   H48       1.0  0.83510  0.71810  0.61040  1.0000 0.1311142031
H   H49       1.0  0.75110  0.74340  0.33060  1.0000 0.1684141352
H   H50       1.0  0.25110  0.25660  0.66940  1.0000 0.1684141352
H   H51       1.0  0.75110  0.24340  0.16940  1.0000 0.1684141352
H   H52       1.0  0.25110  0.75660  0.83060  1.0000 0.1684141352
H   H53       1.0  0.77260  0.80140  0.34700  1.0000 0.1311142031
H   H54       1.0  0.27260  0.19860  0.65300  1.0000 0.1311142031
H   H55       1.0  0.77260  0.30140  0.15300  1.0000 0.1311142031
H   H56       1.0  0.27260  0.69860  0.84700  1.0000 0.1311142031
H   H57       1.0  0.81160  0.77590  0.29970  1.0000 0.1595276818
H   H58       1.0  0.31160  0.22410  0.70030  1.0000 0.1595276818
H   H59       1.0  0.81160  0.27590  0.20030  1.0000 0.1595276818
H   H60       1.0  0.31160  0.72410  0.79970  1.0000 0.1595276818
H   H61       1.0  0.52400  0.88630  0.22560  1.0000 0.153128696
H   H62       1.0  0.02400  0.11370  0.77440  1.0000 0.153128696
H   H63       1.0  0.52400  0.38630  0.27440  1.0000 0.153128696
H   H64       1.0  0.02400  0.61370  0.72560  1.0000 0.153128696
H   H65       1.0  0.57620  0.92350  0.25830  1.0000 0.153128696
H   H66       1.0  0.07620  0.07650  0.74170  1.0000 0.153128696
H   H67       1.0  0.57620  0.42350  0.24170  1.0000 0.153128696
H   H68       1.0  0.07620  0.57650  0.75830  1.0000 0.153128696
H   H69       1.0  0.51570  0.88660  0.28430  1.0000 0.1595276818
H   H70       1.0  0.01570  0.11340  0.71570  1.0000 0.1595276818
H   H71       1.0  0.51570  0.38660  0.21570  1.0000 0.1595276818
H   H72       1.0  0.01570  0.61340  0.78430  1.0000 0.1595276818
H   H73       1.0  0.31970  0.59840  0.97250  1.0000 0.1595276818
H   H74       1.0  0.81970  0.40160  0.02750  1.0000 0.1595276818
H   H75       1.0  0.31970  0.09840  0.52750  1.0000 0.1595276818
H   H76       1.0  0.81970  0.90160  0.47250  1.0000 0.1595276818
H   H77       1.0  0.27640  0.56210  0.93400  1.0000 0.1311142031
H   H78       1.0  0.77640  0.43790  0.06600  1.0000 0.1311142031
H   H79       1.0  0.27640  0.06210  0.56600  1.0000 0.1311142031
H   H80       1.0  0.77640  0.93790  0.43400  1.0000 0.1311142031
H   H81       1.0  0.26300  0.55470  0.99180  1.0000 0.1595276818
H   H82       1.0  0.76300  0.44530  0.00820  1.0000 0.1595276818
H   H83       1.0  0.26300  0.05470  0.50820  1.0000 0.1595276818
H   H84       1.0  0.76300  0.94530  0.49180  1.0000 0.1595276818
H   H85       1.0  0.02000  0.70940  0.92680  1.0000 0.153128696
H   H86       1.0  0.52000  0.29060  0.07320  1.0000 0.153128696
H   H87       1.0  0.02000  0.20940  0.57320  1.0000 0.1595276818
H   H88       1.0  0.52000  0.79060  0.42680  1.0000 0.153128696
H   H89       1.0  0.04190  0.67070  0.88280  1.0000 0.1595276818
H   H90       1.0  0.54190  0.32930  0.11720  1.0000 0.1595276818
H   H91       1.0  0.04190  0.17070  0.61720  1.0000 0.153128696
H   H92       1.0  0.54190  0.82930  0.38280  1.0000 0.1595276818
H   H93       1.0  0.08470  0.72520  0.88890  1.0000 0.153128696
H   H94       1.0  0.58470  0.27480  0.11110  1.0000 0.153128696
H   H95       1.0  0.08470  0.22520  0.61110  1.0000 0.1595276818
H   H96       1.0  0.58470  0.77480  0.38890  1.0000 0.1595276818
C   C1        1.0  0.58440  0.66560  0.16620  1.0000 0.5698792718
C   C2        1.0  0.08440  0.33440  0.83380  1.0000 0.5698792718
C   C3        1.0  0.58440  0.16560  0.33380  1.0000 0.5698792718
C   C4        1.0  0.08440  0.83440  0.66620  1.0000 0.5698792718
C   C5        1.0  0.54280  0.61940  0.15180  1.0000 -0.0906310795
C   C6        1.0  0.04280  0.38060  0.84820  1.0000 -0.0813484499
C   C7        1.0  0.54280  0.11940  0.34820  1.0000 -0.0813484499
C   C8        1.0  0.04280  0.88060  0.65180  1.0000 -0.0906310795
C   C9        1.0  0.57230  0.56770  0.15190  1.0000 -0.0705693651
C   C10       1.0  0.07230  0.43230  0.84810  1.0000 -0.0705693651
C   C11       1.0  0.57230  0.06770  0.34810  1.0000 -0.0705693651
C   C12       1.0  0.07230  0.93230  0.65190  1.0000 -0.0705693651
C   C13       1.0  0.53320  0.52380  0.13560  1.0000 -0.051452549
C   C14       1.0  0.03320  0.47620  0.86440  1.0000 -0.051452549
C   C15       1.0  0.53320  0.02380  0.36440  1.0000 -0.051452549
C   C16       1.0  0.03320  0.97620  0.63560  1.0000 -0.051452549
C   C17       1.0  0.56760  0.47050  0.13610  1.0000 0.5386488489
C   C18       1.0  0.06760  0.52950  0.86390  1.0000 0.5386488489
C   C19       1.0  0.56760  0.97050  0.36390  1.0000 0.5386488489
C   C20       1.0  0.06760  0.02950  0.63610  1.0000 0.5386488489
C   C21       1.0  0.45980  0.53170  0.11840  1.0000 -0.0813484499
C   C22       1.0  0.95980  0.46830  0.88160  1.0000 -0.0813484499
C   C23       1.0  0.45980  0.03170  0.38160  1.0000 -0.0813484499
C   C24       1.0  0.95980  0.96830  0.61840  1.0000 -0.0813484499
C   C25       1.0  0.42640  0.58230  0.11610  1.0000 -0.0114800822
C   C26       1.0  0.92640  0.41770  0.88390  1.0000 -0.0114800822
C   C27       1.0  0.42640  0.08230  0.38390  1.0000 -0.0114800822
C   C28       1.0  0.92640  0.91770  0.61610  1.0000 -0.0114800822
C   C29       1.0  0.34370  0.58870  0.09720  1.0000 0.5320278458
C   C30       1.0  0.84370  0.41130  0.90280  1.0000 0.5320278458
C   C31       1.0  0.34370  0.08870  0.40280  1.0000 0.5320278458
C   C32       1.0  0.84370  0.91130  0.59720  1.0000 0.5320278458
C   C33       1.0  0.46610  0.62540  0.13140  1.0000 -0.0906310795
C   C34       1.0  0.96610  0.37460  0.86860  1.0000 -0.0906310795
C   C35       1.0  0.46610  0.12540  0.36860  1.0000 -0.0906310795
C   C36       1.0  0.96610  0.87460  0.63140  1.0000 -0.0906310795
C   C37       1.0  0.69840  0.78610  0.10200  1.0000 0.580839551
C   C38       1.0  0.19840  0.21390  0.89800  1.0000 0.5859496228
C   C39       1.0  0.69840  0.28610  0.39800  1.0000 0.5859496228
C   C40       1.0  0.19840  0.71390  0.60200  1.0000 0.5859496228
C   C41       1.0  0.74250  0.80100  0.05550  1.0000 -0.0182993126
C   C42       1.0  0.24250  0.19900  0.94450  1.0000 -0.0182993126
C   C43       1.0  0.74250  0.30100  0.44450  1.0000 -0.0182993126
C   C44       1.0  0.24250  0.69900  0.55550  1.0000 -0.0182993126
C   C45       1.0  0.81700  0.78200  0.05060  1.0000 -0.1053324037
C   C46       1.0  0.31700  0.21800  0.94940  1.0000 -0.098106769
C   C47       1.0  0.81700  0.28200  0.44940  1.0000 -0.098106769
C   C48       1.0  0.31700  0.71800  0.55060  1.0000 -0.098106769
C   C49       1.0  0.85870  0.79560  0.00770  1.0000 -0.0114800822
C   C50       1.0  0.35870  0.20440  0.99230  1.0000 -0.0114800822
C   C51       1.0  0.85870  0.29560  0.49230  1.0000 -0.0041606056
C   C52       1.0  0.35870  0.70440  0.50770  1.0000 -0.0114800822
C   C53       1.0  0.94160  0.77700  0.00380  1.0000 0.5320278458
C   C54       1.0  0.44160  0.22300  0.99620  1.0000 0.5320278458
C   C55       1.0  0.94160  0.27700  0.49620  1.0000 0.5320278458
C   C56       1.0  0.44160  0.72300  0.50380  1.0000 0.5320278458
C   C57       1.0  0.82660  0.82700  0.97000  1.0000 -0.098106769
C   C58       1.0  0.32660  0.17300  0.03000  1.0000 -0.098106769
C   C59       1.0  0.82660  0.32700  0.53000  1.0000 -0.0906310795
C   C60       1.0  0.32660  0.67300  0.47000  1.0000 -0.098106769
C   C61       1.0  0.75190  0.84440  0.97520  1.0000 -0.0279316751
C   C62       1.0  0.25190  0.15560  0.02480  1.0000 -0.0279316751
C   C63       1.0  0.75190  0.34440  0.52480  1.0000 -0.0279316751
C   C64       1.0  0.25190  0.65560  0.47520  1.0000 -0.0279316751
C   C65       1.0  0.71760  0.88080  0.93500  1.0000 0.598457881
C   C66       1.0  0.21760  0.11920  0.06500  1.0000 0.598457881
C   C67       1.0  0.71760  0.38080  0.56500  1.0000 0.598457881
C   C68       1.0  0.21760  0.61920  0.43500  1.0000 0.598457881
C   C69       1.0  0.71100  0.83190  0.01970  1.0000 -0.098106769
C   C70       1.0  0.21100  0.16810  0.98030  1.0000 -0.0906310795
C   C71       1.0  0.71100  0.33190  0.48030  1.0000 -0.0906310795
C   C72       1.0  0.21100  0.66810  0.51970  1.0000 -0.0906310795
C   C73       1.0  0.84890  0.66900  0.23430  1.0000 0.5320278458
C   C74       1.0  0.34890  0.33100  0.76570  1.0000 0.5386488489
C   C75       1.0  0.84890  0.16900  0.26570  1.0000 0.5320278458
C   C76       1.0  0.34890  0.83100  0.73430  1.0000 0.5386488489
C   C77       1.0  0.93010  0.64980  0.23150  1.0000 -0.0182993126
C   C78       1.0  0.43010  0.35020  0.76850  1.0000 -0.0114800822
C   C79       1.0  0.93010  0.14980  0.26850  1.0000 -0.0182993126
C   C80       1.0  0.43010  0.85020  0.73150  1.0000 -0.0182993126
C   C81       1.0  0.96920  0.65820  0.18690  1.0000 -0.0906310795
C   C82       1.0  0.46920  0.34180  0.81310  1.0000 -0.0906310795
C   C83       1.0  0.96920  0.15820  0.31310  1.0000 -0.0906310795
C   C84       1.0  0.46920  0.84180  0.68690  1.0000 -0.0906310795
C   C85       1.0  0.04300  0.64170  0.18150  1.0000 -0.0279316751
C   C86       1.0  0.54300  0.35830  0.81850  1.0000 -0.0279316751
C   C87       1.0  0.04300  0.14170  0.31850  1.0000 -0.0279316751
C   C88       1.0  0.54300  0.85830  0.68150  1.0000 -0.0279316751
C   C89       1.0  0.08610  0.65000  0.13330  1.0000 0.5859496228
C   C90       1.0  0.58610  0.35000  0.86670  1.0000 0.5859496228
C   C91       1.0  0.08610  0.15000  0.36670  1.0000 0.5859496228
C   C92       1.0  0.58610  0.85000  0.63330  1.0000 0.5859496228
C   C93       1.0  0.07920  0.61500  0.22170  1.0000 -0.0813484499
C   C94       1.0  0.57920  0.38500  0.77830  1.0000 -0.0813484499
C   C95       1.0  0.07920  0.11500  0.27830  1.0000 -0.0813484499
C   C96       1.0  0.57920  0.88500  0.72170  1.0000 -0.0813484499
C   C97       1.0  0.04120  0.60830  0.26680  1.0000 -0.0705693651
C   C98       1.0  0.54120  0.39170  0.73320  1.0000 -0.0705693651
C   C99       1.0  0.04120  0.10830  0.23320  1.0000 -0.0705693651
C   C100      1.0  0.54120  0.89170  0.76680  1.0000 -0.0705693651
C   C101      1.0  0.08040  0.58440  0.31010  1.0000 0.580839551
C   C102      1.0  0.58040  0.41560  0.68990  1.0000 0.580839551
C   C103      1.0  0.08040  0.08440  0.18990  1.0000 0.580839551
C   C104      1.0  0.58040  0.91560  0.81010  1.0000 0.580839551
C   C105      1.0  0.96520  0.62530  0.26980  1.0000 -0.0813484499
C   C106      1.0  0.46520  0.37470  0.73020  1.0000 -0.0813484499
C   C107      1.0  0.96520  0.12530  0.23020  1.0000 -0.0813484499
C   C108      1.0  0.46520  0.87470  0.76980  1.0000 -0.0813484499
C   C109      1.0  0.19420  0.77430  0.07670  1.0000 0.580839551
C   C110      1.0  0.69420  0.22570  0.92330  1.0000 0.580839551
C   C111      1.0  0.19420  0.27430  0.42330  1.0000 0.580839551
C   C112      1.0  0.69420  0.72570  0.57670  1.0000 0.580839551
C   C113      1.0  0.23810  0.82200  0.09500  1.0000 -0.0279316751
C   C114      1.0  0.73810  0.17800  0.90500  1.0000 -0.0279316751
C   C115      1.0  0.23810  0.32200  0.40500  1.0000 -0.0279316751
C   C116      1.0  0.73810  0.67800  0.59500  1.0000 -0.0279316751
C   C117      1.0  0.20710  0.87340  0.09700  1.0000 -0.0813484499
C   C118      1.0  0.70710  0.12660  0.90300  1.0000 -0.0813484499
C   C119      1.0  0.20710  0.37340  0.40300  1.0000 -0.0813484499
C   C120      1.0  0.70710  0.62660  0.59700  1.0000 -0.0813484499
C   C121      1.0  0.24920  0.91640  0.11420  1.0000 -0.051452549
C   C122      1.0  0.74920  0.08360  0.88580  1.0000 -0.051452549
C   C123      1.0  0.24920  0.41640  0.38580  1.0000 -0.051452549
C   C124      1.0  0.74920  0.58360  0.61420  1.0000 -0.051452549
C   C125      1.0  0.21540  0.97100  0.11700  1.0000 0.598457881
C   C126      1.0  0.71540  0.02900  0.88300  1.0000 0.598457881
C   C127      1.0  0.21540  0.47100  0.38300  1.0000 0.598457881
C   C128      1.0  0.71540  0.52900  0.61700  1.0000 0.598457881
C   C129      1.0  0.32420  0.90880  0.12720  1.0000 -0.0906310795
C   C130      1.0  0.82420  0.09120  0.87280  1.0000 -0.0906310795
C   C131      1.0  0.32420  0.40880  0.37280  1.0000 -0.0906310795
C   C132      1.0  0.82420  0.59120  0.62720  1.0000 -0.0906310795
C   C133      1.0  0.35740  0.85840  0.12510  1.0000 -0.0114800822
C   C134      1.0  0.85740  0.14160  0.87490  1.0000 -0.0114800822
C   C135      1.0  0.35740  0.35840  0.37490  1.0000 -0.0114800822
C   C136      1.0  0.85740  0.64160  0.62510  1.0000 -0.0114800822
C   C137      1.0  0.44200  0.84970  0.13790  1.0000 0.5386488489
C   C138      1.0  0.94200  0.15030  0.86210  1.0000 0.5386488489
C   C139      1.0  0.44200  0.34970  0.36210  1.0000 0.5386488489
C   C140      1.0  0.94200  0.65030  0.63790  1.0000 0.5386488489
C   C141      1.0  0.31370  0.81570  0.11030  1.0000 -0.098106769
C   C142      1.0  0.81370  0.18430  0.88970  1.0000 -0.098106769
C   C143      1.0  0.31370  0.31570  0.38970  1.0000 -0.098106769
C   C144      1.0  0.81370  0.68430  0.61030  1.0000 -0.098106769
C   C145      1.0  0.76510  0.77820  0.31880  1.0000 -0.5099739225
C   C146      1.0  0.26510  0.22180  0.68120  1.0000 -0.5099739225
C   C147      1.0  0.76510  0.27820  0.18120  1.0000 -0.5099739225
C   C148      1.0  0.26510  0.72180  0.81880  1.0000 -0.5099739225
C   C149      1.0  0.70170  0.80000  0.28580  1.0000 0.390043766
C   C150      1.0  0.20170  0.20000  0.71420  1.0000 0.390043766
C   C151      1.0  0.70170  0.30000  0.21420  1.0000 0.390043766
C   C152      1.0  0.20170  0.70000  0.78580  1.0000 0.390043766
C   C153      1.0  0.60710  0.84790  0.26040  1.0000 0.3814597733
C   C154      1.0  0.10710  0.15210  0.73960  1.0000 0.3814597733
C   C155      1.0  0.60710  0.34790  0.23960  1.0000 0.3814597733
C   C156      1.0  0.10710  0.65210  0.76040  1.0000 0.3814597733
C   C157      1.0  0.55110  0.88950  0.25690  1.0000 -0.5099739225
C   C158      1.0  0.05110  0.11050  0.74310  1.0000 -0.518176622
C   C159      1.0  0.55110  0.38950  0.24310  1.0000 -0.5099739225
C   C160      1.0  0.05110  0.61050  0.75690  1.0000 -0.518176622
C   C161      1.0  0.27260  0.58010  0.96570  1.0000 -0.5099739225
C   C162      1.0  0.77260  0.41990  0.03430  1.0000 -0.5099739225
C   C163      1.0  0.27260  0.08010  0.53430  1.0000 -0.5099739225
C   C164      1.0  0.77260  0.91990  0.46570  1.0000 -0.5099739225
C   C165      1.0  0.20860  0.61940  0.96380  1.0000 0.390043766
C   C166      1.0  0.70860  0.38060  0.03620  1.0000 0.390043766
C   C167      1.0  0.20860  0.11940  0.53620  1.0000 0.390043766
C   C168      1.0  0.70860  0.88060  0.46380  1.0000 0.390043766
C   C169      1.0  0.11860  0.67030  0.93910  1.0000 0.390043766
C   C170      1.0  0.61860  0.32970  0.06090  1.0000 0.390043766
C   C171      1.0  0.11860  0.17030  0.56090  1.0000 0.390043766
C   C172      1.0  0.61860  0.82970  0.43910  1.0000 0.390043766
C   C173      1.0  0.06130  0.69620  0.90660  1.0000 -0.5099739225
C   C174      1.0  0.56130  0.30380  0.09340  1.0000 -0.5099739225
C   C175      1.0  0.06130  0.19620  0.59340  1.0000 -0.5099739225
C   C176      1.0  0.56130  0.80380  0.40660  1.0000 -0.5099739225
N   N1        1.0  0.67910  0.77880  0.24370  1.0000 -0.3265231319
N   N2        1.0  0.17910  0.22120  0.75630  1.0000 -0.3208379515
N   N3        1.0  0.67910  0.27880  0.25630  1.0000 -0.3208379515
N   N4        1.0  0.17910  0.72120  0.74370  1.0000 -0.3208379515
N   N5        1.0  0.61770  0.80960  0.22680  1.0000 -0.3062794351
N   N6        1.0  0.11770  0.19040  0.77320  1.0000 -0.3062794351
N   N7        1.0  0.61770  0.30960  0.27320  1.0000 -0.3046794899
N   N8        1.0  0.11770  0.69040  0.72680  1.0000 -0.3062794351
N   N9        1.0  0.65940  0.84320  0.29790  1.0000 -0.4391654847
N   N10       1.0  0.15940  0.15680  0.70210  1.0000 -0.449348554
N   N11       1.0  0.65940  0.34320  0.20210  1.0000 -0.4391654847
N   N12       1.0  0.15940  0.65680  0.79790  1.0000 -0.449348554
N   N13       1.0  0.18240  0.64420  0.00440  1.0000 -0.3208379515
N   N14       1.0  0.68240  0.35580  0.99560  1.0000 -0.3208379515
N   N15       1.0  0.18240  0.14420  0.49560  1.0000 -0.3208379515
N   N16       1.0  0.68240  0.85580  0.50440  1.0000 -0.3208379515
N   N17       1.0  0.12310  0.67680  0.98790  1.0000 -0.3046794899
N   N18       1.0  0.62310  0.32320  0.01210  1.0000 -0.3046794899
N   N19       1.0  0.12310  0.17680  0.51210  1.0000 -0.3062794351
N   N20       1.0  0.62310  0.82320  0.48790  1.0000 -0.3046794899
N   N21       1.0  0.17200  0.63560  0.92260  1.0000 -0.4391654847
N   N22       1.0  0.67200  0.36440  0.07740  1.0000 -0.4391654847
N   N23       1.0  0.17200  0.13560  0.57740  1.0000 -0.4391654847
N   N24       1.0  0.67200  0.86440  0.42260  1.0000 -0.4328677126
O   O1        1.0  0.65280  0.66000  0.18440  1.0000 -0.5367861075
O   O2        1.0  0.15280  0.34000  0.81560  1.0000 -0.5310979383
O   O3        1.0  0.65280  0.16000  0.31560  1.0000 -0.5310979383
O   O4        1.0  0.15280  0.84000  0.68440  1.0000 -0.5310979383
O   O5        1.0  0.55250  0.71070  0.16550  1.0000 -0.5367861075
O   O6        1.0  0.05250  0.28930  0.83450  1.0000 -0.5367861075
O   O7        1.0  0.55250  0.21070  0.33450  1.0000 -0.5367861075
O   O8        1.0  0.05250  0.78930  0.66550  1.0000 -0.5367861075
O   O9        1.0  0.63730  0.46710  0.14990  1.0000 -0.518176622
O   O10       1.0  0.13730  0.53290  0.85010  1.0000 -0.5310979383
O   O11       1.0  0.63730  0.96710  0.35010  1.0000 -0.518176622
O   O12       1.0  0.13730  0.03290  0.64990  1.0000 -0.518176622
O   O13       1.0  0.53110  0.43060  0.12440  1.0000 -0.449348554
O   O14       1.0  0.03110  0.56940  0.87560  1.0000 -0.449348554
O   O15       1.0  0.53110  0.93060  0.37560  1.0000 -0.449348554
O   O16       1.0  0.03110  0.06940  0.62440  1.0000 -0.449348554
O   O17       1.0  0.32540  0.63730  0.08980  1.0000 -0.5099739225
O   O18       1.0  0.82540  0.36270  0.91020  1.0000 -0.5003968306
O   O19       1.0  0.32540  0.13730  0.41020  1.0000 -0.5099739225
O   O20       1.0  0.82540  0.86270  0.58980  1.0000 -0.5099739225
O   O21       1.0  0.30240  0.55120  0.09050  1.0000 -0.4391654847
O   O22       1.0  0.80240  0.44880  0.90950  1.0000 -0.4391654847
O   O23       1.0  0.30240  0.05120  0.40950  1.0000 -0.4391654847
O   O24       1.0  0.80240  0.94880  0.59050  1.0000 -0.4391654847
O   O25       1.0  0.73160  0.75970  0.13360  1.0000 -0.5003968306
O   O26       1.0  0.23160  0.24030  0.86640  1.0000 -0.5003968306
O   O27       1.0  0.73160  0.25970  0.36640  1.0000 -0.5003968306
O   O28       1.0  0.23160  0.74030  0.63360  1.0000 -0.5003968306
O   O29       1.0  0.62990  0.80400  0.10410  1.0000 -0.5099739225
O   O30       1.0  0.12990  0.19600  0.89590  1.0000 -0.518176622
O   O31       1.0  0.62990  0.30400  0.39590  1.0000 -0.518176622
O   O32       1.0  0.12990  0.69600  0.60410  1.0000 -0.518176622
O   O33       1.0  0.96080  0.74120  0.03340  1.0000 -0.4948101111
O   O34       1.0  0.46080  0.25880  0.96660  1.0000 -0.5003968306
O   O35       1.0  0.96080  0.24120  0.46660  1.0000 -0.4948101111
O   O36       1.0  0.46080  0.75880  0.53340  1.0000 -0.4948101111
O   O37       1.0  0.98060  0.79660  0.97110  1.0000 -0.4391654847
O   O38       1.0  0.48060  0.20340  0.02890  1.0000 -0.4391654847
O   O39       1.0  0.98060  0.29660  0.52890  1.0000 -0.449348554
O   O40       1.0  0.48060  0.70340  0.47110  1.0000 -0.4391654847
O   O41       1.0  0.65420  0.90340  0.94670  1.0000 -0.5704583404
O   O42       1.0  0.15420  0.09660  0.05330  1.0000 -0.5704583404
O   O43       1.0  0.65420  0.40340  0.55330  1.0000 -0.5704583404
O   O44       1.0  0.15420  0.59660  0.44670  1.0000 -0.5704583404
O   O45       1.0  0.74920  0.88210  0.89420  1.0000 -0.5704583404
O   O46       1.0  0.24920  0.11790  0.10580  1.0000 -0.5589569776
O   O47       1.0  0.74920  0.38210  0.60580  1.0000 -0.5704583404
O   O48       1.0  0.24920  0.61790  0.39420  1.0000 -0.5704583404
O   O49       1.0  0.82500  0.69940  0.20230  1.0000 -0.4697575376
O   O50       1.0  0.32500  0.30060  0.79770  1.0000 -0.4697575376
O   O51       1.0  0.82500  0.19940  0.29770  1.0000 -0.4697575376
O   O52       1.0  0.32500  0.80060  0.70230  1.0000 -0.4697575376
O   O53       1.0  0.80930  0.65510  0.27040  1.0000 -0.449348554
O   O54       1.0  0.30930  0.34490  0.72960  1.0000 -0.449348554
O   O55       1.0  0.80930  0.15510  0.22960  1.0000 -0.449348554
O   O56       1.0  0.30930  0.84490  0.77040  1.0000 -0.449348554
O   O57       1.0  0.05300  0.67480  0.09840  1.0000 -0.5310979383
O   O58       1.0  0.55300  0.32520  0.90160  1.0000 -0.5367861075
O   O59       1.0  0.05300  0.17480  0.40160  1.0000 -0.5367861075
O   O60       1.0  0.55300  0.82520  0.59840  1.0000 -0.5310979383
O   O61       1.0  0.15180  0.63240  0.12900  1.0000 -0.5003968306
O   O62       1.0  0.65180  0.36760  0.87100  1.0000 -0.5003968306
O   O63       1.0  0.15180  0.13240  0.37100  1.0000 -0.5003968306
O   O64       1.0  0.65180  0.86760  0.62900  1.0000 -0.5003968306
O   O65       1.0  0.04400  0.57670  0.34890  1.0000 -0.5310979383
O   O66       1.0  0.54400  0.42330  0.65110  1.0000 -0.5310979383
O   O67       1.0  0.04400  0.07670  0.15110  1.0000 -0.5310979383
O   O68       1.0  0.54400  0.92330  0.84890  1.0000 -0.5310979383
O   O69       1.0  0.14880  0.57330  0.30700  1.0000 -0.5704583404
O   O70       1.0  0.64880  0.42670  0.69300  1.0000 -0.5704583404
O   O71       1.0  0.14880  0.07330  0.19300  1.0000 -0.5704583404
O   O72       1.0  0.64880  0.92670  0.80700  1.0000 -0.5704583404
O   O73       1.0  0.12690  0.78220  0.06200  1.0000 -0.5099739225
O   O74       1.0  0.62690  0.21780  0.93800  1.0000 -0.5099739225
O   O75       1.0  0.12690  0.28220  0.43800  1.0000 -0.5099739225
O   O76       1.0  0.62690  0.71780  0.56200  1.0000 -0.5099739225
O   O77       1.0  0.22640  0.73050  0.08200  1.0000 -0.5310979383
O   O78       1.0  0.72640  0.26950  0.91800  1.0000 -0.5310979383
O   O79       1.0  0.22640  0.23050  0.41800  1.0000 -0.5310979383
O   O80       1.0  0.72640  0.76950  0.58200  1.0000 -0.5310979383
O   O81       1.0  0.14790  0.97650  0.10070  1.0000 -0.5540637342
O   O82       1.0  0.64790  0.02350  0.89930  1.0000 -0.5540637342
O   O83       1.0  0.14790  0.47650  0.39930  1.0000 -0.5540637342
O   O84       1.0  0.64790  0.52350  0.60070  1.0000 -0.5540637342
O   O85       1.0  0.25470  0.00680  0.13460  1.0000 -0.5540637342
O   O86       1.0  0.75470  0.99320  0.86540  1.0000 -0.5589569776
O   O87       1.0  0.25470  0.50680  0.36540  1.0000 -0.5589569776
O   O88       1.0  0.75470  0.49320  0.63460  1.0000 -0.5540637342
O   O89       1.0  0.48460  0.88950  0.14050  1.0000 -0.4697575376
O   O90       1.0  0.98460  0.11050  0.85950  1.0000 -0.4697575376
O   O91       1.0  0.48460  0.38950  0.35950  1.0000 -0.4697575376
O   O92       1.0  0.98460  0.61050  0.64050  1.0000 -0.4697575376
O   O93       1.0  0.46070  0.80340  0.14930  1.0000 -0.5099739225
O   O94       1.0  0.96070  0.19660  0.85070  1.0000 -0.5099739225
O   O95       1.0  0.46070  0.30340  0.35070  1.0000 -0.5099739225
O   O96       1.0  0.96070  0.69660  0.64930  1.0000 -0.5099739225
