# DDEC6 charges by PACMAN v1.1 (https://github.com/mtap-research/PACMAN-charge/)
data_2011[Cu][scu]3[ASR]2
_chemical_formula_sum              "Cu16 H112 C228 O64"
_cell_length_a       18.9
_cell_length_b       18.9
_cell_length_c       33.561
_cell_angle_alpha    90
_cell_angle_beta     90
_cell_angle_gamma    90

_symmetry_space_group_name_H-M    "P 1"
_symmetry_Int_Tables_number       1

loop_
  _symmetry_equiv_pos_as_xyz
  'x, y, z'

loop_
  _atom_site_type_symbol
  _atom_site_label
  _atom_site_symmetry_multiplicity
  _atom_site_fract_x
  _atom_site_fract_y
  _atom_site_fract_z
  _atom_site_occupancy
  _atom_site_charge
Cu  Cu1       1.0  0.29988  0.23508  0.21962  1.0000 0.8767631895
Cu  Cu2       1.0  0.70012  0.76492  0.21962  1.0000 0.8767631895
Cu  Cu3       1.0  0.26492  0.79988  0.21962  1.0000 0.8767631895
Cu  Cu4       1.0  0.73508  0.20012  0.21962  1.0000 0.8767631895
Cu  Cu5       1.0  0.20012  0.73508  0.28038  1.0000 0.8767631895
Cu  Cu6       1.0  0.79988  0.26492  0.28038  1.0000 0.8767631895
Cu  Cu7       1.0  0.23508  0.29988  0.28038  1.0000 0.8767631895
Cu  Cu8       1.0  0.76492  0.70012  0.28038  1.0000 0.8767631895
Cu  Cu9       1.0  0.20012  0.26492  0.78038  1.0000 0.8767631895
Cu  Cu10      1.0  0.79988  0.73508  0.78038  1.0000 0.8767631895
Cu  Cu11      1.0  0.23508  0.70012  0.78038  1.0000 0.8767631895
Cu  Cu12      1.0  0.76492  0.29988  0.78038  1.0000 0.8767631895
Cu  Cu13      1.0  0.29988  0.76492  0.71962  1.0000 0.8767631895
Cu  Cu14      1.0  0.70012  0.23508  0.71962  1.0000 0.8767631895
Cu  Cu15      1.0  0.26492  0.20012  0.71962  1.0000 0.8767631895
Cu  Cu16      1.0  0.73508  0.79988  0.71962  1.0000 0.8767631895
H   H1        1.0  0.46460  0.61180  0.04560  1.0000 0.1208051825
H   H2        1.0  0.53540  0.38820  0.04560  1.0000 0.1208051825
H   H3        1.0  0.88820  0.96460  0.04560  1.0000 0.1208051825
H   H4        1.0  0.11180  0.03540  0.04560  1.0000 0.1208051825
H   H5        1.0  0.03540  0.11180  0.45440  1.0000 0.1208051825
H   H6        1.0  0.96460  0.88820  0.45440  1.0000 0.1208051825
H   H7        1.0  0.61180  0.46460  0.45440  1.0000 0.1208051825
H   H8        1.0  0.38820  0.53540  0.45440  1.0000 0.1208051825
H   H9        1.0  0.03540  0.88820  0.95440  1.0000 0.1208051825
H   H10       1.0  0.96460  0.11180  0.95440  1.0000 0.1208051825
H   H11       1.0  0.61180  0.53540  0.95440  1.0000 0.1208051825
H   H12       1.0  0.38820  0.46460  0.95440  1.0000 0.1208051825
H   H13       1.0  0.46460  0.38820  0.54560  1.0000 0.1208051825
H   H14       1.0  0.53540  0.61180  0.54560  1.0000 0.1208051825
H   H15       1.0  0.88820  0.03540  0.54560  1.0000 0.1208051825
H   H16       1.0  0.11180  0.96460  0.54560  1.0000 0.1208051825
H   H17       1.0  0.39140  0.62000  0.09970  1.0000 0.1208051825
H   H18       1.0  0.60860  0.38000  0.09970  1.0000 0.1208051825
H   H19       1.0  0.88000  0.89140  0.09970  1.0000 0.1208051825
H   H20       1.0  0.12000  0.10860  0.09970  1.0000 0.1208051825
H   H21       1.0  0.10860  0.12000  0.40030  1.0000 0.1208051825
H   H22       1.0  0.89140  0.88000  0.40030  1.0000 0.1208051825
H   H23       1.0  0.62000  0.39140  0.40030  1.0000 0.1208051825
H   H24       1.0  0.38000  0.60860  0.40030  1.0000 0.1208051825
H   H25       1.0  0.10860  0.88000  0.90030  1.0000 0.1208051825
H   H26       1.0  0.89140  0.12000  0.90030  1.0000 0.1208051825
H   H27       1.0  0.62000  0.60860  0.90030  1.0000 0.1208051825
H   H28       1.0  0.38000  0.39140  0.90030  1.0000 0.1208051825
H   H29       1.0  0.39140  0.38000  0.59970  1.0000 0.1208051825
H   H30       1.0  0.60860  0.62000  0.59970  1.0000 0.1208051825
H   H31       1.0  0.88000  0.10860  0.59970  1.0000 0.1208051825
H   H32       1.0  0.12000  0.89140  0.59970  1.0000 0.1208051825
H   H33       1.0  0.31890  0.42370  0.07900  1.0000 0.1208051825
H   H34       1.0  0.68110  0.57630  0.07900  1.0000 0.1208051825
H   H35       1.0  0.07630  0.81890  0.07900  1.0000 0.1208051825
H   H36       1.0  0.92370  0.18110  0.07900  1.0000 0.1208051825
H   H37       1.0  0.18110  0.92370  0.42100  1.0000 0.1208051825
H   H38       1.0  0.81890  0.07630  0.42100  1.0000 0.1208051825
H   H39       1.0  0.42370  0.31890  0.42100  1.0000 0.1208051825
H   H40       1.0  0.57630  0.68110  0.42100  1.0000 0.1208051825
H   H41       1.0  0.18110  0.07630  0.92100  1.0000 0.1208051825
H   H42       1.0  0.81890  0.92370  0.92100  1.0000 0.1208051825
H   H43       1.0  0.42370  0.68110  0.92100  1.0000 0.1208051825
H   H44       1.0  0.57630  0.31890  0.92100  1.0000 0.1208051825
H   H45       1.0  0.31890  0.57630  0.57900  1.0000 0.1208051825
H   H46       1.0  0.68110  0.42370  0.57900  1.0000 0.1208051825
H   H47       1.0  0.07630  0.18110  0.57900  1.0000 0.1208051825
H   H48       1.0  0.92370  0.81890  0.57900  1.0000 0.1208051825
H   H49       1.0  0.38990  0.41620  0.02370  1.0000 0.1208051825
H   H50       1.0  0.61010  0.58380  0.02370  1.0000 0.1208051825
H   H51       1.0  0.08380  0.88990  0.02370  1.0000 0.1208051825
H   H52       1.0  0.91620  0.11010  0.02370  1.0000 0.1208051825
H   H53       1.0  0.11010  0.91620  0.47630  1.0000 0.1208051825
H   H54       1.0  0.88990  0.08380  0.47630  1.0000 0.1208051825
H   H55       1.0  0.41620  0.38990  0.47630  1.0000 0.1208051825
H   H56       1.0  0.58380  0.61010  0.47630  1.0000 0.1208051825
H   H57       1.0  0.11010  0.08380  0.97630  1.0000 0.1208051825
H   H58       1.0  0.88990  0.91620  0.97630  1.0000 0.1208051825
H   H59       1.0  0.41620  0.61010  0.97630  1.0000 0.1208051825
H   H60       1.0  0.58380  0.38990  0.97630  1.0000 0.1208051825
H   H61       1.0  0.38990  0.58380  0.52370  1.0000 0.1208051825
H   H62       1.0  0.61010  0.41620  0.52370  1.0000 0.1208051825
H   H63       1.0  0.08380  0.11010  0.52370  1.0000 0.1208051825
H   H64       1.0  0.91620  0.88990  0.52370  1.0000 0.1208051825
H   H65       1.0  0.30050  0.62540  0.14250  1.0000 0.1254240593
H   H66       1.0  0.69950  0.37460  0.14250  1.0000 0.1254240593
H   H67       1.0  0.87460  0.80050  0.14250  1.0000 0.1254240593
H   H68       1.0  0.12540  0.19950  0.14250  1.0000 0.1254240593
H   H69       1.0  0.19950  0.12540  0.35750  1.0000 0.1254240593
H   H70       1.0  0.80050  0.87460  0.35750  1.0000 0.1254240593
H   H71       1.0  0.62540  0.30050  0.35750  1.0000 0.1254240593
H   H72       1.0  0.37460  0.69950  0.35750  1.0000 0.1254240593
H   H73       1.0  0.19950  0.87460  0.85750  1.0000 0.1254240593
H   H74       1.0  0.80050  0.12540  0.85750  1.0000 0.1254240593
H   H75       1.0  0.62540  0.69950  0.85750  1.0000 0.1254240593
H   H76       1.0  0.37460  0.30050  0.85750  1.0000 0.1254240593
H   H77       1.0  0.30050  0.37460  0.64250  1.0000 0.1254240593
H   H78       1.0  0.69950  0.62540  0.64250  1.0000 0.1254240593
H   H79       1.0  0.87460  0.19950  0.64250  1.0000 0.1254240593
H   H80       1.0  0.12540  0.80050  0.64250  1.0000 0.1254240593
H   H81       1.0  0.24040  0.51890  0.23880  1.0000 0.1399601719
H   H82       1.0  0.75960  0.48110  0.23880  1.0000 0.1399601719
H   H83       1.0  0.98110  0.74040  0.23880  1.0000 0.1399601719
H   H84       1.0  0.01890  0.25960  0.23880  1.0000 0.1399601719
H   H85       1.0  0.25960  0.01890  0.26120  1.0000 0.1399601719
H   H86       1.0  0.74040  0.98110  0.26120  1.0000 0.1399601719
H   H87       1.0  0.51890  0.24040  0.26120  1.0000 0.1399601719
H   H88       1.0  0.48110  0.75960  0.26120  1.0000 0.1399601719
H   H89       1.0  0.25960  0.98110  0.76120  1.0000 0.1399601719
H   H90       1.0  0.74040  0.01890  0.76120  1.0000 0.1399601719
H   H91       1.0  0.51890  0.75960  0.76120  1.0000 0.1399601719
H   H92       1.0  0.48110  0.24040  0.76120  1.0000 0.1399601719
H   H93       1.0  0.24040  0.48110  0.73880  1.0000 0.1399601719
H   H94       1.0  0.75960  0.51890  0.73880  1.0000 0.1399601719
H   H95       1.0  0.98110  0.25960  0.73880  1.0000 0.1399601719
H   H96       1.0  0.01890  0.74040  0.73880  1.0000 0.1399601719
H   H97       1.0  0.32230  0.41520  0.14550  1.0000 0.1208051825
H   H98       1.0  0.67770  0.58480  0.14550  1.0000 0.1208051825
H   H99       1.0  0.08480  0.82230  0.14550  1.0000 0.1208051825
H   H100      1.0  0.91520  0.17770  0.14550  1.0000 0.1208051825
H   H101      1.0  0.17770  0.91520  0.35450  1.0000 0.1208051825
H   H102      1.0  0.82230  0.08480  0.35450  1.0000 0.1208051825
H   H103      1.0  0.41520  0.32230  0.35450  1.0000 0.1208051825
H   H104      1.0  0.58480  0.67770  0.35450  1.0000 0.1208051825
H   H105      1.0  0.17770  0.08480  0.85450  1.0000 0.1208051825
H   H106      1.0  0.82230  0.91520  0.85450  1.0000 0.1208051825
H   H107      1.0  0.41520  0.67770  0.85450  1.0000 0.1208051825
H   H108      1.0  0.58480  0.32230  0.85450  1.0000 0.1208051825
H   H109      1.0  0.32230  0.58480  0.64550  1.0000 0.1208051825
H   H110      1.0  0.67770  0.41520  0.64550  1.0000 0.1208051825
H   H111      1.0  0.08480  0.17770  0.64550  1.0000 0.1208051825
H   H112      1.0  0.91520  0.82230  0.64550  1.0000 0.1208051825
C   C1        1.0  0.50000  0.50000  0.00000  1.0000 -0.0272610749
C   C2        1.0  0.00000  0.00000  0.00000  1.0000 -0.0272610749
C   C3        1.0  0.00000  0.00000  0.50000  1.0000 -0.0272610749
C   C4        1.0  0.50000  0.50000  0.50000  1.0000 -0.0272610749
C   C5        1.0  0.43860  0.51160  0.02890  1.0000 0.048886721
C   C6        1.0  0.56140  0.48840  0.02890  1.0000 0.048886721
C   C7        1.0  0.98840  0.93860  0.02890  1.0000 0.048886721
C   C8        1.0  0.01160  0.06140  0.02890  1.0000 0.048886721
C   C9        1.0  0.06140  0.01160  0.47110  1.0000 0.048886721
C   C10       1.0  0.93860  0.98840  0.47110  1.0000 0.048886721
C   C11       1.0  0.51160  0.43860  0.47110  1.0000 0.048886721
C   C12       1.0  0.48840  0.56140  0.47110  1.0000 0.048886721
C   C13       1.0  0.06140  0.98840  0.97110  1.0000 0.048886721
C   C14       1.0  0.93860  0.01160  0.97110  1.0000 0.048886721
C   C15       1.0  0.51160  0.56140  0.97110  1.0000 0.048886721
C   C16       1.0  0.48840  0.43860  0.97110  1.0000 0.048886721
C   C17       1.0  0.43860  0.48840  0.52890  1.0000 0.048886721
C   C18       1.0  0.56140  0.51160  0.52890  1.0000 0.048886721
C   C19       1.0  0.98840  0.06140  0.52890  1.0000 0.048886721
C   C20       1.0  0.01160  0.93860  0.52890  1.0000 0.048886721
C   C21       1.0  0.43630  0.57330  0.05244  1.0000 -0.1519662195
C   C22       1.0  0.56370  0.42670  0.05244  1.0000 -0.1519662195
C   C23       1.0  0.92670  0.93630  0.05244  1.0000 -0.1519662195
C   C24       1.0  0.07330  0.06370  0.05244  1.0000 -0.1519662195
C   C25       1.0  0.06370  0.07330  0.44756  1.0000 -0.1519662195
C   C26       1.0  0.93630  0.92670  0.44756  1.0000 -0.1519662195
C   C27       1.0  0.57330  0.43630  0.44756  1.0000 -0.1519662195
C   C28       1.0  0.42670  0.56370  0.44756  1.0000 -0.1519662195
C   C29       1.0  0.06370  0.92670  0.94756  1.0000 -0.1519662195
C   C30       1.0  0.93630  0.07330  0.94756  1.0000 -0.1519662195
C   C31       1.0  0.57330  0.56370  0.94756  1.0000 -0.1519662195
C   C32       1.0  0.42670  0.43630  0.94756  1.0000 -0.1519662195
C   C33       1.0  0.43630  0.42670  0.55244  1.0000 -0.1519662195
C   C34       1.0  0.56370  0.57330  0.55244  1.0000 -0.1519662195
C   C35       1.0  0.92670  0.06370  0.55244  1.0000 -0.1519662195
C   C36       1.0  0.07330  0.93630  0.55244  1.0000 -0.1519662195
C   C37       1.0  0.39300  0.57790  0.08543  1.0000 -0.1416023204
C   C38       1.0  0.60700  0.42210  0.08543  1.0000 -0.1416023204
C   C39       1.0  0.92210  0.89300  0.08543  1.0000 -0.1416023204
C   C40       1.0  0.07790  0.10700  0.08543  1.0000 -0.1416023204
C   C41       1.0  0.10700  0.07790  0.41457  1.0000 -0.1416023204
C   C42       1.0  0.89300  0.92210  0.41457  1.0000 -0.1416023204
C   C43       1.0  0.57790  0.39300  0.41457  1.0000 -0.1416023204
C   C44       1.0  0.42210  0.60700  0.41457  1.0000 -0.1416023204
C   C45       1.0  0.10700  0.92210  0.91457  1.0000 -0.1416023204
C   C46       1.0  0.89300  0.07790  0.91457  1.0000 -0.1416023204
C   C47       1.0  0.57790  0.60700  0.91457  1.0000 -0.1416023204
C   C48       1.0  0.42210  0.39300  0.91457  1.0000 -0.1416023204
C   C49       1.0  0.39300  0.42210  0.58543  1.0000 -0.1416023204
C   C50       1.0  0.60700  0.57790  0.58543  1.0000 -0.1416023204
C   C51       1.0  0.92210  0.10700  0.58543  1.0000 -0.1416023204
C   C52       1.0  0.07790  0.89300  0.58543  1.0000 -0.1416023204
C   C53       1.0  0.35130  0.52060  0.09799  1.0000 0.0731978987
C   C54       1.0  0.64870  0.47940  0.09799  1.0000 0.0731978987
C   C55       1.0  0.97940  0.85130  0.09799  1.0000 0.0731978987
C   C56       1.0  0.02060  0.14870  0.09799  1.0000 0.0731978987
C   C57       1.0  0.14870  0.02060  0.40201  1.0000 0.0731978987
C   C58       1.0  0.85130  0.97940  0.40201  1.0000 0.0731978987
C   C59       1.0  0.52060  0.35130  0.40201  1.0000 0.0731978987
C   C60       1.0  0.47940  0.64870  0.40201  1.0000 0.0731978987
C   C61       1.0  0.14870  0.97940  0.90201  1.0000 0.0731978987
C   C62       1.0  0.85130  0.02060  0.90201  1.0000 0.0731978987
C   C63       1.0  0.52060  0.64870  0.90201  1.0000 0.0731978987
C   C64       1.0  0.47940  0.35130  0.90201  1.0000 0.0731978987
C   C65       1.0  0.35130  0.47940  0.59799  1.0000 0.0731978987
C   C66       1.0  0.64870  0.52060  0.59799  1.0000 0.0731978987
C   C67       1.0  0.97940  0.14870  0.59799  1.0000 0.0731978987
C   C68       1.0  0.02060  0.85130  0.59799  1.0000 0.0731978987
C   C69       1.0  0.34940  0.46090  0.07296  1.0000 -0.1519662195
C   C70       1.0  0.65060  0.53910  0.07296  1.0000 -0.1519662195
C   C71       1.0  0.03910  0.84940  0.07296  1.0000 -0.1519662195
C   C72       1.0  0.96090  0.15060  0.07296  1.0000 -0.1519662195
C   C73       1.0  0.15060  0.96090  0.42704  1.0000 -0.1519662195
C   C74       1.0  0.84940  0.03910  0.42704  1.0000 -0.1519662195
C   C75       1.0  0.46090  0.34940  0.42704  1.0000 -0.1519662195
C   C76       1.0  0.53910  0.65060  0.42704  1.0000 -0.1519662195
C   C77       1.0  0.15060  0.03910  0.92704  1.0000 -0.1519662195
C   C78       1.0  0.84940  0.96090  0.92704  1.0000 -0.1519662195
C   C79       1.0  0.46090  0.65060  0.92704  1.0000 -0.1519662195
C   C80       1.0  0.53910  0.34940  0.92704  1.0000 -0.1519662195
C   C81       1.0  0.34940  0.53910  0.57296  1.0000 -0.1519662195
C   C82       1.0  0.65060  0.46090  0.57296  1.0000 -0.1519662195
C   C83       1.0  0.03910  0.15060  0.57296  1.0000 -0.1519662195
C   C84       1.0  0.96090  0.84940  0.57296  1.0000 -0.1519662195
C   C85       1.0  0.39210  0.45650  0.03951  1.0000 -0.1519662195
C   C86       1.0  0.60790  0.54350  0.03951  1.0000 -0.1519662195
C   C87       1.0  0.04350  0.89210  0.03951  1.0000 -0.1519662195
C   C88       1.0  0.95650  0.10790  0.03951  1.0000 -0.1519662195
C   C89       1.0  0.10790  0.95650  0.46049  1.0000 -0.1519662195
C   C90       1.0  0.89210  0.04350  0.46049  1.0000 -0.1519662195
C   C91       1.0  0.45650  0.39210  0.46049  1.0000 -0.1519662195
C   C92       1.0  0.54350  0.60790  0.46049  1.0000 -0.1519662195
C   C93       1.0  0.10790  0.04350  0.96049  1.0000 -0.1519662195
C   C94       1.0  0.89210  0.95650  0.96049  1.0000 -0.1519662195
C   C95       1.0  0.45650  0.60790  0.96049  1.0000 -0.1519662195
C   C96       1.0  0.54350  0.39210  0.96049  1.0000 -0.1519662195
C   C97       1.0  0.39210  0.54350  0.53951  1.0000 -0.1519662195
C   C98       1.0  0.60790  0.45650  0.53951  1.0000 -0.1519662195
C   C99       1.0  0.04350  0.10790  0.53951  1.0000 -0.1519662195
C   C100      1.0  0.95650  0.89210  0.53951  1.0000 -0.1519662195
C   C101      1.0  0.31600  0.52140  0.13707  1.0000 0.048886721
C   C102      1.0  0.68400  0.47860  0.13707  1.0000 0.048886721
C   C103      1.0  0.97860  0.81600  0.13707  1.0000 0.048886721
C   C104      1.0  0.02140  0.18400  0.13707  1.0000 0.048886721
C   C105      1.0  0.18400  0.02140  0.36293  1.0000 0.048886721
C   C106      1.0  0.81600  0.97860  0.36293  1.0000 0.048886721
C   C107      1.0  0.52140  0.31600  0.36293  1.0000 0.048886721
C   C108      1.0  0.47860  0.68400  0.36293  1.0000 0.048886721
C   C109      1.0  0.18400  0.97860  0.86293  1.0000 0.048886721
C   C110      1.0  0.81600  0.02140  0.86293  1.0000 0.048886721
C   C111      1.0  0.52140  0.68400  0.86293  1.0000 0.048886721
C   C112      1.0  0.47860  0.31600  0.86293  1.0000 0.048886721
C   C113      1.0  0.31600  0.47860  0.63707  1.0000 0.048886721
C   C114      1.0  0.68400  0.52140  0.63707  1.0000 0.048886721
C   C115      1.0  0.97860  0.18400  0.63707  1.0000 0.048886721
C   C116      1.0  0.02140  0.81600  0.63707  1.0000 0.048886721
C   C117      1.0  0.29580  0.58270  0.15591  1.0000 -0.1223499859
C   C118      1.0  0.70420  0.41730  0.15591  1.0000 -0.1223499859
C   C119      1.0  0.91730  0.79580  0.15591  1.0000 -0.1223499859
C   C120      1.0  0.08270  0.20420  0.15591  1.0000 -0.1223499859
C   C121      1.0  0.20420  0.08270  0.34409  1.0000 -0.1223499859
C   C122      1.0  0.79580  0.91730  0.34409  1.0000 -0.1223499859
C   C123      1.0  0.58270  0.29580  0.34409  1.0000 -0.1223499859
C   C124      1.0  0.41730  0.70420  0.34409  1.0000 -0.1223499859
C   C125      1.0  0.20420  0.91730  0.84409  1.0000 -0.1223499859
C   C126      1.0  0.79580  0.08270  0.84409  1.0000 -0.1223499859
C   C127      1.0  0.58270  0.70420  0.84409  1.0000 -0.1223499859
C   C128      1.0  0.41730  0.29580  0.84409  1.0000 -0.1223499859
C   C129      1.0  0.29580  0.41730  0.65591  1.0000 -0.1223499859
C   C130      1.0  0.70420  0.58270  0.65591  1.0000 -0.1223499859
C   C131      1.0  0.91730  0.20420  0.65591  1.0000 -0.1223499859
C   C132      1.0  0.08270  0.79580  0.65591  1.0000 -0.1223499859
C   C133      1.0  0.26830  0.58310  0.19437  1.0000 -0.0272610749
C   C134      1.0  0.73170  0.41690  0.19437  1.0000 -0.0272610749
C   C135      1.0  0.91690  0.76830  0.19437  1.0000 -0.0272610749
C   C136      1.0  0.08310  0.23170  0.19437  1.0000 -0.0272610749
C   C137      1.0  0.23170  0.08310  0.30563  1.0000 -0.0272610749
C   C138      1.0  0.76830  0.91690  0.30563  1.0000 -0.0272610749
C   C139      1.0  0.58310  0.26830  0.30563  1.0000 -0.0272610749
C   C140      1.0  0.41690  0.73170  0.30563  1.0000 -0.0272610749
C   C141      1.0  0.23170  0.91690  0.80563  1.0000 -0.0272610749
C   C142      1.0  0.76830  0.08310  0.80563  1.0000 -0.0272610749
C   C143      1.0  0.58310  0.73170  0.80563  1.0000 -0.0272610749
C   C144      1.0  0.41690  0.26830  0.80563  1.0000 -0.0272610749
C   C145      1.0  0.26830  0.41690  0.69437  1.0000 -0.0272610749
C   C146      1.0  0.73170  0.58310  0.69437  1.0000 -0.0272610749
C   C147      1.0  0.91690  0.23170  0.69437  1.0000 -0.0272610749
C   C148      1.0  0.08310  0.76830  0.69437  1.0000 -0.0272610749
C   C149      1.0  0.26040  0.51920  0.21349  1.0000 -0.0818030366
C   C150      1.0  0.73960  0.48080  0.21349  1.0000 -0.0818030366
C   C151      1.0  0.98080  0.76040  0.21349  1.0000 -0.0818030366
C   C152      1.0  0.01920  0.23960  0.21349  1.0000 -0.0818030366
C   C153      1.0  0.23960  0.01920  0.28651  1.0000 -0.0818030366
C   C154      1.0  0.76040  0.98080  0.28651  1.0000 -0.0818030366
C   C155      1.0  0.51920  0.26040  0.28651  1.0000 -0.0818030366
C   C156      1.0  0.48080  0.73960  0.28651  1.0000 -0.0818030366
C   C157      1.0  0.23960  0.98080  0.78651  1.0000 -0.0818030366
C   C158      1.0  0.76040  0.01920  0.78651  1.0000 -0.0818030366
C   C159      1.0  0.51920  0.73960  0.78651  1.0000 -0.0818030366
C   C160      1.0  0.48080  0.26040  0.78651  1.0000 -0.0818030366
C   C161      1.0  0.26040  0.48080  0.71349  1.0000 -0.0818030366
C   C162      1.0  0.73960  0.51920  0.71349  1.0000 -0.0818030366
C   C163      1.0  0.98080  0.23960  0.71349  1.0000 -0.0818030366
C   C164      1.0  0.01920  0.76040  0.71349  1.0000 -0.0818030366
C   C165      1.0  0.28070  0.45510  0.19661  1.0000 -0.0386762864
C   C166      1.0  0.71930  0.54490  0.19661  1.0000 -0.0386762864
C   C167      1.0  0.04490  0.78070  0.19661  1.0000 -0.0386762864
C   C168      1.0  0.95510  0.21930  0.19661  1.0000 -0.0386762864
C   C169      1.0  0.21930  0.95510  0.30339  1.0000 -0.0386762864
C   C170      1.0  0.78070  0.04490  0.30339  1.0000 -0.0386762864
C   C171      1.0  0.45510  0.28070  0.30339  1.0000 -0.0386762864
C   C172      1.0  0.54490  0.71930  0.30339  1.0000 -0.0386762864
C   C173      1.0  0.21930  0.04490  0.80339  1.0000 -0.0386762864
C   C174      1.0  0.78070  0.95510  0.80339  1.0000 -0.0386762864
C   C175      1.0  0.45510  0.71930  0.80339  1.0000 -0.0386762864
C   C176      1.0  0.54490  0.28070  0.80339  1.0000 -0.0386762864
C   C177      1.0  0.28070  0.54490  0.69661  1.0000 -0.0386762864
C   C178      1.0  0.71930  0.45510  0.69661  1.0000 -0.0386762864
C   C179      1.0  0.04490  0.21930  0.69661  1.0000 -0.0386762864
C   C180      1.0  0.95510  0.78070  0.69661  1.0000 -0.0386762864
C   C181      1.0  0.30860  0.45720  0.15777  1.0000 -0.1223499859
C   C182      1.0  0.69140  0.54280  0.15777  1.0000 -0.1223499859
C   C183      1.0  0.04280  0.80860  0.15777  1.0000 -0.1223499859
C   C184      1.0  0.95720  0.19140  0.15777  1.0000 -0.1223499859
C   C185      1.0  0.19140  0.95720  0.34223  1.0000 -0.1223499859
C   C186      1.0  0.80860  0.04280  0.34223  1.0000 -0.1223499859
C   C187      1.0  0.45720  0.30860  0.34223  1.0000 -0.1223499859
C   C188      1.0  0.54280  0.69140  0.34223  1.0000 -0.1223499859
C   C189      1.0  0.19140  0.04280  0.84223  1.0000 -0.1223499859
C   C190      1.0  0.80860  0.95720  0.84223  1.0000 -0.1223499859
C   C191      1.0  0.45720  0.69140  0.84223  1.0000 -0.1223499859
C   C192      1.0  0.54280  0.30860  0.84223  1.0000 -0.1223499859
C   C193      1.0  0.30860  0.54280  0.65777  1.0000 -0.1223499859
C   C194      1.0  0.69140  0.45720  0.65777  1.0000 -0.1223499859
C   C195      1.0  0.04280  0.19140  0.65777  1.0000 -0.1223499859
C   C196      1.0  0.95720  0.80860  0.65777  1.0000 -0.1223499859
C   C197      1.0  0.25190  0.65070  0.21502  1.0000 0.5834563098
C   C198      1.0  0.74810  0.34930  0.21502  1.0000 0.5834563098
C   C199      1.0  0.84930  0.75190  0.21502  1.0000 0.5834563098
C   C200      1.0  0.15070  0.24810  0.21502  1.0000 0.5834563098
C   C201      1.0  0.24810  0.15070  0.28498  1.0000 0.5834563098
C   C202      1.0  0.75190  0.84930  0.28498  1.0000 0.5834563098
C   C203      1.0  0.65070  0.25190  0.28498  1.0000 0.5834563098
C   C204      1.0  0.34930  0.74810  0.28498  1.0000 0.5834563098
C   C205      1.0  0.24810  0.84930  0.78498  1.0000 0.5834563098
C   C206      1.0  0.75190  0.15070  0.78498  1.0000 0.5834563098
C   C207      1.0  0.65070  0.74810  0.78498  1.0000 0.5834563098
C   C208      1.0  0.34930  0.25190  0.78498  1.0000 0.5834563098
C   C209      1.0  0.25190  0.34930  0.71502  1.0000 0.5834563098
C   C210      1.0  0.74810  0.65070  0.71502  1.0000 0.5834563098
C   C211      1.0  0.84930  0.24810  0.71502  1.0000 0.5834563098
C   C212      1.0  0.15070  0.75190  0.71502  1.0000 0.5834563098
C   C213      1.0  0.27670  0.38720  0.21828  1.0000 0.5884350261
C   C214      1.0  0.72330  0.61280  0.21828  1.0000 0.5884350261
C   C215      1.0  0.11280  0.77670  0.21828  1.0000 0.5884350261
C   C216      1.0  0.88720  0.22330  0.21828  1.0000 0.5884350261
C   C217      1.0  0.22330  0.88720  0.28172  1.0000 0.5884350261
C   C218      1.0  0.77670  0.11280  0.28172  1.0000 0.5884350261
C   C219      1.0  0.38720  0.27670  0.28172  1.0000 0.5884350261
C   C220      1.0  0.61280  0.72330  0.28172  1.0000 0.5884350261
C   C221      1.0  0.22330  0.11280  0.78172  1.0000 0.5884350261
C   C222      1.0  0.77670  0.88720  0.78172  1.0000 0.5884350261
C   C223      1.0  0.38720  0.72330  0.78172  1.0000 0.5884350261
C   C224      1.0  0.61280  0.27670  0.78172  1.0000 0.5884350261
C   C225      1.0  0.27670  0.61280  0.71828  1.0000 0.5884350261
C   C226      1.0  0.72330  0.38720  0.71828  1.0000 0.5884350261
C   C227      1.0  0.11280  0.22330  0.71828  1.0000 0.5884350261
C   C228      1.0  0.88720  0.77670  0.71828  1.0000 0.5884350261
O   O1        1.0  0.30577  0.33454  0.20193  1.0000 -0.5314393097
O   O2        1.0  0.69423  0.66546  0.20193  1.0000 -0.5314393097
O   O3        1.0  0.16546  0.80577  0.20193  1.0000 -0.5314393097
O   O4        1.0  0.83454  0.19423  0.20193  1.0000 -0.5314393097
O   O5        1.0  0.19423  0.83454  0.29807  1.0000 -0.5314393097
O   O6        1.0  0.80577  0.16546  0.29807  1.0000 -0.5314393097
O   O7        1.0  0.33454  0.30577  0.29807  1.0000 -0.5314393097
O   O8        1.0  0.66546  0.69423  0.29807  1.0000 -0.5314393097
O   O9        1.0  0.19423  0.16546  0.79807  1.0000 -0.5314393097
O   O10       1.0  0.80577  0.83454  0.79807  1.0000 -0.5314393097
O   O11       1.0  0.33454  0.69423  0.79807  1.0000 -0.5314393097
O   O12       1.0  0.66546  0.30577  0.79807  1.0000 -0.5314393097
O   O13       1.0  0.30577  0.66546  0.70193  1.0000 -0.5314393097
O   O14       1.0  0.69423  0.33454  0.70193  1.0000 -0.5314393097
O   O15       1.0  0.16546  0.19423  0.70193  1.0000 -0.5314393097
O   O16       1.0  0.83454  0.80577  0.70193  1.0000 -0.5314393097
O   O17       1.0  0.24453  0.38711  0.25159  1.0000 -0.5140542516
O   O18       1.0  0.75547  0.61289  0.25159  1.0000 -0.5140542516
O   O19       1.0  0.11289  0.74453  0.25159  1.0000 -0.5140542516
O   O20       1.0  0.88711  0.25547  0.25159  1.0000 -0.5140542516
O   O21       1.0  0.25547  0.88711  0.24841  1.0000 -0.5140542516
O   O22       1.0  0.74453  0.11289  0.24841  1.0000 -0.5140542516
O   O23       1.0  0.38711  0.24453  0.24841  1.0000 -0.5140542516
O   O24       1.0  0.61289  0.75547  0.24841  1.0000 -0.5140542516
O   O25       1.0  0.25547  0.11289  0.74841  1.0000 -0.5140542516
O   O26       1.0  0.74453  0.88711  0.74841  1.0000 -0.5140542516
O   O27       1.0  0.38711  0.75547  0.74841  1.0000 -0.5140542516
O   O28       1.0  0.61289  0.24453  0.74841  1.0000 -0.5140542516
O   O29       1.0  0.24453  0.61289  0.75159  1.0000 -0.5140542516
O   O30       1.0  0.75547  0.38711  0.75159  1.0000 -0.5140542516
O   O31       1.0  0.11289  0.25547  0.75159  1.0000 -0.5140542516
O   O32       1.0  0.88711  0.74453  0.75159  1.0000 -0.5140542516
O   O33       1.0  0.22415  0.64934  0.24876  1.0000 -0.5038539597
O   O34       1.0  0.77585  0.35066  0.24876  1.0000 -0.5038539597
O   O35       1.0  0.85066  0.72415  0.24876  1.0000 -0.5038539597
O   O36       1.0  0.14934  0.27585  0.24876  1.0000 -0.5038539597
O   O37       1.0  0.27585  0.14934  0.25124  1.0000 -0.5038539597
O   O38       1.0  0.72415  0.85066  0.25124  1.0000 -0.5038539597
O   O39       1.0  0.64934  0.22415  0.25124  1.0000 -0.5038539597
O   O40       1.0  0.35066  0.77585  0.25124  1.0000 -0.5038539597
O   O41       1.0  0.27585  0.85066  0.75124  1.0000 -0.5038539597
O   O42       1.0  0.72415  0.14934  0.75124  1.0000 -0.5038539597
O   O43       1.0  0.64934  0.77585  0.75124  1.0000 -0.5038539597
O   O44       1.0  0.35066  0.22415  0.75124  1.0000 -0.5038539597
O   O45       1.0  0.22415  0.35066  0.74876  1.0000 -0.5038539597
O   O46       1.0  0.77585  0.64934  0.74876  1.0000 -0.5038539597
O   O47       1.0  0.85066  0.27585  0.74876  1.0000 -0.5038539597
O   O48       1.0  0.14934  0.72415  0.74876  1.0000 -0.5038539597
O   O49       1.0  0.27024  0.70738  0.19561  1.0000 -0.5429318713
O   O50       1.0  0.72976  0.29262  0.19561  1.0000 -0.5429318713
O   O51       1.0  0.79262  0.77024  0.19561  1.0000 -0.5429318713
O   O52       1.0  0.20738  0.22976  0.19561  1.0000 -0.5429318713
O   O53       1.0  0.22976  0.20738  0.30439  1.0000 -0.5429318713
O   O54       1.0  0.77024  0.79262  0.30439  1.0000 -0.5429318713
O   O55       1.0  0.70738  0.27024  0.30439  1.0000 -0.5429318713
O   O56       1.0  0.29262  0.72976  0.30439  1.0000 -0.5429318713
O   O57       1.0  0.22976  0.79262  0.80439  1.0000 -0.5429318713
O   O58       1.0  0.77024  0.20738  0.80439  1.0000 -0.5429318713
O   O59       1.0  0.70738  0.72976  0.80439  1.0000 -0.5429318713
O   O60       1.0  0.29262  0.27024  0.80439  1.0000 -0.5429318713
O   O61       1.0  0.27024  0.29262  0.69561  1.0000 -0.5429318713
O   O62       1.0  0.72976  0.70738  0.69561  1.0000 -0.5429318713
O   O63       1.0  0.79262  0.22976  0.69561  1.0000 -0.5429318713
O   O64       1.0  0.20738  0.77024  0.69561  1.0000 -0.5429318713
