# DDEC6 charges by PACMAN v1.1 (https://github.com/mtap-research/PACMAN-charge/)
data_2011[Cu][nts]3[ASR]1
_chemical_formula_sum              "Cu24 H120 C288 N24 O96"
_cell_length_a       30.2005
_cell_length_b       30.2005
_cell_length_c       30.2005
_cell_angle_alpha    60
_cell_angle_beta     60
_cell_angle_gamma    60

_symmetry_space_group_name_H-M    "P 1"
_symmetry_Int_Tables_number       1

loop_
  _symmetry_equiv_pos_as_xyz
  'x, y, z'

loop_
  _atom_site_type_symbol
  _atom_site_label
  _atom_site_symmetry_multiplicity
  _atom_site_fract_x
  _atom_site_fract_y
  _atom_site_fract_z
  _atom_site_occupancy
  _atom_site_charge
Cu  Cu1       1.0  0.73746  0.00000  0.26254  1.0000 0.8783362158
Cu  Cu2       1.0  0.26254  0.73746  0.00000  1.0000 0.8783362158
Cu  Cu3       1.0  0.00000  0.26254  0.73746  1.0000 0.8783362158
Cu  Cu4       1.0  0.26254  0.00000  0.00000  1.0000 0.8783362158
Cu  Cu5       1.0  0.73746  0.00000  0.00000  1.0000 0.8783362158
Cu  Cu6       1.0  0.00000  0.73746  0.26254  1.0000 0.8783362158
Cu  Cu7       1.0  0.73746  0.26254  0.00000  1.0000 0.8783362158
Cu  Cu8       1.0  0.00000  0.00000  0.73746  1.0000 0.8783362158
Cu  Cu9       1.0  0.00000  0.00000  0.26254  1.0000 0.8783362158
Cu  Cu10      1.0  0.00000  0.73746  0.00000  1.0000 0.8783362158
Cu  Cu11      1.0  0.26254  0.00000  0.73746  1.0000 0.8783362158
Cu  Cu12      1.0  0.00000  0.26254  0.00000  1.0000 0.8783362158
Cu  Cu13      1.0  0.64992  0.00000  0.35008  1.0000 0.8634874271
Cu  Cu14      1.0  0.35008  0.64992  0.00000  1.0000 0.8634874271
Cu  Cu15      1.0  0.00000  0.35008  0.64992  1.0000 0.8634874271
Cu  Cu16      1.0  0.35008  0.00000  0.00000  1.0000 0.8634874271
Cu  Cu17      1.0  0.64992  0.00000  0.00000  1.0000 0.8634874271
Cu  Cu18      1.0  0.00000  0.64992  0.35008  1.0000 0.8634874271
Cu  Cu19      1.0  0.64992  0.35008  0.00000  1.0000 0.8634874271
Cu  Cu20      1.0  0.00000  0.00000  0.64992  1.0000 0.8634874271
Cu  Cu21      1.0  0.00000  0.00000  0.35008  1.0000 0.8634874271
Cu  Cu22      1.0  0.00000  0.64992  0.00000  1.0000 0.8634874271
Cu  Cu23      1.0  0.35008  0.00000  0.64992  1.0000 0.8634874271
Cu  Cu24      1.0  0.00000  0.35008  0.00000  1.0000 0.8634874271
H   H1        1.0  0.68580  0.98340  0.16540  1.0000 0.1296127943
H   H2        1.0  0.16540  0.68580  0.98340  1.0000 0.1296127943
H   H3        1.0  0.98340  0.16540  0.68580  1.0000 0.1296127943
H   H4        1.0  0.31420  0.01660  0.83460  1.0000 0.1296127943
H   H5        1.0  0.83460  0.83460  0.01660  1.0000 0.1296127943
H   H6        1.0  0.83460  0.83460  0.31420  1.0000 0.1296127943
H   H7        1.0  0.83460  0.31420  0.83460  1.0000 0.1296127943
H   H8        1.0  0.83460  0.01660  0.83460  1.0000 0.1296127943
H   H9        1.0  0.01660  0.83460  0.31420  1.0000 0.1296127943
H   H10       1.0  0.01660  0.83460  0.83460  1.0000 0.1296127943
H   H11       1.0  0.31420  0.83460  0.83460  1.0000 0.1296127943
H   H12       1.0  0.83460  0.31420  0.01660  1.0000 0.1296127943
H   H13       1.0  0.98340  0.68580  0.16540  1.0000 0.1296127943
H   H14       1.0  0.16540  0.16540  0.68580  1.0000 0.1296127943
H   H15       1.0  0.16540  0.16540  0.98340  1.0000 0.1296127943
H   H16       1.0  0.16540  0.98340  0.68580  1.0000 0.1296127943
H   H17       1.0  0.68580  0.16540  0.16540  1.0000 0.1296127943
H   H18       1.0  0.98340  0.16540  0.16540  1.0000 0.1296127943
H   H19       1.0  0.68580  0.16540  0.98340  1.0000 0.1296127943
H   H20       1.0  0.16540  0.68580  0.16540  1.0000 0.1296127943
H   H21       1.0  0.16540  0.98340  0.16540  1.0000 0.1296127943
H   H22       1.0  0.01660  0.31420  0.83460  1.0000 0.1296127943
H   H23       1.0  0.31420  0.83460  0.01660  1.0000 0.1296127943
H   H24       1.0  0.83460  0.01660  0.31420  1.0000 0.1296127943
H   H25       1.0  0.55830  0.96970  0.30310  1.0000 0.1296127943
H   H26       1.0  0.30310  0.55830  0.96970  1.0000 0.1296127943
H   H27       1.0  0.96970  0.30310  0.55830  1.0000 0.1296127943
H   H28       1.0  0.44170  0.03030  0.83110  1.0000 0.1296127943
H   H29       1.0  0.69690  0.83110  0.03030  1.0000 0.1296127943
H   H30       1.0  0.83110  0.69690  0.44170  1.0000 0.1296127943
H   H31       1.0  0.69690  0.44170  0.83110  1.0000 0.1296127943
H   H32       1.0  0.83110  0.03030  0.69690  1.0000 0.1296127943
H   H33       1.0  0.03030  0.83110  0.44170  1.0000 0.1296127943
H   H34       1.0  0.03030  0.69690  0.83110  1.0000 0.1296127943
H   H35       1.0  0.44170  0.83110  0.69690  1.0000 0.1296127943
H   H36       1.0  0.83110  0.44170  0.03030  1.0000 0.1296127943
H   H37       1.0  0.96970  0.55830  0.16890  1.0000 0.1296127943
H   H38       1.0  0.30310  0.16890  0.55830  1.0000 0.1296127943
H   H39       1.0  0.16890  0.30310  0.96970  1.0000 0.1296127943
H   H40       1.0  0.16890  0.96970  0.55830  1.0000 0.1296127943
H   H41       1.0  0.55830  0.30310  0.16890  1.0000 0.1296127943
H   H42       1.0  0.96970  0.16890  0.30310  1.0000 0.1296127943
H   H43       1.0  0.55830  0.16890  0.96970  1.0000 0.1296127943
H   H44       1.0  0.16890  0.55830  0.30310  1.0000 0.1296127943
H   H45       1.0  0.30310  0.96970  0.16890  1.0000 0.1296127943
H   H46       1.0  0.03030  0.44170  0.69690  1.0000 0.1296127943
H   H47       1.0  0.44170  0.69690  0.03030  1.0000 0.1296127943
H   H48       1.0  0.69690  0.03030  0.44170  1.0000 0.1296127943
H   H49       1.0  0.44170  0.03030  0.69690  1.0000 0.1296127943
H   H50       1.0  0.69690  0.44170  0.03030  1.0000 0.1296127943
H   H51       1.0  0.03030  0.69690  0.44170  1.0000 0.1296127943
H   H52       1.0  0.55830  0.96970  0.16890  1.0000 0.1296127943
H   H53       1.0  0.30310  0.16890  0.96970  1.0000 0.1296127943
H   H54       1.0  0.16890  0.30310  0.55830  1.0000 0.1296127943
H   H55       1.0  0.30310  0.55830  0.16890  1.0000 0.1296127943
H   H56       1.0  0.16890  0.96970  0.30310  1.0000 0.1296127943
H   H57       1.0  0.96970  0.16890  0.55830  1.0000 0.1296127943
H   H58       1.0  0.96970  0.30310  0.16890  1.0000 0.1296127943
H   H59       1.0  0.55830  0.16890  0.30310  1.0000 0.1296127943
H   H60       1.0  0.16890  0.55830  0.96970  1.0000 0.1296127943
H   H61       1.0  0.03030  0.44170  0.83110  1.0000 0.1296127943
H   H62       1.0  0.69690  0.83110  0.44170  1.0000 0.1296127943
H   H63       1.0  0.83110  0.69690  0.03030  1.0000 0.1296127943
H   H64       1.0  0.83110  0.03030  0.44170  1.0000 0.1296127943
H   H65       1.0  0.44170  0.69690  0.83110  1.0000 0.1296127943
H   H66       1.0  0.03030  0.83110  0.69690  1.0000 0.1296127943
H   H67       1.0  0.44170  0.83110  0.03030  1.0000 0.1296127943
H   H68       1.0  0.83110  0.44170  0.69690  1.0000 0.1296127943
H   H69       1.0  0.69690  0.03030  0.83110  1.0000 0.1296127943
H   H70       1.0  0.96970  0.55830  0.30310  1.0000 0.1296127943
H   H71       1.0  0.55830  0.30310  0.96970  1.0000 0.1296127943
H   H72       1.0  0.30310  0.96970  0.55830  1.0000 0.1296127943
H   H73       1.0  0.43910  0.93910  0.23430  1.0000 0.3122471916
H   H74       1.0  0.23430  0.43910  0.93910  1.0000 0.3122471916
H   H75       1.0  0.93910  0.23430  0.43910  1.0000 0.3122471916
H   H76       1.0  0.56090  0.06090  0.61250  1.0000 0.3122471916
H   H77       1.0  0.76570  0.61250  0.06090  1.0000 0.3122471916
H   H78       1.0  0.61250  0.76570  0.56090  1.0000 0.3122471916
H   H79       1.0  0.76570  0.56090  0.61250  1.0000 0.3122471916
H   H80       1.0  0.61250  0.06090  0.76570  1.0000 0.3122471916
H   H81       1.0  0.06090  0.61250  0.56090  1.0000 0.3122471916
H   H82       1.0  0.06090  0.76570  0.61250  1.0000 0.3122471916
H   H83       1.0  0.56090  0.61250  0.76570  1.0000 0.3122471916
H   H84       1.0  0.61250  0.56090  0.06090  1.0000 0.3122471916
H   H85       1.0  0.93910  0.43910  0.38750  1.0000 0.3122471916
H   H86       1.0  0.23430  0.38750  0.43910  1.0000 0.3122471916
H   H87       1.0  0.38750  0.23430  0.93910  1.0000 0.3122471916
H   H88       1.0  0.38750  0.93910  0.43910  1.0000 0.3122471916
H   H89       1.0  0.43910  0.23430  0.38750  1.0000 0.3122471916
H   H90       1.0  0.93910  0.38750  0.23430  1.0000 0.3122471916
H   H91       1.0  0.43910  0.38750  0.93910  1.0000 0.3122471916
H   H92       1.0  0.38750  0.43910  0.23430  1.0000 0.3122471916
H   H93       1.0  0.23430  0.93910  0.38750  1.0000 0.3122471916
H   H94       1.0  0.06090  0.56090  0.76570  1.0000 0.3122471916
H   H95       1.0  0.56090  0.76570  0.06090  1.0000 0.3122471916
H   H96       1.0  0.76570  0.06090  0.56090  1.0000 0.3122471916
H   H97       1.0  0.56090  0.06090  0.76570  1.0000 0.3122471916
H   H98       1.0  0.76570  0.56090  0.06090  1.0000 0.3122471916
H   H99       1.0  0.06090  0.76570  0.56090  1.0000 0.3122471916
H   H100      1.0  0.43910  0.93910  0.38750  1.0000 0.3122471916
H   H101      1.0  0.23430  0.38750  0.93910  1.0000 0.3122471916
H   H102      1.0  0.38750  0.23430  0.43910  1.0000 0.3122471916
H   H103      1.0  0.23430  0.43910  0.38750  1.0000 0.3122471916
H   H104      1.0  0.38750  0.93910  0.23430  1.0000 0.3122471916
H   H105      1.0  0.93910  0.38750  0.43910  1.0000 0.3122471916
H   H106      1.0  0.93910  0.23430  0.38750  1.0000 0.3122471916
H   H107      1.0  0.43910  0.38750  0.23430  1.0000 0.3122471916
H   H108      1.0  0.38750  0.43910  0.93910  1.0000 0.3122471916
H   H109      1.0  0.06090  0.56090  0.61250  1.0000 0.3122471916
H   H110      1.0  0.76570  0.61250  0.56090  1.0000 0.3122471916
H   H111      1.0  0.61250  0.76570  0.06090  1.0000 0.3122471916
H   H112      1.0  0.61250  0.06090  0.56090  1.0000 0.3122471916
H   H113      1.0  0.56090  0.76570  0.61250  1.0000 0.3122471916
H   H114      1.0  0.06090  0.61250  0.76570  1.0000 0.3122471916
H   H115      1.0  0.56090  0.61250  0.06090  1.0000 0.3122471916
H   H116      1.0  0.61250  0.56090  0.76570  1.0000 0.3122471916
H   H117      1.0  0.76570  0.06090  0.61250  1.0000 0.3122471916
H   H118      1.0  0.93910  0.43910  0.23430  1.0000 0.3122471916
H   H119      1.0  0.43910  0.23430  0.93910  1.0000 0.3122471916
H   H120      1.0  0.23430  0.93910  0.43910  1.0000 0.3122471916
C   C1        1.0  0.65167  0.98295  0.26429  1.0000 0.5738912868
C   C2        1.0  0.26429  0.65167  0.98295  1.0000 0.5738912868
C   C3        1.0  0.98295  0.26429  0.65167  1.0000 0.5738912868
C   C4        1.0  0.34833  0.01705  0.89891  1.0000 0.5738912868
C   C5        1.0  0.73571  0.89891  0.01705  1.0000 0.5738912868
C   C6        1.0  0.89891  0.73571  0.34833  1.0000 0.5738912868
C   C7        1.0  0.73571  0.34833  0.89891  1.0000 0.5738912868
C   C8        1.0  0.89891  0.01705  0.73571  1.0000 0.5738912868
C   C9        1.0  0.01705  0.89891  0.34833  1.0000 0.5738912868
C   C10       1.0  0.01705  0.73571  0.89891  1.0000 0.5738912868
C   C11       1.0  0.34833  0.89891  0.73571  1.0000 0.5738912868
C   C12       1.0  0.89891  0.34833  0.01705  1.0000 0.5738912868
C   C13       1.0  0.98295  0.65167  0.10109  1.0000 0.5738912868
C   C14       1.0  0.26429  0.10109  0.65167  1.0000 0.5738912868
C   C15       1.0  0.10109  0.26429  0.98295  1.0000 0.5738912868
C   C16       1.0  0.10109  0.98295  0.65167  1.0000 0.5738912868
C   C17       1.0  0.65167  0.26429  0.10109  1.0000 0.5738912868
C   C18       1.0  0.98295  0.10109  0.26429  1.0000 0.5738912868
C   C19       1.0  0.65167  0.10109  0.98295  1.0000 0.5738912868
C   C20       1.0  0.10109  0.65167  0.26429  1.0000 0.5738912868
C   C21       1.0  0.26429  0.98295  0.10109  1.0000 0.5738912868
C   C22       1.0  0.01705  0.34833  0.73571  1.0000 0.5738912868
C   C23       1.0  0.34833  0.73571  0.01705  1.0000 0.5738912868
C   C24       1.0  0.73571  0.01705  0.34833  1.0000 0.5738912868
C   C25       1.0  0.34833  0.01705  0.73571  1.0000 0.5738912868
C   C26       1.0  0.73571  0.34833  0.01705  1.0000 0.5738912868
C   C27       1.0  0.01705  0.73571  0.34833  1.0000 0.5738912868
C   C28       1.0  0.65167  0.98295  0.10109  1.0000 0.5738912868
C   C29       1.0  0.26429  0.10109  0.98295  1.0000 0.5738912868
C   C30       1.0  0.10109  0.26429  0.65167  1.0000 0.5738912868
C   C31       1.0  0.26429  0.65167  0.10109  1.0000 0.5738912868
C   C32       1.0  0.10109  0.98295  0.26429  1.0000 0.5738912868
C   C33       1.0  0.98295  0.10109  0.65167  1.0000 0.5738912868
C   C34       1.0  0.98295  0.26429  0.10109  1.0000 0.5738912868
C   C35       1.0  0.65167  0.10109  0.26429  1.0000 0.5738912868
C   C36       1.0  0.10109  0.65167  0.98295  1.0000 0.5738912868
C   C37       1.0  0.01705  0.34833  0.89891  1.0000 0.5738912868
C   C38       1.0  0.73571  0.89891  0.34833  1.0000 0.5738912868
C   C39       1.0  0.89891  0.73571  0.01705  1.0000 0.5738912868
C   C40       1.0  0.89891  0.01705  0.34833  1.0000 0.5738912868
C   C41       1.0  0.34833  0.73571  0.89891  1.0000 0.5738912868
C   C42       1.0  0.01705  0.89891  0.73571  1.0000 0.5738912868
C   C43       1.0  0.34833  0.89891  0.01705  1.0000 0.5738912868
C   C44       1.0  0.89891  0.34833  0.73571  1.0000 0.5738912868
C   C45       1.0  0.73571  0.01705  0.89891  1.0000 0.5738912868
C   C46       1.0  0.98295  0.65167  0.26429  1.0000 0.5738912868
C   C47       1.0  0.65167  0.26429  0.98295  1.0000 0.5738912868
C   C48       1.0  0.26429  0.98295  0.65167  1.0000 0.5738912868
C   C49       1.0  0.65076  0.97984  0.18470  1.0000 -0.0760433596
C   C50       1.0  0.18470  0.65076  0.97984  1.0000 -0.0760433596
C   C51       1.0  0.97984  0.18470  0.65076  1.0000 -0.0760433596
C   C52       1.0  0.34924  0.02016  0.81530  1.0000 -0.0760433596
C   C53       1.0  0.81530  0.81530  0.02016  1.0000 -0.0760433596
C   C54       1.0  0.81530  0.81530  0.34924  1.0000 -0.0760433596
C   C55       1.0  0.81530  0.34924  0.81530  1.0000 -0.0760433596
C   C56       1.0  0.81530  0.02016  0.81530  1.0000 -0.0760433596
C   C57       1.0  0.02016  0.81530  0.34924  1.0000 -0.0760433596
C   C58       1.0  0.02016  0.81530  0.81530  1.0000 -0.0760433596
C   C59       1.0  0.34924  0.81530  0.81530  1.0000 -0.0760433596
C   C60       1.0  0.81530  0.34924  0.02016  1.0000 -0.0760433596
C   C61       1.0  0.97984  0.65076  0.18470  1.0000 -0.0760433596
C   C62       1.0  0.18470  0.18470  0.65076  1.0000 -0.0760433596
C   C63       1.0  0.18470  0.18470  0.97984  1.0000 -0.0760433596
C   C64       1.0  0.18470  0.97984  0.65076  1.0000 -0.0760433596
C   C65       1.0  0.65076  0.18470  0.18470  1.0000 -0.0760433596
C   C66       1.0  0.97984  0.18470  0.18470  1.0000 -0.0760433596
C   C67       1.0  0.65076  0.18470  0.97984  1.0000 -0.0760433596
C   C68       1.0  0.18470  0.65076  0.18470  1.0000 -0.0760433596
C   C69       1.0  0.18470  0.97984  0.18470  1.0000 -0.0760433596
C   C70       1.0  0.02016  0.34924  0.81530  1.0000 -0.0760433596
C   C71       1.0  0.34924  0.81530  0.02016  1.0000 -0.0760433596
C   C72       1.0  0.81530  0.02016  0.34924  1.0000 -0.0760433596
C   C73       1.0  0.62654  0.97742  0.23760  1.0000 -0.0433238016
C   C74       1.0  0.23760  0.62654  0.97742  1.0000 -0.0433238016
C   C75       1.0  0.97742  0.23760  0.62654  1.0000 -0.0433238016
C   C76       1.0  0.37346  0.02258  0.84156  1.0000 -0.0433238016
C   C77       1.0  0.76240  0.84156  0.02258  1.0000 -0.0433238016
C   C78       1.0  0.84156  0.76240  0.37346  1.0000 -0.0433238016
C   C79       1.0  0.76240  0.37346  0.84156  1.0000 -0.0433238016
C   C80       1.0  0.84156  0.02258  0.76240  1.0000 -0.0433238016
C   C81       1.0  0.02258  0.84156  0.37346  1.0000 -0.0433238016
C   C82       1.0  0.02258  0.76240  0.84156  1.0000 -0.0433238016
C   C83       1.0  0.37346  0.84156  0.76240  1.0000 -0.0433238016
C   C84       1.0  0.84156  0.37346  0.02258  1.0000 -0.0433238016
C   C85       1.0  0.97742  0.62654  0.15844  1.0000 -0.0433238016
C   C86       1.0  0.23760  0.15844  0.62654  1.0000 -0.0433238016
C   C87       1.0  0.15844  0.23760  0.97742  1.0000 -0.0433238016
C   C88       1.0  0.15844  0.97742  0.62654  1.0000 -0.0433238016
C   C89       1.0  0.62654  0.23760  0.15844  1.0000 -0.0433238016
C   C90       1.0  0.97742  0.15844  0.23760  1.0000 -0.0433238016
C   C91       1.0  0.62654  0.15844  0.97742  1.0000 -0.0433238016
C   C92       1.0  0.15844  0.62654  0.23760  1.0000 -0.0433238016
C   C93       1.0  0.23760  0.97742  0.15844  1.0000 -0.0433238016
C   C94       1.0  0.02258  0.37346  0.76240  1.0000 -0.0433238016
C   C95       1.0  0.37346  0.76240  0.02258  1.0000 -0.0433238016
C   C96       1.0  0.76240  0.02258  0.37346  1.0000 -0.0433238016
C   C97       1.0  0.37346  0.02258  0.76240  1.0000 -0.0433238016
C   C98       1.0  0.76240  0.37346  0.02258  1.0000 -0.0433238016
C   C99       1.0  0.02258  0.76240  0.37346  1.0000 -0.0433238016
C   C100      1.0  0.62654  0.97742  0.15844  1.0000 -0.0433238016
C   C101      1.0  0.23760  0.15844  0.97742  1.0000 -0.0433238016
C   C102      1.0  0.15844  0.23760  0.62654  1.0000 -0.0433238016
C   C103      1.0  0.23760  0.62654  0.15844  1.0000 -0.0433238016
C   C104      1.0  0.15844  0.97742  0.23760  1.0000 -0.0433238016
C   C105      1.0  0.97742  0.15844  0.62654  1.0000 -0.0433238016
C   C106      1.0  0.97742  0.23760  0.15844  1.0000 -0.0433238016
C   C107      1.0  0.62654  0.15844  0.23760  1.0000 -0.0433238016
C   C108      1.0  0.15844  0.62654  0.97742  1.0000 -0.0433238016
C   C109      1.0  0.02258  0.37346  0.84156  1.0000 -0.0433238016
C   C110      1.0  0.76240  0.84156  0.37346  1.0000 -0.0433238016
C   C111      1.0  0.84156  0.76240  0.02258  1.0000 -0.0433238016
C   C112      1.0  0.84156  0.02258  0.37346  1.0000 -0.0433238016
C   C113      1.0  0.37346  0.76240  0.84156  1.0000 -0.0433238016
C   C114      1.0  0.02258  0.84156  0.76240  1.0000 -0.0433238016
C   C115      1.0  0.37346  0.84156  0.02258  1.0000 -0.0433238016
C   C116      1.0  0.84156  0.37346  0.76240  1.0000 -0.0433238016
C   C117      1.0  0.76240  0.02258  0.84156  1.0000 -0.0433238016
C   C118      1.0  0.97742  0.62654  0.23760  1.0000 -0.0433238016
C   C119      1.0  0.62654  0.23760  0.97742  1.0000 -0.0433238016
C   C120      1.0  0.23760  0.97742  0.62654  1.0000 -0.0433238016
C   C121      1.0  0.57635  0.97045  0.26655  1.0000 -0.1418670931
C   C122      1.0  0.26655  0.57635  0.97045  1.0000 -0.1418670931
C   C123      1.0  0.97045  0.26655  0.57635  1.0000 -0.1418670931
C   C124      1.0  0.42365  0.02955  0.81335  1.0000 -0.1418670931
C   C125      1.0  0.73345  0.81335  0.02955  1.0000 -0.1418670931
C   C126      1.0  0.81335  0.73345  0.42365  1.0000 -0.1418670931
C   C127      1.0  0.73345  0.42365  0.81335  1.0000 -0.1418670931
C   C128      1.0  0.81335  0.02955  0.73345  1.0000 -0.1418670931
C   C129      1.0  0.02955  0.81335  0.42365  1.0000 -0.1418670931
C   C130      1.0  0.02955  0.73345  0.81335  1.0000 -0.1418670931
C   C131      1.0  0.42365  0.81335  0.73345  1.0000 -0.1418670931
C   C132      1.0  0.81335  0.42365  0.02955  1.0000 -0.1418670931
C   C133      1.0  0.97045  0.57635  0.18665  1.0000 -0.1418670931
C   C134      1.0  0.26655  0.18665  0.57635  1.0000 -0.1418670931
C   C135      1.0  0.18665  0.26655  0.97045  1.0000 -0.1418670931
C   C136      1.0  0.18665  0.97045  0.57635  1.0000 -0.1418670931
C   C137      1.0  0.57635  0.26655  0.18665  1.0000 -0.1418670931
C   C138      1.0  0.97045  0.18665  0.26655  1.0000 -0.1418670931
C   C139      1.0  0.57635  0.18665  0.97045  1.0000 -0.1418670931
C   C140      1.0  0.18665  0.57635  0.26655  1.0000 -0.1418670931
C   C141      1.0  0.26655  0.97045  0.18665  1.0000 -0.1418670931
C   C142      1.0  0.02955  0.42365  0.73345  1.0000 -0.1418670931
C   C143      1.0  0.42365  0.73345  0.02955  1.0000 -0.1418670931
C   C144      1.0  0.73345  0.02955  0.42365  1.0000 -0.1418670931
C   C145      1.0  0.42365  0.02955  0.73345  1.0000 -0.1418670931
C   C146      1.0  0.73345  0.42365  0.02955  1.0000 -0.1418670931
C   C147      1.0  0.02955  0.73345  0.42365  1.0000 -0.1418670931
C   C148      1.0  0.57635  0.97045  0.18665  1.0000 -0.1418670931
C   C149      1.0  0.26655  0.18665  0.97045  1.0000 -0.1418670931
C   C150      1.0  0.18665  0.26655  0.57635  1.0000 -0.1418670931
C   C151      1.0  0.26655  0.57635  0.18665  1.0000 -0.1418670931
C   C152      1.0  0.18665  0.97045  0.26655  1.0000 -0.1418670931
C   C153      1.0  0.97045  0.18665  0.57635  1.0000 -0.1418670931
C   C154      1.0  0.97045  0.26655  0.18665  1.0000 -0.1418670931
C   C155      1.0  0.57635  0.18665  0.26655  1.0000 -0.1418670931
C   C156      1.0  0.18665  0.57635  0.97045  1.0000 -0.1418670931
C   C157      1.0  0.02955  0.42365  0.81335  1.0000 -0.1418670931
C   C158      1.0  0.73345  0.81335  0.42365  1.0000 -0.1418670931
C   C159      1.0  0.81335  0.73345  0.02955  1.0000 -0.1418670931
C   C160      1.0  0.81335  0.02955  0.42365  1.0000 -0.1418670931
C   C161      1.0  0.42365  0.73345  0.81335  1.0000 -0.1418670931
C   C162      1.0  0.02955  0.81335  0.73345  1.0000 -0.1418670931
C   C163      1.0  0.42365  0.81335  0.02955  1.0000 -0.1418670931
C   C164      1.0  0.81335  0.42365  0.73345  1.0000 -0.1418670931
C   C165      1.0  0.73345  0.02955  0.81335  1.0000 -0.1418670931
C   C166      1.0  0.97045  0.57635  0.26655  1.0000 -0.1418670931
C   C167      1.0  0.57635  0.26655  0.97045  1.0000 -0.1418670931
C   C168      1.0  0.26655  0.97045  0.57635  1.0000 -0.1418670931
C   C169      1.0  0.55290  0.96490  0.24110  1.0000 0.101147562
C   C170      1.0  0.24110  0.55290  0.96490  1.0000 0.101147562
C   C171      1.0  0.96490  0.24110  0.55290  1.0000 0.101147562
C   C172      1.0  0.44710  0.03510  0.75890  1.0000 0.101147562
C   C173      1.0  0.75890  0.75890  0.03510  1.0000 0.101147562
C   C174      1.0  0.75890  0.75890  0.44710  1.0000 0.101147562
C   C175      1.0  0.75890  0.44710  0.75890  1.0000 0.101147562
C   C176      1.0  0.75890  0.03510  0.75890  1.0000 0.101147562
C   C177      1.0  0.03510  0.75890  0.44710  1.0000 0.101147562
C   C178      1.0  0.03510  0.75890  0.75890  1.0000 0.101147562
C   C179      1.0  0.44710  0.75890  0.75890  1.0000 0.101147562
C   C180      1.0  0.75890  0.44710  0.03510  1.0000 0.101147562
C   C181      1.0  0.96490  0.55290  0.24110  1.0000 0.101147562
C   C182      1.0  0.24110  0.24110  0.55290  1.0000 0.101147562
C   C183      1.0  0.24110  0.24110  0.96490  1.0000 0.101147562
C   C184      1.0  0.24110  0.96490  0.55290  1.0000 0.101147562
C   C185      1.0  0.55290  0.24110  0.24110  1.0000 0.101147562
C   C186      1.0  0.96490  0.24110  0.24110  1.0000 0.101147562
C   C187      1.0  0.55290  0.24110  0.96490  1.0000 0.101147562
C   C188      1.0  0.24110  0.55290  0.24110  1.0000 0.101147562
C   C189      1.0  0.24110  0.96490  0.24110  1.0000 0.101147562
C   C190      1.0  0.03510  0.44710  0.75890  1.0000 0.101147562
C   C191      1.0  0.44710  0.75890  0.03510  1.0000 0.101147562
C   C192      1.0  0.75890  0.03510  0.44710  1.0000 0.101147562
C   C193      1.0  0.50120  0.95600  0.27140  1.0000 -0.1094486486
C   C194      1.0  0.27140  0.50120  0.95600  1.0000 -0.1094486486
C   C195      1.0  0.95600  0.27140  0.50120  1.0000 -0.1094486486
C   C196      1.0  0.49880  0.04400  0.72860  1.0000 -0.1094486486
C   C197      1.0  0.72860  0.72860  0.04400  1.0000 -0.1094486486
C   C198      1.0  0.72860  0.72860  0.49880  1.0000 -0.1094486486
C   C199      1.0  0.72860  0.49880  0.72860  1.0000 -0.1094486486
C   C200      1.0  0.72860  0.04400  0.72860  1.0000 -0.1094486486
C   C201      1.0  0.04400  0.72860  0.49880  1.0000 -0.1094486486
C   C202      1.0  0.04400  0.72860  0.72860  1.0000 -0.1094486486
C   C203      1.0  0.49880  0.72860  0.72860  1.0000 -0.1094486486
C   C204      1.0  0.72860  0.49880  0.04400  1.0000 -0.1094486486
C   C205      1.0  0.95600  0.50120  0.27140  1.0000 -0.1094486486
C   C206      1.0  0.27140  0.27140  0.50120  1.0000 -0.1094486486
C   C207      1.0  0.27140  0.27140  0.95600  1.0000 -0.1094486486
C   C208      1.0  0.27140  0.95600  0.50120  1.0000 -0.1094486486
C   C209      1.0  0.50120  0.27140  0.27140  1.0000 -0.1094486486
C   C210      1.0  0.95600  0.27140  0.27140  1.0000 -0.1094486486
C   C211      1.0  0.50120  0.27140  0.95600  1.0000 -0.1094486486
C   C212      1.0  0.27140  0.50120  0.27140  1.0000 -0.1094486486
C   C213      1.0  0.27140  0.95600  0.27140  1.0000 -0.1094486486
C   C214      1.0  0.04400  0.49880  0.72860  1.0000 -0.1094486486
C   C215      1.0  0.49880  0.72860  0.04400  1.0000 -0.1094486486
C   C216      1.0  0.72860  0.04400  0.49880  1.0000 -0.1094486486
C   C217      1.0  0.45790  0.95190  0.29510  1.0000 -0.1094486486
C   C218      1.0  0.29510  0.45790  0.95190  1.0000 -0.1094486486
C   C219      1.0  0.95190  0.29510  0.45790  1.0000 -0.1094486486
C   C220      1.0  0.54210  0.04810  0.70490  1.0000 -0.1094486486
C   C221      1.0  0.70490  0.70490  0.04810  1.0000 -0.1094486486
C   C222      1.0  0.70490  0.70490  0.54210  1.0000 -0.1094486486
C   C223      1.0  0.70490  0.54210  0.70490  1.0000 -0.1094486486
C   C224      1.0  0.70490  0.04810  0.70490  1.0000 -0.1094486486
C   C225      1.0  0.04810  0.70490  0.54210  1.0000 -0.1094486486
C   C226      1.0  0.04810  0.70490  0.70490  1.0000 -0.1094486486
C   C227      1.0  0.54210  0.70490  0.70490  1.0000 -0.1094486486
C   C228      1.0  0.70490  0.54210  0.04810  1.0000 -0.1094486486
C   C229      1.0  0.95190  0.45790  0.29510  1.0000 -0.1094486486
C   C230      1.0  0.29510  0.29510  0.45790  1.0000 -0.1094486486
C   C231      1.0  0.29510  0.29510  0.95190  1.0000 -0.1094486486
C   C232      1.0  0.29510  0.95190  0.45790  1.0000 -0.1094486486
C   C233      1.0  0.45790  0.29510  0.29510  1.0000 -0.1094486486
C   C234      1.0  0.95190  0.29510  0.29510  1.0000 -0.1094486486
C   C235      1.0  0.45790  0.29510  0.95190  1.0000 -0.1094486486
C   C236      1.0  0.29510  0.45790  0.29510  1.0000 -0.1094486486
C   C237      1.0  0.29510  0.95190  0.29510  1.0000 -0.1094486486
C   C238      1.0  0.04810  0.54210  0.70490  1.0000 -0.1094486486
C   C239      1.0  0.54210  0.70490  0.04810  1.0000 -0.1094486486
C   C240      1.0  0.70490  0.04810  0.54210  1.0000 -0.1094486486
C   C241      1.0  0.40250  0.95370  0.32190  1.0000 -0.1418670931
C   C242      1.0  0.32190  0.40250  0.95370  1.0000 -0.1418670931
C   C243      1.0  0.95370  0.32190  0.40250  1.0000 -0.1418670931
C   C244      1.0  0.59750  0.04630  0.67810  1.0000 -0.1418670931
C   C245      1.0  0.67810  0.67810  0.04630  1.0000 -0.1418670931
C   C246      1.0  0.67810  0.67810  0.59750  1.0000 -0.1418670931
C   C247      1.0  0.67810  0.59750  0.67810  1.0000 -0.1418670931
C   C248      1.0  0.67810  0.04630  0.67810  1.0000 -0.1418670931
C   C249      1.0  0.04630  0.67810  0.59750  1.0000 -0.1418670931
C   C250      1.0  0.04630  0.67810  0.67810  1.0000 -0.1418670931
C   C251      1.0  0.59750  0.67810  0.67810  1.0000 -0.1418670931
C   C252      1.0  0.67810  0.59750  0.04630  1.0000 -0.1418670931
C   C253      1.0  0.95370  0.40250  0.32190  1.0000 -0.1418670931
C   C254      1.0  0.32190  0.32190  0.40250  1.0000 -0.1418670931
C   C255      1.0  0.32190  0.32190  0.95370  1.0000 -0.1418670931
C   C256      1.0  0.32190  0.95370  0.40250  1.0000 -0.1418670931
C   C257      1.0  0.40250  0.32190  0.32190  1.0000 -0.1418670931
C   C258      1.0  0.95370  0.32190  0.32190  1.0000 -0.1418670931
C   C259      1.0  0.40250  0.32190  0.95370  1.0000 -0.1418670931
C   C260      1.0  0.32190  0.40250  0.32190  1.0000 -0.1418670931
C   C261      1.0  0.32190  0.95370  0.32190  1.0000 -0.1418670931
C   C262      1.0  0.04630  0.59750  0.67810  1.0000 -0.1418670931
C   C263      1.0  0.59750  0.67810  0.04630  1.0000 -0.1418670931
C   C264      1.0  0.67810  0.04630  0.59750  1.0000 -0.1418670931
C   C265      1.0  0.37630  0.95170  0.29570  1.0000 0.2354929568
C   C266      1.0  0.29570  0.37630  0.95170  1.0000 0.2354929568
C   C267      1.0  0.95170  0.29570  0.37630  1.0000 0.2354929568
C   C268      1.0  0.62370  0.04830  0.62370  1.0000 0.2354929568
C   C269      1.0  0.70430  0.62370  0.04830  1.0000 0.2354929568
C   C270      1.0  0.62370  0.70430  0.62370  1.0000 0.2354929568
C   C271      1.0  0.70430  0.62370  0.62370  1.0000 0.2354929568
C   C272      1.0  0.62370  0.04830  0.70430  1.0000 0.2354929568
C   C273      1.0  0.04830  0.62370  0.62370  1.0000 0.2354929568
C   C274      1.0  0.04830  0.70430  0.62370  1.0000 0.2354929568
C   C275      1.0  0.62370  0.62370  0.70430  1.0000 0.2354929568
C   C276      1.0  0.62370  0.62370  0.04830  1.0000 0.2354929568
C   C277      1.0  0.95170  0.37630  0.37630  1.0000 0.2354929568
C   C278      1.0  0.29570  0.37630  0.37630  1.0000 0.2354929568
C   C279      1.0  0.37630  0.29570  0.95170  1.0000 0.2354929568
C   C280      1.0  0.37630  0.95170  0.37630  1.0000 0.2354929568
C   C281      1.0  0.37630  0.29570  0.37630  1.0000 0.2354929568
C   C282      1.0  0.95170  0.37630  0.29570  1.0000 0.2354929568
C   C283      1.0  0.37630  0.37630  0.95170  1.0000 0.2354929568
C   C284      1.0  0.37630  0.37630  0.29570  1.0000 0.2354929568
C   C285      1.0  0.29570  0.95170  0.37630  1.0000 0.2354929568
C   C286      1.0  0.04830  0.62370  0.70430  1.0000 0.2354929568
C   C287      1.0  0.62370  0.70430  0.04830  1.0000 0.2354929568
C   C288      1.0  0.70430  0.04830  0.62370  1.0000 0.2354929568
N   N1        1.0  0.40380  0.94200  0.25040  1.0000 -0.4693866512
N   N2        1.0  0.25040  0.40380  0.94200  1.0000 -0.4693866512
N   N3        1.0  0.94200  0.25040  0.40380  1.0000 -0.4693866512
N   N4        1.0  0.59620  0.05800  0.59620  1.0000 -0.4693866512
N   N5        1.0  0.74960  0.59620  0.05800  1.0000 -0.4693866512
N   N6        1.0  0.59620  0.74960  0.59620  1.0000 -0.4693866512
N   N7        1.0  0.74960  0.59620  0.59620  1.0000 -0.4693866512
N   N8        1.0  0.59620  0.05800  0.74960  1.0000 -0.4693866512
N   N9        1.0  0.05800  0.59620  0.59620  1.0000 -0.4693866512
N   N10       1.0  0.05800  0.74960  0.59620  1.0000 -0.4693866512
N   N11       1.0  0.59620  0.59620  0.74960  1.0000 -0.4693866512
N   N12       1.0  0.59620  0.59620  0.05800  1.0000 -0.4693866512
N   N13       1.0  0.94200  0.40380  0.40380  1.0000 -0.4693866512
N   N14       1.0  0.25040  0.40380  0.40380  1.0000 -0.4693866512
N   N15       1.0  0.40380  0.25040  0.94200  1.0000 -0.4693866512
N   N16       1.0  0.40380  0.94200  0.40380  1.0000 -0.4693866512
N   N17       1.0  0.40380  0.25040  0.40380  1.0000 -0.4693866512
N   N18       1.0  0.94200  0.40380  0.25040  1.0000 -0.4693866512
N   N19       1.0  0.40380  0.40380  0.94200  1.0000 -0.4693866512
N   N20       1.0  0.40380  0.40380  0.25040  1.0000 -0.4693866512
N   N21       1.0  0.25040  0.94200  0.40380  1.0000 -0.4693866512
N   N22       1.0  0.05800  0.59620  0.74960  1.0000 -0.4693866512
N   N23       1.0  0.59620  0.74960  0.05800  1.0000 -0.4693866512
N   N24       1.0  0.74960  0.05800  0.59620  1.0000 -0.4693866512
O   O1        1.0  0.69903  0.98717  0.23731  1.0000 -0.5283522857
O   O2        1.0  0.23731  0.69903  0.98717  1.0000 -0.5283522857
O   O3        1.0  0.98717  0.23731  0.69903  1.0000 -0.5283522857
O   O4        1.0  0.30097  0.01283  0.92351  1.0000 -0.5283522857
O   O5        1.0  0.76269  0.92351  0.01283  1.0000 -0.5283522857
O   O6        1.0  0.92351  0.76269  0.30097  1.0000 -0.5283522857
O   O7        1.0  0.76269  0.30097  0.92351  1.0000 -0.5283522857
O   O8        1.0  0.92351  0.01283  0.76269  1.0000 -0.5283522857
O   O9        1.0  0.01283  0.92351  0.30097  1.0000 -0.5283522857
O   O10       1.0  0.01283  0.76269  0.92351  1.0000 -0.5283522857
O   O11       1.0  0.30097  0.92351  0.76269  1.0000 -0.5283522857
O   O12       1.0  0.92351  0.30097  0.01283  1.0000 -0.5283522857
O   O13       1.0  0.98717  0.69903  0.07649  1.0000 -0.5283522857
O   O14       1.0  0.23731  0.07649  0.69903  1.0000 -0.5283522857
O   O15       1.0  0.07649  0.23731  0.98717  1.0000 -0.5283522857
O   O16       1.0  0.07649  0.98717  0.69903  1.0000 -0.5283522857
O   O17       1.0  0.69903  0.23731  0.07649  1.0000 -0.5283522857
O   O18       1.0  0.98717  0.07649  0.23731  1.0000 -0.5283522857
O   O19       1.0  0.69903  0.07649  0.98717  1.0000 -0.5283522857
O   O20       1.0  0.07649  0.69903  0.23731  1.0000 -0.5283522857
O   O21       1.0  0.23731  0.98717  0.07649  1.0000 -0.5283522857
O   O22       1.0  0.01283  0.30097  0.76269  1.0000 -0.5283522857
O   O23       1.0  0.30097  0.76269  0.01283  1.0000 -0.5283522857
O   O24       1.0  0.76269  0.01283  0.30097  1.0000 -0.5283522857
O   O25       1.0  0.30097  0.01283  0.76269  1.0000 -0.5283522857
O   O26       1.0  0.76269  0.30097  0.01283  1.0000 -0.5283522857
O   O27       1.0  0.01283  0.76269  0.30097  1.0000 -0.5283522857
O   O28       1.0  0.69903  0.98717  0.07649  1.0000 -0.5283522857
O   O29       1.0  0.23731  0.07649  0.98717  1.0000 -0.5283522857
O   O30       1.0  0.07649  0.23731  0.69903  1.0000 -0.5283522857
O   O31       1.0  0.23731  0.69903  0.07649  1.0000 -0.5283522857
O   O32       1.0  0.07649  0.98717  0.23731  1.0000 -0.5283522857
O   O33       1.0  0.98717  0.07649  0.69903  1.0000 -0.5283522857
O   O34       1.0  0.98717  0.23731  0.07649  1.0000 -0.5283522857
O   O35       1.0  0.69903  0.07649  0.23731  1.0000 -0.5283522857
O   O36       1.0  0.07649  0.69903  0.98717  1.0000 -0.5283522857
O   O37       1.0  0.01283  0.30097  0.92351  1.0000 -0.5283522857
O   O38       1.0  0.76269  0.92351  0.30097  1.0000 -0.5283522857
O   O39       1.0  0.92351  0.76269  0.01283  1.0000 -0.5283522857
O   O40       1.0  0.92351  0.01283  0.30097  1.0000 -0.5283522857
O   O41       1.0  0.30097  0.76269  0.92351  1.0000 -0.5283522857
O   O42       1.0  0.01283  0.92351  0.76269  1.0000 -0.5283522857
O   O43       1.0  0.30097  0.92351  0.01283  1.0000 -0.5283522857
O   O44       1.0  0.92351  0.30097  0.76269  1.0000 -0.5283522857
O   O45       1.0  0.76269  0.01283  0.92351  1.0000 -0.5283522857
O   O46       1.0  0.98717  0.69903  0.23731  1.0000 -0.5283522857
O   O47       1.0  0.69903  0.23731  0.98717  1.0000 -0.5283522857
O   O48       1.0  0.23731  0.98717  0.69903  1.0000 -0.5283522857
O   O49       1.0  0.62488  0.98660  0.31116  1.0000 -0.517693459
O   O50       1.0  0.31116  0.62488  0.98660  1.0000 -0.517693459
O   O51       1.0  0.98660  0.31116  0.62488  1.0000 -0.517693459
O   O52       1.0  0.37512  0.01340  0.92264  1.0000 -0.517693459
O   O53       1.0  0.68884  0.92264  0.01340  1.0000 -0.517693459
O   O54       1.0  0.92264  0.68884  0.37512  1.0000 -0.517693459
O   O55       1.0  0.68884  0.37512  0.92264  1.0000 -0.517693459
O   O56       1.0  0.92264  0.01340  0.68884  1.0000 -0.517693459
O   O57       1.0  0.01340  0.92264  0.37512  1.0000 -0.517693459
O   O58       1.0  0.01340  0.68884  0.92264  1.0000 -0.517693459
O   O59       1.0  0.37512  0.92264  0.68884  1.0000 -0.517693459
O   O60       1.0  0.92264  0.37512  0.01340  1.0000 -0.517693459
O   O61       1.0  0.98660  0.62488  0.07736  1.0000 -0.517693459
O   O62       1.0  0.31116  0.07736  0.62488  1.0000 -0.517693459
O   O63       1.0  0.07736  0.31116  0.98660  1.0000 -0.517693459
O   O64       1.0  0.07736  0.98660  0.62488  1.0000 -0.517693459
O   O65       1.0  0.62488  0.31116  0.07736  1.0000 -0.517693459
O   O66       1.0  0.98660  0.07736  0.31116  1.0000 -0.517693459
O   O67       1.0  0.62488  0.07736  0.98660  1.0000 -0.517693459
O   O68       1.0  0.07736  0.62488  0.31116  1.0000 -0.517693459
O   O69       1.0  0.31116  0.98660  0.07736  1.0000 -0.517693459
O   O70       1.0  0.01340  0.37512  0.68884  1.0000 -0.517693459
O   O71       1.0  0.37512  0.68884  0.01340  1.0000 -0.517693459
O   O72       1.0  0.68884  0.01340  0.37512  1.0000 -0.517693459
O   O73       1.0  0.37512  0.01340  0.68884  1.0000 -0.517693459
O   O74       1.0  0.68884  0.37512  0.01340  1.0000 -0.517693459
O   O75       1.0  0.01340  0.68884  0.37512  1.0000 -0.517693459
O   O76       1.0  0.62488  0.98660  0.07736  1.0000 -0.517693459
O   O77       1.0  0.31116  0.07736  0.98660  1.0000 -0.517693459
O   O78       1.0  0.07736  0.31116  0.62488  1.0000 -0.517693459
O   O79       1.0  0.31116  0.62488  0.07736  1.0000 -0.517693459
O   O80       1.0  0.07736  0.98660  0.31116  1.0000 -0.517693459
O   O81       1.0  0.98660  0.07736  0.62488  1.0000 -0.517693459
O   O82       1.0  0.98660  0.31116  0.07736  1.0000 -0.517693459
O   O83       1.0  0.62488  0.07736  0.31116  1.0000 -0.517693459
O   O84       1.0  0.07736  0.62488  0.98660  1.0000 -0.517693459
O   O85       1.0  0.01340  0.37512  0.92264  1.0000 -0.517693459
O   O86       1.0  0.68884  0.92264  0.37512  1.0000 -0.517693459
O   O87       1.0  0.92264  0.68884  0.01340  1.0000 -0.517693459
O   O88       1.0  0.92264  0.01340  0.37512  1.0000 -0.517693459
O   O89       1.0  0.37512  0.68884  0.92264  1.0000 -0.517693459
O   O90       1.0  0.01340  0.92264  0.68884  1.0000 -0.517693459
O   O91       1.0  0.37512  0.92264  0.01340  1.0000 -0.517693459
O   O92       1.0  0.92264  0.37512  0.68884  1.0000 -0.517693459
O   O93       1.0  0.68884  0.01340  0.92264  1.0000 -0.517693459
O   O94       1.0  0.98660  0.62488  0.31116  1.0000 -0.517693459
O   O95       1.0  0.62488  0.31116  0.98660  1.0000 -0.517693459
O   O96       1.0  0.31116  0.98660  0.62488  1.0000 -0.517693459
