# DDEC6 charges by PACMAN v1.1 (https://github.com/mtap-research/PACMAN-charge/)
data_2011[Gd][mog]3[ASR]1
_chemical_formula_sum              "Gd2 H4 C14 N4 O12"
_cell_length_a       6.0922
_cell_length_b       9.9633
_cell_length_c       13.3598
_cell_angle_alpha    68.853
_cell_angle_beta     81.104
_cell_angle_gamma    76.848

_symmetry_space_group_name_H-M    "P 1"
_symmetry_Int_Tables_number       1

loop_
  _symmetry_equiv_pos_as_xyz
  'x, y, z'

loop_
  _atom_site_type_symbol
  _atom_site_label
  _atom_site_symmetry_multiplicity
  _atom_site_fract_x
  _atom_site_fract_y
  _atom_site_fract_z
  _atom_site_occupancy
  _atom_site_charge
Gd  Gd1       1.0  0.16786  0.38571  0.80428  1.0000 1.8670139435
Gd  Gd2       1.0  0.83214  0.61429  0.19572  1.0000 1.8670139435
H   H1        1.0  0.67310  0.95290  0.97190  1.0000 0.1318249377
H   H2        1.0  0.32690  0.04710  0.02810  1.0000 0.1318249377
H   H3        1.0  0.29600  0.67520  0.37030  1.0000 0.1355560097
H   H4        1.0  0.70400  0.32480  0.62970  1.0000 0.1355560097
C   C1        1.0  0.71170  0.23390  0.85900  1.0000 0.5906950655
C   C2        1.0  0.28830  0.76610  0.14100  1.0000 0.5906950655
C   C3        1.0  0.86600  0.10660  0.93130  1.0000 0.0631982136
C   C4        1.0  0.13400  0.89340  0.06870  1.0000 0.0631982136
C   C5        1.0  0.80790  0.97020  0.98480  1.0000 0.0703585456
C   C6        1.0  0.19210  0.02980  0.01520  1.0000 0.0703585456
C   C7        1.0  0.04930  0.61740  0.56050  1.0000 0.5664250973
C   C8        1.0  0.95070  0.38260  0.43950  1.0000 0.5664250973
C   C9        1.0  0.28990  0.55590  0.52720  1.0000 0.0828314285
C   C10       1.0  0.71010  0.44410  0.47280  1.0000 0.0828314285
C   C11       1.0  0.38280  0.60240  0.42240  1.0000 0.0703585456
C   C12       1.0  0.61720  0.39760  0.57760  1.0000 0.0703585456
C   C13       1.0  0.91120  0.56010  0.96550  1.0000 0.5121612671
C   C14       1.0  0.08880  0.43990  0.03450  1.0000 0.5121612671
N   N1        1.0  0.05990  0.13630  0.94580  1.0000 -0.2890881625
N   N2        1.0  0.94010  0.86370  0.05420  1.0000 -0.2890881625
N   N3        1.0  0.40660  0.45350  0.60670  1.0000 -0.3077945885
N   N4        1.0  0.59340  0.54650  0.39330  1.0000 -0.3077945885
O   O1        1.0  0.78580  0.35070  0.81630  1.0000 -0.6011881111
O   O2        1.0  0.21420  0.64930  0.18370  1.0000 -0.6011881111
O   O3        1.0  0.52010  0.21660  0.84860  1.0000 -0.6306853172
O   O4        1.0  0.47990  0.78340  0.15140  1.0000 -0.6306853172
O   O5        1.0  0.98580  0.56850  0.65820  1.0000 -0.6011881111
O   O6        1.0  0.01420  0.43150  0.34180  1.0000 -0.6011881111
O   O7        1.0  0.93090  0.70940  0.48980  1.0000 -0.5182607648
O   O8        1.0  0.06910  0.29060  0.51020  1.0000 -0.5182607648
O   O9        1.0  0.91530  0.57050  0.86970  1.0000 -0.5410298881
O   O10       1.0  0.08470  0.42950  0.13030  1.0000 -0.5410298881
O   O11       1.0  0.77700  0.63880  0.01270  1.0000 -0.6011881111
O   O12       1.0  0.22300  0.36120  0.98730  1.0000 -0.6011881111
