# DDEC6 charges by PACMAN v1.1 (https://github.com/mtap-research/PACMAN-charge/)
data_2011[Sc][nan]3[ASR]6
_chemical_formula_sum              "Sc4 H24 C48 O24"
_cell_length_a       8.7255
_cell_length_b       11.2448
_cell_length_c       17.7245
_cell_angle_alpha    84.5201
_cell_angle_beta     75.7508
_cell_angle_gamma    67.1713

_symmetry_space_group_name_H-M    "P 1"
_symmetry_Int_Tables_number       1

loop_
  _symmetry_equiv_pos_as_xyz
  'x, y, z'

loop_
  _atom_site_type_symbol
  _atom_site_label
  _atom_site_symmetry_multiplicity
  _atom_site_fract_x
  _atom_site_fract_y
  _atom_site_fract_z
  _atom_site_occupancy
  _atom_site_charge
Sc  Sc1       1.0  0.61428  0.75000  0.27144  1.0000 1.8037498394
Sc  Sc2       1.0  0.13572  0.75000  0.22856  1.0000 1.8037498394
Sc  Sc3       1.0  0.38572  0.25000  0.72856  1.0000 1.8037498394
Sc  Sc4       1.0  0.86428  0.25000  0.77144  1.0000 1.8037498394
H   H1        1.0  0.31144  0.37326  0.24939  1.0000 0.0999014773
H   H2        1.0  0.69783  0.55728  0.48007  1.0000 0.1078914409
H   H3        1.0  0.20549  0.57256  0.39710  1.0000 0.0940422477
H   H4        1.0  0.93917  0.12674  0.24939  1.0000 0.0999014773
H   H5        1.0  0.32209  0.94272  0.48007  1.0000 0.1078914409
H   H6        1.0  0.89741  0.92744  0.39710  1.0000 0.0940422477
H   H7        1.0  0.81531  0.37326  0.25061  1.0000 0.0999014773
H   H8        1.0  0.24488  0.55728  0.01993  1.0000 0.1078914409
H   H9        1.0  0.72195  0.57256  0.10290  1.0000 0.0940422477
H   H10       1.0  0.43409  0.12674  0.25061  1.0000 0.0999014773
H   H11       1.0  0.23519  0.94272  0.01993  1.0000 0.1078914409
H   H12       1.0  0.67515  0.92744  0.10290  1.0000 0.0940422477
H   H13       1.0  0.68856  0.62674  0.75061  1.0000 0.0999014773
H   H14       1.0  0.30475  0.44654  0.51547  1.0000 0.1078914409
H   H15       1.0  0.79451  0.42744  0.60290  1.0000 0.0940422477
H   H16       1.0  0.06083  0.87326  0.75061  1.0000 0.0999014773
H   H17       1.0  0.67791  0.05728  0.51993  1.0000 0.1078914409
H   H18       1.0  0.10407  0.07208  0.60253  1.0000 0.0940422477
H   H19       1.0  0.18469  0.62674  0.74939  1.0000 0.0999014773
H   H20       1.0  0.75512  0.44272  0.98007  1.0000 0.1078914409
H   H21       1.0  0.27868  0.42792  0.89747  1.0000 0.0940422477
H   H22       1.0  0.56591  0.87326  0.74939  1.0000 0.0999014773
H   H23       1.0  0.76676  0.05346  0.98453  1.0000 0.1078914409
H   H24       1.0  0.32385  0.07208  0.89747  1.0000 0.0940422477
C   C1        1.0  0.45187  0.31826  0.24982  1.0000 -0.0863731741
C   C2        1.0  0.89375  0.64056  0.36594  1.0000 0.6465276329
C   C3        1.0  0.95456  0.56420  0.43628  1.0000 -0.0328710696
C   C4        1.0  0.83099  0.52964  0.49078  1.0000 -0.0839809803
C   C5        1.0  0.11530  0.53868  0.44372  1.0000 -0.0839809803
C   C6        1.0  0.79831  0.18174  0.24982  1.0000 -0.0863731741
C   C7        1.0  0.24031  0.85944  0.36594  1.0000 0.6465276329
C   C8        1.0  0.10916  0.93580  0.43628  1.0000 -0.0328710696
C   C9        1.0  0.17823  0.97036  0.49078  1.0000 -0.0839809803
C   C10       1.0  0.94098  0.96132  0.44372  1.0000 -0.0839809803
C   C11       1.0  0.72987  0.31826  0.25018  1.0000 -0.0863731741
C   C12       1.0  0.96569  0.64056  0.13406  1.0000 0.6465276329
C   C13       1.0  0.98124  0.56420  0.06372  1.0000 -0.0328710696
C   C14       1.0  0.13937  0.52964  0.00922  1.0000 -0.0839809803
C   C15       1.0  0.84602  0.53868  0.05628  1.0000 -0.0839809803
C   C16       1.0  0.51995  0.18174  0.25018  1.0000 -0.0863731741
C   C17       1.0  0.40025  0.85944  0.13406  1.0000 0.6465276329
C   C18       1.0  0.45504  0.93580  0.06372  1.0000 -0.0328710696
C   C19       1.0  0.35141  0.97036  0.00922  1.0000 -0.0839809803
C   C20       1.0  0.59770  0.96132  0.05628  1.0000 -0.0839809803
C   C21       1.0  0.54813  0.68174  0.75018  1.0000 -0.0863731741
C   C22       1.0  0.10625  0.35944  0.63406  1.0000 0.6465276329
C   C23       1.0  0.04544  0.43580  0.56372  1.0000 -0.0328710696
C   C24       1.0  0.16901  0.47036  0.50922  1.0000 -0.0839809803
C   C25       1.0  0.88470  0.46132  0.55628  1.0000 -0.0839809803
C   C26       1.0  0.20169  0.81826  0.75018  1.0000 -0.0863731741
C   C27       1.0  0.75969  0.14056  0.63406  1.0000 0.6465276329
C   C28       1.0  0.89084  0.06420  0.56372  1.0000 -0.0328710696
C   C29       1.0  0.82177  0.02964  0.50922  1.0000 -0.0839809803
C   C30       1.0  0.05902  0.03868  0.55628  1.0000 -0.0839809803
C   C31       1.0  0.27013  0.68174  0.74982  1.0000 -0.0863731741
C   C32       1.0  0.03431  0.35944  0.86594  1.0000 0.6465276329
C   C33       1.0  0.01876  0.43580  0.93628  1.0000 -0.0328710696
C   C34       1.0  0.86063  0.47036  0.99078  1.0000 -0.0839809803
C   C35       1.0  0.15398  0.46132  0.94372  1.0000 -0.0839809803
C   C36       1.0  0.48005  0.81826  0.74982  1.0000 -0.0863731741
C   C37       1.0  0.59975  0.14056  0.86594  1.0000 0.6465276329
C   C38       1.0  0.54496  0.06420  0.93628  1.0000 -0.0328710696
C   C39       1.0  0.64859  0.02964  0.99078  1.0000 -0.0839809803
C   C40       1.0  0.40230  0.03868  0.94372  1.0000 -0.0839809803
C   C41       1.0  0.48666  0.52668  0.25000  1.0000 0.6465276329
C   C42       1.0  0.55945  0.38110  0.25000  1.0000 -0.0380890896
C   C43       1.0  0.76334  0.97332  0.25000  1.0000 0.6465276329
C   C44       1.0  0.69055  0.11890  0.25000  1.0000 -0.0380890896
C   C45       1.0  0.51334  0.47332  0.75000  1.0000 0.6465276329
C   C46       1.0  0.44055  0.61890  0.75000  1.0000 -0.0380890896
C   C47       1.0  0.23666  0.02668  0.75000  1.0000 0.6465276329
C   C48       1.0  0.30945  0.88110  0.75000  1.0000 -0.0380890896
O   O1        1.0  0.56640  0.58336  0.27064  1.0000 -0.6285369299
O   O2        1.0  0.74832  0.66920  0.35916  1.0000 -0.5890840343
O   O3        1.0  0.00289  0.66964  0.31588  1.0000 -0.6496298215
O   O4        1.0  0.66296  0.91664  0.27064  1.0000 -0.6285369299
O   O5        1.0  0.39252  0.83080  0.35916  1.0000 -0.5890840343
O   O6        1.0  0.18123  0.83036  0.31588  1.0000 -0.6496298215
O   O7        1.0  0.35024  0.58336  0.22936  1.0000 -0.6285369299
O   O8        1.0  0.08248  0.66920  0.14084  1.0000 -0.5890840343
O   O9        1.0  0.82747  0.66964  0.18412  1.0000 -0.6496298215
O   O10       1.0  0.92040  0.91664  0.22936  1.0000 -0.6285369299
O   O11       1.0  0.27668  0.83080  0.14084  1.0000 -0.5890840343
O   O12       1.0  0.48841  0.83036  0.18412  1.0000 -0.6496298215
O   O13       1.0  0.43360  0.41664  0.72936  1.0000 -0.6285369299
O   O14       1.0  0.25168  0.33080  0.64084  1.0000 -0.5890840343
O   O15       1.0  0.99711  0.33036  0.68412  1.0000 -0.6496298215
O   O16       1.0  0.33704  0.08336  0.72936  1.0000 -0.6285369299
O   O17       1.0  0.60748  0.16920  0.64084  1.0000 -0.5890840343
O   O18       1.0  0.81877  0.16964  0.68412  1.0000 -0.6496298215
O   O19       1.0  0.64976  0.41664  0.77064  1.0000 -0.6285369299
O   O20       1.0  0.91752  0.33080  0.85916  1.0000 -0.5890840343
O   O21       1.0  0.17253  0.33036  0.81588  1.0000 -0.6496298215
O   O22       1.0  0.07960  0.08336  0.77064  1.0000 -0.6285369299
O   O23       1.0  0.72332  0.16920  0.85916  1.0000 -0.5890840343
O   O24       1.0  0.51159  0.16964  0.81588  1.0000 -0.6496298215
