# DDEC6 charges by PACMAN v1.1 (https://github.com/mtap-research/PACMAN-charge/)
data_2011[HoCu][stp]3[ASR]1
_chemical_formula_sum              "Ho4 Cu6 H60 C48 N12 O48"
_cell_length_a       13.3238
_cell_length_b       13.3238
_cell_length_c       14.3368
_cell_angle_alpha    90
_cell_angle_beta     90
_cell_angle_gamma    120

_symmetry_space_group_name_H-M    "P 1"
_symmetry_Int_Tables_number       1

loop_
  _symmetry_equiv_pos_as_xyz
  'x, y, z'

loop_
  _atom_site_type_symbol
  _atom_site_label
  _atom_site_symmetry_multiplicity
  _atom_site_fract_x
  _atom_site_fract_y
  _atom_site_fract_z
  _atom_site_occupancy
  _atom_site_charge
Ho  Ho1       1.0  0.33333  0.66667  0.83266  1.0000 2.0515864752
Ho  Ho2       1.0  0.66667  0.33333  0.66734  1.0000 2.0515864752
Ho  Ho3       1.0  0.66667  0.33333  0.16734  1.0000 2.0515864752
Ho  Ho4       1.0  0.33333  0.66667  0.33266  1.0000 2.0515864752
Cu  Cu1       1.0  0.50000  0.50000  0.00000  1.0000 0.7485389672
Cu  Cu2       1.0  0.50000  0.00000  0.00000  1.0000 0.7485389672
Cu  Cu3       1.0  1.00000  0.50000  0.00000  1.0000 0.7485389672
Cu  Cu4       1.0  0.50000  0.50000  0.50000  1.0000 0.7485389672
Cu  Cu5       1.0  1.00000  0.50000  0.50000  1.0000 0.7485389672
Cu  Cu6       1.0  0.50000  0.00000  0.50000  1.0000 0.7485389672
H   H1        1.0  0.35000  0.32700  0.07900  1.0000 0.2576645873
H   H2        1.0  0.67300  0.02300  0.07900  1.0000 0.2576645873
H   H3        1.0  0.97700  0.65000  0.07900  1.0000 0.2576645873
H   H4        1.0  0.32700  0.35000  0.42100  1.0000 0.2576645873
H   H5        1.0  0.02300  0.67300  0.42100  1.0000 0.2576645873
H   H6        1.0  0.65000  0.97700  0.42100  1.0000 0.2576645873
H   H7        1.0  0.65000  0.67300  0.92100  1.0000 0.2576645873
H   H8        1.0  0.32700  0.97700  0.92100  1.0000 0.2576645873
H   H9        1.0  0.02300  0.35000  0.92100  1.0000 0.2576645873
H   H10       1.0  0.67300  0.65000  0.57900  1.0000 0.2576645873
H   H11       1.0  0.97700  0.32700  0.57900  1.0000 0.2576645873
H   H12       1.0  0.35000  0.02300  0.57900  1.0000 0.2576645873
H   H13       1.0  0.17940  0.31890  0.02060  1.0000 0.132123705
H   H14       1.0  0.68110  0.86050  0.02060  1.0000 0.132123705
H   H15       1.0  0.13950  0.82060  0.02060  1.0000 0.132123705
H   H16       1.0  0.31890  0.17940  0.47940  1.0000 0.132123705
H   H17       1.0  0.86050  0.68110  0.47940  1.0000 0.132123705
H   H18       1.0  0.82060  0.13950  0.47940  1.0000 0.132123705
H   H19       1.0  0.82060  0.68110  0.97940  1.0000 0.132123705
H   H20       1.0  0.31890  0.13950  0.97940  1.0000 0.132123705
H   H21       1.0  0.86050  0.17940  0.97940  1.0000 0.132123705
H   H22       1.0  0.68110  0.82060  0.52060  1.0000 0.132123705
H   H23       1.0  0.13950  0.31890  0.52060  1.0000 0.132123705
H   H24       1.0  0.17940  0.86050  0.52060  1.0000 0.132123705
H   H25       1.0  0.25350  0.29450  0.94870  1.0000 0.1427909694
H   H26       1.0  0.70550  0.95900  0.94870  1.0000 0.1427909694
H   H27       1.0  0.04100  0.74650  0.94870  1.0000 0.1427909694
H   H28       1.0  0.29450  0.25350  0.55130  1.0000 0.1427909694
H   H29       1.0  0.95900  0.70550  0.55130  1.0000 0.1427909694
H   H30       1.0  0.74650  0.04100  0.55130  1.0000 0.1427909694
H   H31       1.0  0.74650  0.70550  0.05130  1.0000 0.1427909694
H   H32       1.0  0.29450  0.04100  0.05130  1.0000 0.1427909694
H   H33       1.0  0.95900  0.25350  0.05130  1.0000 0.1427909694
H   H34       1.0  0.70550  0.74650  0.44870  1.0000 0.1427909694
H   H35       1.0  0.04100  0.29450  0.44870  1.0000 0.1427909694
H   H36       1.0  0.25350  0.95900  0.44870  1.0000 0.1427909694
H   H37       1.0  0.31380  0.39890  0.19450  1.0000 0.1534533761
H   H38       1.0  0.60110  0.91490  0.19450  1.0000 0.1534533761
H   H39       1.0  0.08510  0.68620  0.19450  1.0000 0.1534533761
H   H40       1.0  0.39890  0.31380  0.30550  1.0000 0.1534533761
H   H41       1.0  0.91490  0.60110  0.30550  1.0000 0.1534533761
H   H42       1.0  0.68620  0.08510  0.30550  1.0000 0.1534533761
H   H43       1.0  0.68620  0.60110  0.80550  1.0000 0.1534533761
H   H44       1.0  0.39890  0.08510  0.80550  1.0000 0.1534533761
H   H45       1.0  0.91490  0.31380  0.80550  1.0000 0.1534533761
H   H46       1.0  0.60110  0.68620  0.69450  1.0000 0.1534533761
H   H47       1.0  0.08510  0.39890  0.69450  1.0000 0.1534533761
H   H48       1.0  0.31380  0.91490  0.69450  1.0000 0.1534533761
H   H49       1.0  0.26650  0.46030  0.12910  1.0000 0.1569467894
H   H50       1.0  0.53970  0.80620  0.12910  1.0000 0.1569467894
H   H51       1.0  0.19380  0.73350  0.12910  1.0000 0.1569467894
H   H52       1.0  0.46030  0.26650  0.37090  1.0000 0.1569467894
H   H53       1.0  0.80620  0.53970  0.37090  1.0000 0.1569467894
H   H54       1.0  0.73350  0.19380  0.37090  1.0000 0.1569467894
H   H55       1.0  0.73350  0.53970  0.87090  1.0000 0.1569467894
H   H56       1.0  0.46030  0.19380  0.87090  1.0000 0.1569467894
H   H57       1.0  0.80620  0.26650  0.87090  1.0000 0.1569467894
H   H58       1.0  0.53970  0.73350  0.62910  1.0000 0.1569467894
H   H59       1.0  0.19380  0.46030  0.62910  1.0000 0.1569467894
H   H60       1.0  0.26650  0.80620  0.62910  1.0000 0.1569467894
C   C1        1.0  0.26840  0.45340  0.93030  1.0000 0.6196226738
C   C2        1.0  0.54660  0.81500  0.93030  1.0000 0.6196226738
C   C3        1.0  0.18500  0.73160  0.93030  1.0000 0.6196226738
C   C4        1.0  0.45340  0.26840  0.56970  1.0000 0.6196226738
C   C5        1.0  0.81500  0.54660  0.56970  1.0000 0.6196226738
C   C6        1.0  0.73160  0.18500  0.56970  1.0000 0.6196226738
C   C7        1.0  0.73160  0.54660  0.06970  1.0000 0.6196226738
C   C8        1.0  0.45340  0.18500  0.06970  1.0000 0.6196226738
C   C9        1.0  0.81500  0.26840  0.06970  1.0000 0.6196226738
C   C10       1.0  0.54660  0.73160  0.43030  1.0000 0.6196226738
C   C11       1.0  0.18500  0.45340  0.43030  1.0000 0.6196226738
C   C12       1.0  0.26840  0.81500  0.43030  1.0000 0.6196226738
C   C13       1.0  0.25350  0.35310  0.98880  1.0000 -0.247859001
C   C14       1.0  0.64690  0.90040  0.98880  1.0000 -0.247859001
C   C15       1.0  0.09960  0.74650  0.98880  1.0000 -0.247859001
C   C16       1.0  0.35310  0.25350  0.51120  1.0000 -0.247859001
C   C17       1.0  0.90040  0.64690  0.51120  1.0000 -0.247859001
C   C18       1.0  0.74650  0.09960  0.51120  1.0000 -0.247859001
C   C19       1.0  0.74650  0.64690  0.01120  1.0000 -0.2443134971
C   C20       1.0  0.35310  0.09960  0.01120  1.0000 -0.247859001
C   C21       1.0  0.90040  0.25350  0.01120  1.0000 -0.247859001
C   C22       1.0  0.64690  0.74650  0.48880  1.0000 -0.247859001
C   C23       1.0  0.09960  0.35310  0.48880  1.0000 -0.247859001
C   C24       1.0  0.25350  0.90040  0.48880  1.0000 -0.247859001
C   C25       1.0  0.33180  0.44870  0.14040  1.0000 -0.2656720914
C   C26       1.0  0.55130  0.88310  0.14040  1.0000 -0.2656720914
C   C27       1.0  0.11690  0.66820  0.14040  1.0000 -0.2656720914
C   C28       1.0  0.44870  0.33180  0.35960  1.0000 -0.2656720914
C   C29       1.0  0.88310  0.55130  0.35960  1.0000 -0.2656720914
C   C30       1.0  0.66820  0.11690  0.35960  1.0000 -0.2656720914
C   C31       1.0  0.66820  0.55130  0.85960  1.0000 -0.2656720914
C   C32       1.0  0.44870  0.11690  0.85960  1.0000 -0.2656720914
C   C33       1.0  0.88310  0.33180  0.85960  1.0000 -0.2656720914
C   C34       1.0  0.55130  0.66820  0.64040  1.0000 -0.2656720914
C   C35       1.0  0.11690  0.44870  0.64040  1.0000 -0.2656720914
C   C36       1.0  0.33180  0.88310  0.64040  1.0000 -0.2656720914
C   C37       1.0  0.43700  0.56320  0.16070  1.0000 0.6558561585
C   C38       1.0  0.43680  0.87380  0.16070  1.0000 0.6558561585
C   C39       1.0  0.12620  0.56300  0.16070  1.0000 0.6558561585
C   C40       1.0  0.56320  0.43700  0.33930  1.0000 0.6558561585
C   C41       1.0  0.87380  0.43680  0.33930  1.0000 0.6558561585
C   C42       1.0  0.56300  0.12620  0.33930  1.0000 0.6558561585
C   C43       1.0  0.56300  0.43680  0.83930  1.0000 0.6558561585
C   C44       1.0  0.56320  0.12620  0.83930  1.0000 0.6558561585
C   C45       1.0  0.87380  0.43700  0.83930  1.0000 0.6558561585
C   C46       1.0  0.43680  0.56300  0.66070  1.0000 0.6558561585
C   C47       1.0  0.12620  0.56320  0.66070  1.0000 0.6558561585
C   C48       1.0  0.43700  0.87380  0.66070  1.0000 0.6558561585
N   N1        1.0  0.34760  0.39050  0.05880  1.0000 -0.247859001
N   N2        1.0  0.60950  0.95710  0.05880  1.0000 -0.247859001
N   N3        1.0  0.04290  0.65240  0.05880  1.0000 -0.247859001
N   N4        1.0  0.39050  0.34760  0.44120  1.0000 -0.247859001
N   N5        1.0  0.95710  0.60950  0.44120  1.0000 -0.247859001
N   N6        1.0  0.65240  0.04290  0.44120  1.0000 -0.247859001
N   N7        1.0  0.65240  0.60950  0.94120  1.0000 -0.247859001
N   N8        1.0  0.39050  0.04290  0.94120  1.0000 -0.247859001
N   N9        1.0  0.95710  0.34760  0.94120  1.0000 -0.247859001
N   N10       1.0  0.60950  0.65240  0.55880  1.0000 -0.247859001
N   N11       1.0  0.04290  0.39050  0.55880  1.0000 -0.247859001
N   N12       1.0  0.34760  0.95710  0.55880  1.0000 -0.247859001
O   O1        1.0  0.36060  0.55010  0.94060  1.0000 -0.6608823427
O   O2        1.0  0.44990  0.81050  0.94060  1.0000 -0.6608823427
O   O3        1.0  0.18950  0.63940  0.94060  1.0000 -0.6608823427
O   O4        1.0  0.55010  0.36060  0.55940  1.0000 -0.6608823427
O   O5        1.0  0.81050  0.44990  0.55940  1.0000 -0.6608823427
O   O6        1.0  0.63940  0.18950  0.55940  1.0000 -0.6608823427
O   O7        1.0  0.63940  0.44990  0.05940  1.0000 -0.6608823427
O   O8        1.0  0.55010  0.18950  0.05940  1.0000 -0.6608823427
O   O9        1.0  0.81050  0.36060  0.05940  1.0000 -0.6608823427
O   O10       1.0  0.44990  0.63940  0.44060  1.0000 -0.6608823427
O   O11       1.0  0.18950  0.55010  0.44060  1.0000 -0.6608823427
O   O12       1.0  0.36060  0.81050  0.44060  1.0000 -0.6608823427
O   O13       1.0  0.19320  0.43930  0.87180  1.0000 -0.5953583855
O   O14       1.0  0.56070  0.75390  0.87180  1.0000 -0.5953583855
O   O15       1.0  0.24610  0.80680  0.87180  1.0000 -0.5953583855
O   O16       1.0  0.43930  0.19320  0.62820  1.0000 -0.5953583855
O   O17       1.0  0.75390  0.56070  0.62820  1.0000 -0.5953583855
O   O18       1.0  0.80680  0.24610  0.62820  1.0000 -0.5953583855
O   O19       1.0  0.80680  0.56070  0.12820  1.0000 -0.5953583855
O   O20       1.0  0.43930  0.24610  0.12820  1.0000 -0.5953583855
O   O21       1.0  0.75390  0.19320  0.12820  1.0000 -0.5953583855
O   O22       1.0  0.56070  0.80680  0.37180  1.0000 -0.5953583855
O   O23       1.0  0.24610  0.43930  0.37180  1.0000 -0.5953583855
O   O24       1.0  0.19320  0.75390  0.37180  1.0000 -0.5953583855
O   O25       1.0  0.43440  0.61960  0.22940  1.0000 -0.6532399791
O   O26       1.0  0.38040  0.81480  0.22940  1.0000 -0.6532399791
O   O27       1.0  0.18520  0.56560  0.22940  1.0000 -0.6532399791
O   O28       1.0  0.61960  0.43440  0.27060  1.0000 -0.6532399791
O   O29       1.0  0.81480  0.38040  0.27060  1.0000 -0.6532399791
O   O30       1.0  0.56560  0.18520  0.27060  1.0000 -0.6532399791
O   O31       1.0  0.56560  0.38040  0.77060  1.0000 -0.6532399791
O   O32       1.0  0.61960  0.18520  0.77060  1.0000 -0.6532399791
O   O33       1.0  0.81480  0.43440  0.77060  1.0000 -0.6532399791
O   O34       1.0  0.38040  0.56560  0.72940  1.0000 -0.6532399791
O   O35       1.0  0.18520  0.61960  0.72940  1.0000 -0.6532399791
O   O36       1.0  0.43440  0.81480  0.72940  1.0000 -0.6532399791
O   O37       1.0  0.52420  0.59800  0.10890  1.0000 -0.5060145595
O   O38       1.0  0.40200  0.92620  0.10890  1.0000 -0.5060145595
O   O39       1.0  0.07380  0.47580  0.10890  1.0000 -0.5060145595
O   O40       1.0  0.59800  0.52420  0.39110  1.0000 -0.5060145595
O   O41       1.0  0.92620  0.40200  0.39110  1.0000 -0.5060145595
O   O42       1.0  0.47580  0.07380  0.39110  1.0000 -0.5060145595
O   O43       1.0  0.47580  0.40200  0.89110  1.0000 -0.5060145595
O   O44       1.0  0.59800  0.07380  0.89110  1.0000 -0.5060145595
O   O45       1.0  0.92620  0.52420  0.89110  1.0000 -0.5060145595
O   O46       1.0  0.40200  0.47580  0.60890  1.0000 -0.5060145595
O   O47       1.0  0.07380  0.59800  0.60890  1.0000 -0.5060145595
O   O48       1.0  0.52420  0.92620  0.60890  1.0000 -0.5060145595
