# DDEC6 charges by PACMAN v1.1 (https://github.com/mtap-research/PACMAN-charge/)
data_2011[Gd][nan]3[ASR]7
_chemical_formula_sum              "Gd4 H12 C36 O24"
_cell_length_a       10.339
_cell_length_b       10.339
_cell_length_c       14.057
_cell_angle_alpha    90
_cell_angle_beta     90
_cell_angle_gamma    90

_symmetry_space_group_name_H-M    "P 1"
_symmetry_Int_Tables_number       1

loop_
  _symmetry_equiv_pos_as_xyz
  'x, y, z'

loop_
  _atom_site_type_symbol
  _atom_site_label
  _atom_site_symmetry_multiplicity
  _atom_site_fract_x
  _atom_site_fract_y
  _atom_site_fract_z
  _atom_site_occupancy
  _atom_site_charge
Gd  Gd1       1.0  0.12803  0.13650  0.16609  1.0000 2.0689439538
Gd  Gd2       1.0  0.87197  0.86350  0.66609  1.0000 2.0689439538
Gd  Gd3       1.0  0.86350  0.12803  0.91609  1.0000 2.0689439538
Gd  Gd4       1.0  0.13650  0.87197  0.41609  1.0000 2.0689439538
H   H1        1.0  0.88450  0.00840  0.30260  1.0000 0.1162774793
H   H2        1.0  0.11550  0.99160  0.80260  1.0000 0.1162774793
H   H3        1.0  0.99160  0.88450  0.05260  1.0000 0.1162774793
H   H4        1.0  0.00840  0.11550  0.55260  1.0000 0.1162774793
H   H5        1.0  0.54670  0.09690  0.17180  1.0000 0.1386780727
H   H6        1.0  0.45330  0.90310  0.67180  1.0000 0.1386780727
H   H7        1.0  0.90310  0.54670  0.92180  1.0000 0.1386780727
H   H8        1.0  0.09690  0.45330  0.42180  1.0000 0.1386780727
H   H9        1.0  0.54750  0.99420  0.45130  1.0000 0.1386780727
H   H10       1.0  0.45250  0.00580  0.95130  1.0000 0.1386780727
H   H11       1.0  0.00580  0.54750  0.20130  1.0000 0.1386780727
H   H12       1.0  0.99420  0.45250  0.70130  1.0000 0.1386780727
C   C1        1.0  0.79820  0.96180  0.47810  1.0000 0.6090373012
C   C2        1.0  0.20180  0.03820  0.97810  1.0000 0.6090373012
C   C3        1.0  0.03820  0.79820  0.22810  1.0000 0.6090373012
C   C4        1.0  0.96180  0.20180  0.72810  1.0000 0.6090373012
C   C5        1.0  0.72670  0.99810  0.39050  1.0000 -0.031056392
C   C6        1.0  0.27330  0.00190  0.89050  1.0000 -0.031056392
C   C7        1.0  0.00190  0.72670  0.14050  1.0000 -0.031056392
C   C8        1.0  0.99810  0.27330  0.64050  1.0000 -0.031056392
C   C9        1.0  0.79320  0.01880  0.30510  1.0000 -0.104912476
C   C10       1.0  0.20680  0.98120  0.80510  1.0000 -0.104912476
C   C11       1.0  0.98120  0.79320  0.05510  1.0000 -0.104912476
C   C12       1.0  0.01880  0.20680  0.55510  1.0000 -0.104912476
C   C13       1.0  0.72500  0.05460  0.22400  1.0000 -0.031056392
C   C14       1.0  0.27500  0.94540  0.72400  1.0000 -0.031056392
C   C15       1.0  0.94540  0.72500  0.97400  1.0000 -0.031056392
C   C16       1.0  0.05460  0.27500  0.47400  1.0000 -0.031056392
C   C17       1.0  0.59240  0.07020  0.22710  1.0000 -0.0932861299
C   C18       1.0  0.40760  0.92980  0.72710  1.0000 -0.0932861299
C   C19       1.0  0.92980  0.59240  0.97710  1.0000 -0.0932861299
C   C20       1.0  0.07020  0.40760  0.47710  1.0000 -0.0932861299
C   C21       1.0  0.52550  0.04660  0.31170  1.0000 -0.0353625671
C   C22       1.0  0.47450  0.95340  0.81170  1.0000 -0.0353625671
C   C23       1.0  0.95340  0.52550  0.06170  1.0000 -0.0353625671
C   C24       1.0  0.04660  0.47450  0.56170  1.0000 -0.0353625671
C   C25       1.0  0.59290  0.01040  0.39370  1.0000 -0.0932861299
C   C26       1.0  0.40710  0.98960  0.89370  1.0000 -0.0932861299
C   C27       1.0  0.98960  0.59290  0.14370  1.0000 -0.0932861299
C   C28       1.0  0.01040  0.40710  0.64370  1.0000 -0.0932861299
C   C29       1.0  0.79910  0.07670  0.13330  1.0000 0.6333445373
C   C30       1.0  0.20090  0.92330  0.63330  1.0000 0.6333445373
C   C31       1.0  0.92330  0.79910  0.88330  1.0000 0.6333445373
C   C32       1.0  0.07670  0.20090  0.38330  1.0000 0.6333445373
C   C33       1.0  0.37910  0.04630  0.30990  1.0000 0.6652910027
C   C34       1.0  0.62090  0.95370  0.80990  1.0000 0.6652910027
C   C35       1.0  0.95370  0.37910  0.05990  1.0000 0.6652910027
C   C36       1.0  0.04630  0.62090  0.55990  1.0000 0.6652910027
O   O1        1.0  0.74780  0.99320  0.55870  1.0000 -0.6268450556
O   O2        1.0  0.25220  0.00680  0.05870  1.0000 -0.6268450556
O   O3        1.0  0.00680  0.74780  0.30870  1.0000 -0.6268450556
O   O4        1.0  0.99320  0.25220  0.80870  1.0000 -0.6268450556
O   O5        1.0  0.90420  0.89820  0.47686  1.0000 -0.7102776405
O   O6        1.0  0.09580  0.10180  0.97686  1.0000 -0.7102776405
O   O7        1.0  0.10180  0.90420  0.22686  1.0000 -0.7102776405
O   O8        1.0  0.89820  0.09580  0.72686  1.0000 -0.7102776405
O   O9        1.0  0.92020  0.07220  0.13527  1.0000 -0.7013307449
O   O10       1.0  0.07980  0.92780  0.63527  1.0000 -0.7013307449
O   O11       1.0  0.92780  0.92020  0.88527  1.0000 -0.7013307449
O   O12       1.0  0.07220  0.07980  0.38527  1.0000 -0.7013307449
O   O13       1.0  0.73780  0.09430  0.05769  1.0000 -0.6113942501
O   O14       1.0  0.26220  0.90570  0.55769  1.0000 -0.6113942501
O   O15       1.0  0.90570  0.73780  0.80769  1.0000 -0.6113942501
O   O16       1.0  0.09430  0.26220  0.30769  1.0000 -0.6113942501
O   O17       1.0  0.32330  0.10910  0.24486  1.0000 -0.6657213208
O   O18       1.0  0.67670  0.89090  0.74486  1.0000 -0.6657213208
O   O19       1.0  0.89090  0.32330  0.99486  1.0000 -0.6657213208
O   O20       1.0  0.10910  0.67670  0.49486  1.0000 -0.6657213208
O   O21       1.0  0.32470  0.98160  0.37432  1.0000 -0.6657213208
O   O22       1.0  0.67530  0.01840  0.87432  1.0000 -0.6657213208
O   O23       1.0  0.01840  0.32470  0.12432  1.0000 -0.6657213208
O   O24       1.0  0.98160  0.67530  0.62432  1.0000 -0.6657213208
