# DDEC6 charges by PACMAN v1.1 (https://github.com/mtap-research/PACMAN-charge/)
data_2011[Zn][bcs]3[ASR]1
_chemical_formula_sum              "Zn16 H240 C240 N24 O48"
_cell_length_a       22.3992
_cell_length_b       22.3992
_cell_length_c       22.3992
_cell_angle_alpha    109.471
_cell_angle_beta     109.471
_cell_angle_gamma    109.471

_symmetry_space_group_name_H-M    "P 1"
_symmetry_Int_Tables_number       1

loop_
  _symmetry_equiv_pos_as_xyz
  'x, y, z'

loop_
  _atom_site_type_symbol
  _atom_site_label
  _atom_site_symmetry_multiplicity
  _atom_site_fract_x
  _atom_site_fract_y
  _atom_site_fract_z
  _atom_site_occupancy
  _atom_site_charge
Zn  Zn1       1.0  0.50000  0.00000  0.46262  1.0000 0.7249588155
Zn  Zn2       1.0  0.03738  0.03738  0.03738  1.0000 0.7265237951
Zn  Zn3       1.0  0.00000  0.46262  0.50000  1.0000 0.7265237951
Zn  Zn4       1.0  0.46262  0.50000  0.00000  1.0000 0.7249588155
Zn  Zn5       1.0  0.50000  0.00000  0.96262  1.0000 0.7265237951
Zn  Zn6       1.0  0.53738  0.53738  0.53738  1.0000 0.7265237951
Zn  Zn7       1.0  0.96262  0.50000  0.00000  1.0000 0.7265237951
Zn  Zn8       1.0  0.00000  0.96262  0.50000  1.0000 0.7265237951
Zn  Zn9       1.0  0.50000  0.00000  0.30562  1.0000 0.9378601917
Zn  Zn10      1.0  0.19438  0.19438  0.19438  1.0000 0.9378601917
Zn  Zn11      1.0  0.00000  0.30562  0.50000  1.0000 0.9378601917
Zn  Zn12      1.0  0.30562  0.50000  0.00000  1.0000 0.9378601917
Zn  Zn13      1.0  0.50000  0.00000  0.80562  1.0000 0.9378601917
Zn  Zn14      1.0  0.69438  0.69438  0.69438  1.0000 0.9378601917
Zn  Zn15      1.0  0.80562  0.50000  0.00000  1.0000 0.9378601917
Zn  Zn16      1.0  0.00000  0.80562  0.50000  1.0000 0.9378601917
H   H1        1.0  0.32310  0.78670  0.32100  1.0000 0.1104443789
H   H2        1.0  0.96570  0.00210  0.17900  1.0000 0.1104443789
H   H3        1.0  0.17690  0.49790  0.46360  1.0000 0.1104443789
H   H4        1.0  0.53430  0.71330  0.03640  1.0000 0.1104443789
H   H5        1.0  0.32100  0.32310  0.78670  1.0000 0.1104443789
H   H6        1.0  0.78670  0.32100  0.32310  1.0000 0.1104443789
H   H7        1.0  0.03640  0.53430  0.71330  1.0000 0.1104443789
H   H8        1.0  0.00210  0.17900  0.96570  1.0000 0.1104443789
H   H9        1.0  0.17900  0.96570  0.00210  1.0000 0.1104443789
H   H10       1.0  0.49790  0.46360  0.17690  1.0000 0.1104443789
H   H11       1.0  0.46360  0.17690  0.49790  1.0000 0.1104443789
H   H12       1.0  0.71330  0.03640  0.53430  1.0000 0.1104443789
H   H13       1.0  0.28670  0.82310  0.82100  1.0000 0.1104443789
H   H14       1.0  0.50210  0.46570  0.67900  1.0000 0.1104443789
H   H15       1.0  0.99790  0.67690  0.96360  1.0000 0.1104443789
H   H16       1.0  0.21330  0.03430  0.53640  1.0000 0.1104443789
H   H17       1.0  0.82310  0.82100  0.28670  1.0000 0.1104443789
H   H18       1.0  0.82100  0.28670  0.82310  1.0000 0.1104443789
H   H19       1.0  0.03430  0.53640  0.21330  1.0000 0.1104443789
H   H20       1.0  0.67900  0.50210  0.46570  1.0000 0.1104443789
H   H21       1.0  0.46570  0.67900  0.50210  1.0000 0.1104443789
H   H22       1.0  0.96360  0.99790  0.67690  1.0000 0.1104443789
H   H23       1.0  0.67690  0.96360  0.99790  1.0000 0.1104443789
H   H24       1.0  0.53640  0.21330  0.03430  1.0000 0.1104443789
H   H25       1.0  0.20670  0.68700  0.25490  1.0000 0.1194180724
H   H26       1.0  0.93210  0.95180  0.24510  1.0000 0.1194180724
H   H27       1.0  0.29330  0.54820  0.48030  1.0000 0.1194180724
H   H28       1.0  0.56790  0.81300  0.01970  1.0000 0.1194180724
H   H29       1.0  0.25490  0.20670  0.68700  1.0000 0.1194180724
H   H30       1.0  0.68700  0.25490  0.20670  1.0000 0.1194180724
H   H31       1.0  0.01970  0.56790  0.81300  1.0000 0.1194180724
H   H32       1.0  0.95180  0.24510  0.93210  1.0000 0.1194180724
H   H33       1.0  0.24510  0.93210  0.95180  1.0000 0.1194180724
H   H34       1.0  0.54820  0.48030  0.29330  1.0000 0.1194180724
H   H35       1.0  0.48030  0.29330  0.54820  1.0000 0.1194180724
H   H36       1.0  0.81300  0.01970  0.56790  1.0000 0.1194180724
H   H37       1.0  0.18700  0.70670  0.75490  1.0000 0.1194180724
H   H38       1.0  0.45180  0.43210  0.74510  1.0000 0.1194180724
H   H39       1.0  0.04820  0.79330  0.98030  1.0000 0.1194180724
H   H40       1.0  0.31300  0.06790  0.51970  1.0000 0.1194180724
H   H41       1.0  0.70670  0.75490  0.18700  1.0000 0.1194180724
H   H42       1.0  0.75490  0.18700  0.70670  1.0000 0.1194180724
H   H43       1.0  0.06790  0.51970  0.31300  1.0000 0.1194180724
H   H44       1.0  0.74510  0.45180  0.43210  1.0000 0.1194180724
H   H45       1.0  0.43210  0.74510  0.45180  1.0000 0.1194180724
H   H46       1.0  0.98030  0.04820  0.79330  1.0000 0.1194180724
H   H47       1.0  0.79330  0.98030  0.04820  1.0000 0.1194180724
H   H48       1.0  0.51970  0.31300  0.06790  1.0000 0.1194180724
H   H49       1.0  0.14830  0.76630  0.12060  1.0000 0.1194180724
H   H50       1.0  0.14570  0.02770  0.37940  1.0000 0.1194180724
H   H51       1.0  0.35170  0.47230  0.61800  1.0000 0.1194180724
H   H52       1.0  0.35430  0.73370  0.88200  1.0000 0.1194180724
H   H53       1.0  0.12060  0.14830  0.76630  1.0000 0.1194180724
H   H54       1.0  0.76630  0.12060  0.14830  1.0000 0.1194180724
H   H55       1.0  0.88200  0.35430  0.73370  1.0000 0.1194180724
H   H56       1.0  0.02770  0.37940  0.14570  1.0000 0.1194180724
H   H57       1.0  0.37940  0.14570  0.02770  1.0000 0.1194180724
H   H58       1.0  0.47230  0.61800  0.35170  1.0000 0.1194180724
H   H59       1.0  0.61800  0.35170  0.47230  1.0000 0.1194180724
H   H60       1.0  0.73370  0.88200  0.35430  1.0000 0.1194180724
H   H61       1.0  0.26630  0.64830  0.62060  1.0000 0.1194180724
H   H62       1.0  0.52770  0.64570  0.87940  1.0000 0.1194180724
H   H63       1.0  0.97230  0.85170  0.11800  1.0000 0.1194180724
H   H64       1.0  0.23370  0.85430  0.38200  1.0000 0.1194180724
H   H65       1.0  0.64830  0.62060  0.26630  1.0000 0.1194180724
H   H66       1.0  0.62060  0.26630  0.64830  1.0000 0.1194180724
H   H67       1.0  0.85430  0.38200  0.23370  1.0000 0.1194180724
H   H68       1.0  0.87940  0.52770  0.64570  1.0000 0.1194180724
H   H69       1.0  0.64570  0.87940  0.52770  1.0000 0.1194180724
H   H70       1.0  0.11800  0.97230  0.85170  1.0000 0.1194180724
H   H71       1.0  0.85170  0.11800  0.97230  1.0000 0.1194180724
H   H72       1.0  0.38200  0.23370  0.85430  1.0000 0.1194180724
H   H73       1.0  0.26550  0.86140  0.18470  1.0000 0.1303971046
H   H74       1.0  0.17670  0.08080  0.31530  1.0000 0.1303971046
H   H75       1.0  0.23450  0.41920  0.59590  1.0000 0.1303971046
H   H76       1.0  0.32330  0.63860  0.90410  1.0000 0.1303971046
H   H77       1.0  0.18470  0.26550  0.86140  1.0000 0.1303971046
H   H78       1.0  0.86140  0.18470  0.26550  1.0000 0.1303971046
H   H79       1.0  0.90410  0.32330  0.63860  1.0000 0.1303971046
H   H80       1.0  0.08080  0.31530  0.17670  1.0000 0.1303971046
H   H81       1.0  0.31530  0.17670  0.08080  1.0000 0.1303971046
H   H82       1.0  0.41920  0.59590  0.23450  1.0000 0.1303971046
H   H83       1.0  0.59590  0.23450  0.41920  1.0000 0.1303971046
H   H84       1.0  0.63860  0.90410  0.32330  1.0000 0.1303971046
H   H85       1.0  0.36140  0.76550  0.68470  1.0000 0.1303971046
H   H86       1.0  0.58080  0.67670  0.81530  1.0000 0.1303971046
H   H87       1.0  0.91920  0.73450  0.09590  1.0000 0.1303971046
H   H88       1.0  0.13860  0.82330  0.40410  1.0000 0.1303971046
H   H89       1.0  0.76550  0.68470  0.36140  1.0000 0.1303971046
H   H90       1.0  0.68470  0.36140  0.76550  1.0000 0.1303971046
H   H91       1.0  0.82330  0.40410  0.13860  1.0000 0.1303971046
H   H92       1.0  0.81530  0.58080  0.67670  1.0000 0.1303971046
H   H93       1.0  0.67670  0.81530  0.58080  1.0000 0.1303971046
H   H94       1.0  0.09590  0.91920  0.73450  1.0000 0.1303971046
H   H95       1.0  0.73450  0.09590  0.91920  1.0000 0.1303971046
H   H96       1.0  0.40410  0.13860  0.82330  1.0000 0.1303971046
H   H97       1.0  0.07860  0.62950  0.16610  1.0000 0.1104443789
H   H98       1.0  0.96340  0.91250  0.33390  1.0000 0.1104443789
H   H99       1.0  0.42140  0.58750  0.55090  1.0000 0.1104443789
H   H100      1.0  0.53660  0.87050  0.94910  1.0000 0.1104443789
H   H101      1.0  0.16610  0.07860  0.62950  1.0000 0.1104443789
H   H102      1.0  0.62950  0.16610  0.07860  1.0000 0.1104443789
H   H103      1.0  0.94910  0.53660  0.87050  1.0000 0.1104443789
H   H104      1.0  0.91250  0.33390  0.96340  1.0000 0.1104443789
H   H105      1.0  0.33390  0.96340  0.91250  1.0000 0.1104443789
H   H106      1.0  0.58750  0.55090  0.42140  1.0000 0.1104443789
H   H107      1.0  0.55090  0.42140  0.58750  1.0000 0.1104443789
H   H108      1.0  0.87050  0.94910  0.53660  1.0000 0.1104443789
H   H109      1.0  0.12950  0.57860  0.66610  1.0000 0.1104443789
H   H110      1.0  0.41250  0.46340  0.83390  1.0000 0.1104443789
H   H111      1.0  0.08750  0.92140  0.05090  1.0000 0.1104443789
H   H112      1.0  0.37050  0.03660  0.44910  1.0000 0.1104443789
H   H113      1.0  0.57860  0.66610  0.12950  1.0000 0.1104443789
H   H114      1.0  0.66610  0.12950  0.57860  1.0000 0.1104443789
H   H115      1.0  0.03660  0.44910  0.37050  1.0000 0.1104443789
H   H116      1.0  0.83390  0.41250  0.46340  1.0000 0.1104443789
H   H117      1.0  0.46340  0.83390  0.41250  1.0000 0.1104443789
H   H118      1.0  0.05090  0.08750  0.92140  1.0000 0.1104443789
H   H119      1.0  0.92140  0.05090  0.08750  1.0000 0.1104443789
H   H120      1.0  0.44910  0.37050  0.03660  1.0000 0.1104443789
H   H121      1.0  0.05210  0.66170  0.11520  1.0000 0.1104443789
H   H122      1.0  0.04650  0.93690  0.38480  1.0000 0.1104443789
H   H123      1.0  0.44790  0.56310  0.60960  1.0000 0.1104443789
H   H124      1.0  0.45350  0.83830  0.89040  1.0000 0.1104443789
H   H125      1.0  0.11520  0.05210  0.66170  1.0000 0.1104443789
H   H126      1.0  0.66170  0.11520  0.05210  1.0000 0.1104443789
H   H127      1.0  0.89040  0.45350  0.83830  1.0000 0.1104443789
H   H128      1.0  0.93690  0.38480  0.04650  1.0000 0.1104443789
H   H129      1.0  0.38480  0.04650  0.93690  1.0000 0.1104443789
H   H130      1.0  0.56310  0.60960  0.44790  1.0000 0.1104443789
H   H131      1.0  0.60960  0.44790  0.56310  1.0000 0.1104443789
H   H132      1.0  0.83830  0.89040  0.45350  1.0000 0.1104443789
H   H133      1.0  0.16170  0.55210  0.61520  1.0000 0.1104443789
H   H134      1.0  0.43690  0.54650  0.88480  1.0000 0.1104443789
H   H135      1.0  0.06310  0.94790  0.10960  1.0000 0.1104443789
H   H136      1.0  0.33830  0.95350  0.39040  1.0000 0.1104443789
H   H137      1.0  0.55210  0.61520  0.16170  1.0000 0.1104443789
H   H138      1.0  0.61520  0.16170  0.55210  1.0000 0.1104443789
H   H139      1.0  0.95350  0.39040  0.33830  1.0000 0.1104443789
H   H140      1.0  0.88480  0.43690  0.54650  1.0000 0.1104443789
H   H141      1.0  0.54650  0.88480  0.43690  1.0000 0.1104443789
H   H142      1.0  0.10960  0.06310  0.94790  1.0000 0.1104443789
H   H143      1.0  0.94790  0.10960  0.06310  1.0000 0.1104443789
H   H144      1.0  0.39040  0.33830  0.95350  1.0000 0.1104443789
H   H145      1.0  0.14570  0.64080  0.04230  1.0000 0.0990118617
H   H146      1.0  0.09850  0.10340  0.45770  1.0000 0.0990118617
H   H147      1.0  0.35430  0.39660  0.49510  1.0000 0.0990118617
H   H148      1.0  0.40150  0.85920  0.00490  1.0000 0.0990118617
H   H149      1.0  0.04230  0.14570  0.64080  1.0000 0.0990118617
H   H150      1.0  0.64080  0.04230  0.14570  1.0000 0.0990118617
H   H151      1.0  0.00490  0.40150  0.85920  1.0000 0.0990118617
H   H152      1.0  0.10340  0.45770  0.09850  1.0000 0.0990118617
H   H153      1.0  0.45770  0.09850  0.10340  1.0000 0.0990118617
H   H154      1.0  0.39660  0.49510  0.35430  1.0000 0.0990118617
H   H155      1.0  0.49510  0.35430  0.39660  1.0000 0.0990118617
H   H156      1.0  0.85920  0.00490  0.40150  1.0000 0.0990118617
H   H157      1.0  0.14080  0.64570  0.54230  1.0000 0.0990118617
H   H158      1.0  0.60340  0.59850  0.95770  1.0000 0.0990118617
H   H159      1.0  0.89660  0.85430  0.99510  1.0000 0.0990118617
H   H160      1.0  0.35920  0.90150  0.50490  1.0000 0.0990118617
H   H161      1.0  0.64570  0.54230  0.14080  1.0000 0.0990118617
H   H162      1.0  0.54230  0.14080  0.64570  1.0000 0.0990118617
H   H163      1.0  0.90150  0.50490  0.35920  1.0000 0.0990118617
H   H164      1.0  0.95770  0.60340  0.59850  1.0000 0.0990118617
H   H165      1.0  0.59850  0.95770  0.60340  1.0000 0.0990118617
H   H166      1.0  0.99510  0.89660  0.85430  1.0000 0.0990118617
H   H167      1.0  0.85430  0.99510  0.89660  1.0000 0.0990118617
H   H168      1.0  0.50490  0.35920  0.90150  1.0000 0.0990118617
H   H169      1.0  0.06720  0.63470  0.00930  1.0000 0.0990118617
H   H170      1.0  0.12540  0.05790  0.49070  1.0000 0.0990118617
H   H171      1.0  0.43280  0.44210  0.56750  1.0000 0.0990118617
H   H172      1.0  0.37460  0.86530  0.93250  1.0000 0.0990118617
H   H173      1.0  0.00930  0.06720  0.63470  1.0000 0.0990118617
H   H174      1.0  0.63470  0.00930  0.06720  1.0000 0.0990118617
H   H175      1.0  0.93250  0.37460  0.86530  1.0000 0.0990118617
H   H176      1.0  0.05790  0.49070  0.12540  1.0000 0.0990118617
H   H177      1.0  0.49070  0.12540  0.05790  1.0000 0.0990118617
H   H178      1.0  0.44210  0.56750  0.43280  1.0000 0.0990118617
H   H179      1.0  0.56750  0.43280  0.44210  1.0000 0.0990118617
H   H180      1.0  0.86530  0.93250  0.37460  1.0000 0.0990118617
H   H181      1.0  0.13470  0.56720  0.50930  1.0000 0.0990118617
H   H182      1.0  0.55790  0.62540  0.99070  1.0000 0.0990118617
H   H183      1.0  0.94210  0.93280  0.06750  1.0000 0.0990118617
H   H184      1.0  0.36530  0.87460  0.43250  1.0000 0.0990118617
H   H185      1.0  0.56720  0.50930  0.13470  1.0000 0.0990118617
H   H186      1.0  0.50930  0.13470  0.56720  1.0000 0.0990118617
H   H187      1.0  0.87460  0.43250  0.36530  1.0000 0.0990118617
H   H188      1.0  0.99070  0.55790  0.62540  1.0000 0.0990118617
H   H189      1.0  0.62540  0.99070  0.55790  1.0000 0.0990118617
H   H190      1.0  0.06750  0.94210  0.93280  1.0000 0.0990118617
H   H191      1.0  0.93280  0.06750  0.94210  1.0000 0.0990118617
H   H192      1.0  0.43250  0.36530  0.87460  1.0000 0.0990118617
H   H193      1.0  0.15710  0.58670  0.14840  1.0000 0.0990118617
H   H194      1.0  0.93830  0.00870  0.35160  1.0000 0.0990118617
H   H195      1.0  0.34290  0.49130  0.42960  1.0000 0.0990118617
H   H196      1.0  0.56170  0.91330  0.07040  1.0000 0.0990118617
H   H197      1.0  0.14840  0.15710  0.58670  1.0000 0.0990118617
H   H198      1.0  0.58670  0.14840  0.15710  1.0000 0.0990118617
H   H199      1.0  0.07040  0.56170  0.91330  1.0000 0.0990118617
H   H200      1.0  0.00870  0.35160  0.93830  1.0000 0.0990118617
H   H201      1.0  0.35160  0.93830  0.00870  1.0000 0.0990118617
H   H202      1.0  0.49130  0.42960  0.34290  1.0000 0.0990118617
H   H203      1.0  0.42960  0.34290  0.49130  1.0000 0.0990118617
H   H204      1.0  0.91330  0.07040  0.56170  1.0000 0.0990118617
H   H205      1.0  0.08670  0.65710  0.64840  1.0000 0.0990118617
H   H206      1.0  0.50870  0.43830  0.85160  1.0000 0.0990118617
H   H207      1.0  0.99130  0.84290  0.92960  1.0000 0.0990118617
H   H208      1.0  0.41330  0.06170  0.57040  1.0000 0.0990118617
H   H209      1.0  0.65710  0.64840  0.08670  1.0000 0.0990118617
H   H210      1.0  0.64840  0.08670  0.65710  1.0000 0.0990118617
H   H211      1.0  0.06170  0.57040  0.41330  1.0000 0.0990118617
H   H212      1.0  0.85160  0.50870  0.43830  1.0000 0.0990118617
H   H213      1.0  0.43830  0.85160  0.50870  1.0000 0.0990118617
H   H214      1.0  0.92960  0.99130  0.84290  1.0000 0.0990118617
H   H215      1.0  0.84290  0.92960  0.99130  1.0000 0.0990118617
H   H216      1.0  0.57040  0.41330  0.06170  1.0000 0.0990118617
H   H217      1.0  0.14570  0.54410  0.06880  1.0000 0.0990118617
H   H218      1.0  0.97530  0.07690  0.43120  1.0000 0.0990118617
H   H219      1.0  0.35430  0.42310  0.39840  1.0000 0.0990118617
H   H220      1.0  0.52470  0.95590  0.10160  1.0000 0.0990118617
H   H221      1.0  0.06880  0.14570  0.54410  1.0000 0.0990118617
H   H222      1.0  0.54410  0.06880  0.14570  1.0000 0.0990118617
H   H223      1.0  0.10160  0.52470  0.95590  1.0000 0.0990118617
H   H224      1.0  0.07690  0.43120  0.97530  1.0000 0.0990118617
H   H225      1.0  0.43120  0.97530  0.07690  1.0000 0.0990118617
H   H226      1.0  0.42310  0.39840  0.35430  1.0000 0.0990118617
H   H227      1.0  0.39840  0.35430  0.42310  1.0000 0.0990118617
H   H228      1.0  0.95590  0.10160  0.52470  1.0000 0.0990118617
H   H229      1.0  0.04410  0.64570  0.56880  1.0000 0.0990118617
H   H230      1.0  0.57690  0.47530  0.93120  1.0000 0.0990118617
H   H231      1.0  0.92310  0.85430  0.89840  1.0000 0.0990118617
H   H232      1.0  0.45590  0.02470  0.60160  1.0000 0.0990118617
H   H233      1.0  0.64570  0.56880  0.04410  1.0000 0.0990118617
H   H234      1.0  0.56880  0.04410  0.64570  1.0000 0.0990118617
H   H235      1.0  0.02470  0.60160  0.45590  1.0000 0.0990118617
H   H236      1.0  0.93120  0.57690  0.47530  1.0000 0.0990118617
H   H237      1.0  0.47530  0.93120  0.57690  1.0000 0.0990118617
H   H238      1.0  0.89840  0.92310  0.85430  1.0000 0.0990118617
H   H239      1.0  0.85430  0.89840  0.92310  1.0000 0.0990118617
H   H240      1.0  0.60160  0.45590  0.02470  1.0000 0.0990118617
C   C1        1.0  0.38390  0.89600  0.30190  1.0000 0.5605008908
C   C2        1.0  0.09410  0.08200  0.19810  1.0000 0.5605008908
C   C3        1.0  0.11610  0.41800  0.51210  1.0000 0.5605008908
C   C4        1.0  0.40590  0.60400  0.98790  1.0000 0.5605008908
C   C5        1.0  0.30190  0.38390  0.89600  1.0000 0.5605008908
C   C6        1.0  0.89600  0.30190  0.38390  1.0000 0.5605008908
C   C7        1.0  0.98790  0.40590  0.60400  1.0000 0.5605008908
C   C8        1.0  0.08200  0.19810  0.09410  1.0000 0.5605008908
C   C9        1.0  0.19810  0.09410  0.08200  1.0000 0.5605008908
C   C10       1.0  0.41800  0.51210  0.11610  1.0000 0.5605008908
C   C11       1.0  0.51210  0.11610  0.41800  1.0000 0.5605008908
C   C12       1.0  0.60400  0.98790  0.40590  1.0000 0.5605008908
C   C13       1.0  0.39600  0.88390  0.80190  1.0000 0.5605008908
C   C14       1.0  0.58200  0.59410  0.69810  1.0000 0.5605008908
C   C15       1.0  0.91800  0.61610  0.01210  1.0000 0.5605008908
C   C16       1.0  0.10400  0.90590  0.48790  1.0000 0.5605008908
C   C17       1.0  0.88390  0.80190  0.39600  1.0000 0.5605008908
C   C18       1.0  0.80190  0.39600  0.88390  1.0000 0.5605008908
C   C19       1.0  0.90590  0.48790  0.10400  1.0000 0.5605008908
C   C20       1.0  0.69810  0.58200  0.59410  1.0000 0.5605008908
C   C21       1.0  0.59410  0.69810  0.58200  1.0000 0.5605008908
C   C22       1.0  0.01210  0.91800  0.61610  1.0000 0.5605008908
C   C23       1.0  0.61610  0.01210  0.91800  1.0000 0.5605008908
C   C24       1.0  0.48790  0.10400  0.90590  1.0000 0.5605008908
C   C25       1.0  0.30680  0.83270  0.25810  1.0000 -0.0342114958
C   C26       1.0  0.07460  0.04870  0.24190  1.0000 -0.0342114958
C   C27       1.0  0.19320  0.45130  0.52590  1.0000 -0.0342114958
C   C28       1.0  0.42540  0.66730  0.97410  1.0000 -0.0342114958
C   C29       1.0  0.25810  0.30680  0.83270  1.0000 -0.0342114958
C   C30       1.0  0.83270  0.25810  0.30680  1.0000 -0.0342114958
C   C31       1.0  0.97410  0.42540  0.66730  1.0000 -0.0342114958
C   C32       1.0  0.04870  0.24190  0.07460  1.0000 -0.0342114958
C   C33       1.0  0.24190  0.07460  0.04870  1.0000 -0.0342114958
C   C34       1.0  0.45130  0.52590  0.19320  1.0000 -0.0342114958
C   C35       1.0  0.52590  0.19320  0.45130  1.0000 -0.0342114958
C   C36       1.0  0.66730  0.97410  0.42540  1.0000 -0.0342114958
C   C37       1.0  0.33270  0.80680  0.75810  1.0000 -0.0342114958
C   C38       1.0  0.54870  0.57460  0.74190  1.0000 -0.0342114958
C   C39       1.0  0.95130  0.69320  0.02590  1.0000 -0.0342114958
C   C40       1.0  0.16730  0.92540  0.47410  1.0000 -0.0342114958
C   C41       1.0  0.80680  0.75810  0.33270  1.0000 -0.0342114958
C   C42       1.0  0.75810  0.33270  0.80680  1.0000 -0.0342114958
C   C43       1.0  0.92540  0.47410  0.16730  1.0000 -0.0342114958
C   C44       1.0  0.74190  0.54870  0.57460  1.0000 -0.0342114958
C   C45       1.0  0.57460  0.74190  0.54870  1.0000 -0.0342114958
C   C46       1.0  0.02590  0.95130  0.69320  1.0000 -0.0342114958
C   C47       1.0  0.69320  0.02590  0.95130  1.0000 -0.0342114958
C   C48       1.0  0.47410  0.16730  0.92540  1.0000 -0.0342114958
C   C49       1.0  0.28750  0.78120  0.27870  1.0000 -0.1267572416
C   C50       1.0  0.00250  0.00880  0.22130  1.0000 -0.1267572416
C   C51       1.0  0.21250  0.49120  0.49370  1.0000 -0.1267572416
C   C52       1.0  0.49750  0.71880  0.00630  1.0000 -0.1267572416
C   C53       1.0  0.27870  0.28750  0.78120  1.0000 -0.1267572416
C   C54       1.0  0.78120  0.27870  0.28750  1.0000 -0.1267572416
C   C55       1.0  0.00630  0.49750  0.71880  1.0000 -0.1267572416
C   C56       1.0  0.00880  0.22130  0.00250  1.0000 -0.1267572416
C   C57       1.0  0.22130  0.00250  0.00880  1.0000 -0.1267572416
C   C58       1.0  0.49120  0.49370  0.21250  1.0000 -0.1267572416
C   C59       1.0  0.49370  0.21250  0.49120  1.0000 -0.1267572416
C   C60       1.0  0.71880  0.00630  0.49750  1.0000 -0.1267572416
C   C61       1.0  0.28120  0.78750  0.77870  1.0000 -0.1267572416
C   C62       1.0  0.50880  0.50250  0.72130  1.0000 -0.1267572416
C   C63       1.0  0.99120  0.71250  0.99370  1.0000 -0.1267572416
C   C64       1.0  0.21880  0.99750  0.50630  1.0000 -0.1267572416
C   C65       1.0  0.78750  0.77870  0.28120  1.0000 -0.1267572416
C   C66       1.0  0.77870  0.28120  0.78750  1.0000 -0.1267572416
C   C67       1.0  0.99750  0.50630  0.21880  1.0000 -0.1267572416
C   C68       1.0  0.72130  0.50880  0.50250  1.0000 -0.1267572416
C   C69       1.0  0.50250  0.72130  0.50880  1.0000 -0.1267572416
C   C70       1.0  0.99370  0.99120  0.71250  1.0000 -0.1267572416
C   C71       1.0  0.71250  0.99370  0.99120  1.0000 -0.1267572416
C   C72       1.0  0.50630  0.21880  0.99750  1.0000 -0.1267572416
C   C73       1.0  0.21840  0.72230  0.23990  1.0000 -0.172529673
C   C74       1.0  0.98240  0.97850  0.26010  1.0000 -0.172529673
C   C75       1.0  0.28160  0.52150  0.50390  1.0000 -0.172529673
C   C76       1.0  0.51760  0.77770  0.99610  1.0000 -0.172529673
C   C77       1.0  0.23990  0.21840  0.72230  1.0000 -0.172529673
C   C78       1.0  0.72230  0.23990  0.21840  1.0000 -0.172529673
C   C79       1.0  0.99610  0.51760  0.77770  1.0000 -0.172529673
C   C80       1.0  0.97850  0.26010  0.98240  1.0000 -0.172529673
C   C81       1.0  0.26010  0.98240  0.97850  1.0000 -0.172529673
C   C82       1.0  0.52150  0.50390  0.28160  1.0000 -0.172529673
C   C83       1.0  0.50390  0.28160  0.52150  1.0000 -0.172529673
C   C84       1.0  0.77770  0.99610  0.51760  1.0000 -0.172529673
C   C85       1.0  0.22230  0.71840  0.73990  1.0000 -0.172529673
C   C86       1.0  0.47850  0.48240  0.76010  1.0000 -0.172529673
C   C87       1.0  0.02150  0.78160  0.00390  1.0000 -0.172529673
C   C88       1.0  0.27770  0.01760  0.49610  1.0000 -0.172529673
C   C89       1.0  0.71840  0.73990  0.22230  1.0000 -0.172529673
C   C90       1.0  0.73990  0.22230  0.71840  1.0000 -0.172529673
C   C91       1.0  0.01760  0.49610  0.27770  1.0000 -0.172529673
C   C92       1.0  0.76010  0.47850  0.48240  1.0000 -0.172529673
C   C93       1.0  0.48240  0.76010  0.47850  1.0000 -0.172529673
C   C94       1.0  0.00390  0.02150  0.78160  1.0000 -0.172529673
C   C95       1.0  0.78160  0.00390  0.02150  1.0000 -0.172529673
C   C96       1.0  0.49610  0.27770  0.01760  1.0000 -0.172529673
C   C97       1.0  0.16450  0.71410  0.17780  1.0000 0.0990118617
C   C98       1.0  0.03630  0.98670  0.32220  1.0000 0.0990118617
C   C99       1.0  0.33550  0.51330  0.54960  1.0000 0.0990118617
C   C100      1.0  0.46370  0.78590  0.95040  1.0000 0.0990118617
C   C101      1.0  0.17780  0.16450  0.71410  1.0000 0.0990118617
C   C102      1.0  0.71410  0.17780  0.16450  1.0000 0.0990118617
C   C103      1.0  0.95040  0.46370  0.78590  1.0000 0.0990118617
C   C104      1.0  0.98670  0.32220  0.03630  1.0000 0.0990118617
C   C105      1.0  0.32220  0.03630  0.98670  1.0000 0.0990118617
C   C106      1.0  0.51330  0.54960  0.33550  1.0000 0.0990118617
C   C107      1.0  0.54960  0.33550  0.51330  1.0000 0.0990118617
C   C108      1.0  0.78590  0.95040  0.46370  1.0000 0.0990118617
C   C109      1.0  0.21410  0.66450  0.67780  1.0000 0.0990118617
C   C110      1.0  0.48670  0.53630  0.82220  1.0000 0.0990118617
C   C111      1.0  0.01330  0.83550  0.04960  1.0000 0.0990118617
C   C112      1.0  0.28590  0.96370  0.45040  1.0000 0.0990118617
C   C113      1.0  0.66450  0.67780  0.21410  1.0000 0.0990118617
C   C114      1.0  0.67780  0.21410  0.66450  1.0000 0.0990118617
C   C115      1.0  0.96370  0.45040  0.28590  1.0000 0.0990118617
C   C116      1.0  0.82220  0.48670  0.53630  1.0000 0.0990118617
C   C117      1.0  0.53630  0.82220  0.48670  1.0000 0.0990118617
C   C118      1.0  0.04960  0.01330  0.83550  1.0000 0.0990118617
C   C119      1.0  0.83550  0.04960  0.01330  1.0000 0.0990118617
C   C120      1.0  0.45040  0.28590  0.96370  1.0000 0.0990118617
C   C121      1.0  0.18420  0.76880  0.16040  1.0000 -0.1618051498
C   C122      1.0  0.10840  0.02380  0.33960  1.0000 -0.1618051498
C   C123      1.0  0.31580  0.47620  0.58460  1.0000 -0.1618051498
C   C124      1.0  0.39160  0.73120  0.91540  1.0000 -0.1618051498
C   C125      1.0  0.16040  0.18420  0.76880  1.0000 -0.1618051498
C   C126      1.0  0.76880  0.16040  0.18420  1.0000 -0.1618051498
C   C127      1.0  0.91540  0.39160  0.73120  1.0000 -0.1618051498
C   C128      1.0  0.02380  0.33960  0.10840  1.0000 -0.1618051498
C   C129      1.0  0.33960  0.10840  0.02380  1.0000 -0.1618051498
C   C130      1.0  0.47620  0.58460  0.31580  1.0000 -0.1618051498
C   C131      1.0  0.58460  0.31580  0.47620  1.0000 -0.1618051498
C   C132      1.0  0.73120  0.91540  0.39160  1.0000 -0.1618051498
C   C133      1.0  0.26880  0.68420  0.66040  1.0000 -0.1618051498
C   C134      1.0  0.52380  0.60840  0.83960  1.0000 -0.1618051498
C   C135      1.0  0.97620  0.81580  0.08460  1.0000 -0.1618051498
C   C136      1.0  0.23120  0.89160  0.41540  1.0000 -0.1618051498
C   C137      1.0  0.68420  0.66040  0.26880  1.0000 -0.1618051498
C   C138      1.0  0.66040  0.26880  0.68420  1.0000 -0.1618051498
C   C139      1.0  0.89160  0.41540  0.23120  1.0000 -0.1618051498
C   C140      1.0  0.83960  0.52380  0.60840  1.0000 -0.1618051498
C   C141      1.0  0.60840  0.83960  0.52380  1.0000 -0.1618051498
C   C142      1.0  0.08460  0.97620  0.81580  1.0000 -0.1618051498
C   C143      1.0  0.81580  0.08460  0.97620  1.0000 -0.1618051498
C   C144      1.0  0.41540  0.23120  0.89160  1.0000 -0.1618051498
C   C145      1.0  0.25340  0.82550  0.19890  1.0000 -0.1045347301
C   C146      1.0  0.12660  0.05450  0.30110  1.0000 -0.1045347301
C   C147      1.0  0.24660  0.44550  0.57210  1.0000 -0.1045347301
C   C148      1.0  0.37340  0.67450  0.92790  1.0000 -0.1045347301
C   C149      1.0  0.19890  0.25340  0.82550  1.0000 -0.1045347301
C   C150      1.0  0.82550  0.19890  0.25340  1.0000 -0.1045347301
C   C151      1.0  0.92790  0.37340  0.67450  1.0000 -0.1045347301
C   C152      1.0  0.05450  0.30110  0.12660  1.0000 -0.1045347301
C   C153      1.0  0.30110  0.12660  0.05450  1.0000 -0.1045347301
C   C154      1.0  0.44550  0.57210  0.24660  1.0000 -0.1045347301
C   C155      1.0  0.57210  0.24660  0.44550  1.0000 -0.1045347301
C   C156      1.0  0.67450  0.92790  0.37340  1.0000 -0.1045347301
C   C157      1.0  0.32550  0.75340  0.69890  1.0000 -0.1045347301
C   C158      1.0  0.55450  0.62660  0.80110  1.0000 -0.1045347301
C   C159      1.0  0.94550  0.74660  0.07210  1.0000 -0.1045347301
C   C160      1.0  0.17450  0.87340  0.42790  1.0000 -0.1045347301
C   C161      1.0  0.75340  0.69890  0.32550  1.0000 -0.1045347301
C   C162      1.0  0.69890  0.32550  0.75340  1.0000 -0.1045347301
C   C163      1.0  0.87340  0.42790  0.17450  1.0000 -0.1045347301
C   C164      1.0  0.80110  0.55450  0.62660  1.0000 -0.1045347301
C   C165      1.0  0.62660  0.80110  0.55450  1.0000 -0.1045347301
C   C166      1.0  0.07210  0.94550  0.74660  1.0000 -0.1045347301
C   C167      1.0  0.74660  0.07210  0.94550  1.0000 -0.1045347301
C   C168      1.0  0.42790  0.17450  0.87340  1.0000 -0.1045347301
C   C169      1.0  0.08850  0.64730  0.13360  1.0000 -0.200141647
C   C170      1.0  0.01370  0.95490  0.36640  1.0000 -0.200141647
C   C171      1.0  0.41150  0.54510  0.55880  1.0000 -0.200141647
C   C172      1.0  0.48630  0.85270  0.94120  1.0000 -0.200141647
C   C173      1.0  0.13360  0.08850  0.64730  1.0000 -0.200141647
C   C174      1.0  0.64730  0.13360  0.08850  1.0000 -0.200141647
C   C175      1.0  0.94120  0.48630  0.85270  1.0000 -0.200141647
C   C176      1.0  0.95490  0.36640  0.01370  1.0000 -0.200141647
C   C177      1.0  0.36640  0.01370  0.95490  1.0000 -0.200141647
C   C178      1.0  0.54510  0.55880  0.41150  1.0000 -0.200141647
C   C179      1.0  0.55880  0.41150  0.54510  1.0000 -0.200141647
C   C180      1.0  0.85270  0.94120  0.48630  1.0000 -0.200141647
C   C181      1.0  0.14730  0.58850  0.63360  1.0000 -0.200141647
C   C182      1.0  0.45490  0.51370  0.86640  1.0000 -0.200141647
C   C183      1.0  0.04510  0.91150  0.05880  1.0000 -0.200141647
C   C184      1.0  0.35270  0.98630  0.44120  1.0000 -0.200141647
C   C185      1.0  0.58850  0.63360  0.14730  1.0000 -0.200141647
C   C186      1.0  0.63360  0.14730  0.58850  1.0000 -0.200141647
C   C187      1.0  0.98630  0.44120  0.35270  1.0000 -0.200141647
C   C188      1.0  0.86640  0.45490  0.51370  1.0000 -0.200141647
C   C189      1.0  0.51370  0.86640  0.45490  1.0000 -0.200141647
C   C190      1.0  0.05880  0.04510  0.91150  1.0000 -0.200141647
C   C191      1.0  0.91150  0.05880  0.04510  1.0000 -0.200141647
C   C192      1.0  0.44120  0.35270  0.98630  1.0000 -0.200141647
C   C193      1.0  0.09260  0.60750  0.01910  1.0000 -0.1618051498
C   C194      1.0  0.08840  0.07350  0.48090  1.0000 -0.1618051498
C   C195      1.0  0.40740  0.42650  0.51490  1.0000 -0.1618051498
C   C196      1.0  0.41160  0.89250  0.98510  1.0000 -0.1618051498
C   C197      1.0  0.01910  0.09260  0.60750  1.0000 -0.1618051498
C   C198      1.0  0.60750  0.01910  0.09260  1.0000 -0.1618051498
C   C199      1.0  0.98510  0.41160  0.89250  1.0000 -0.1618051498
C   C200      1.0  0.07350  0.48090  0.08840  1.0000 -0.1618051498
C   C201      1.0  0.48090  0.08840  0.07350  1.0000 -0.1618051498
C   C202      1.0  0.42650  0.51490  0.40740  1.0000 -0.1618051498
C   C203      1.0  0.51490  0.40740  0.42650  1.0000 -0.1618051498
C   C204      1.0  0.89250  0.98510  0.41160  1.0000 -0.1618051498
C   C205      1.0  0.10750  0.59260  0.51910  1.0000 -0.1618051498
C   C206      1.0  0.57350  0.58840  0.98090  1.0000 -0.1618051498
C   C207      1.0  0.92650  0.90740  0.01490  1.0000 -0.1618051498
C   C208      1.0  0.39250  0.91160  0.48510  1.0000 -0.1618051498
C   C209      1.0  0.59260  0.51910  0.10750  1.0000 -0.1618051498
C   C210      1.0  0.51910  0.10750  0.59260  1.0000 -0.1618051498
C   C211      1.0  0.91160  0.48510  0.39250  1.0000 -0.1618051498
C   C212      1.0  0.98090  0.57350  0.58840  1.0000 -0.1618051498
C   C213      1.0  0.58840  0.98090  0.57350  1.0000 -0.1618051498
C   C214      1.0  0.01490  0.92650  0.90740  1.0000 -0.1618051498
C   C215      1.0  0.90740  0.01490  0.92650  1.0000 -0.1618051498
C   C216      1.0  0.48510  0.39250  0.91160  1.0000 -0.1618051498
C   C217      1.0  0.11970  0.55210  0.09620  1.0000 -0.1618051498
C   C218      1.0  0.95590  0.02350  0.40380  1.0000 -0.1618051498
C   C219      1.0  0.38030  0.47650  0.43240  1.0000 -0.1618051498
C   C220      1.0  0.54410  0.94790  0.06760  1.0000 -0.1618051498
C   C221      1.0  0.09620  0.11970  0.55210  1.0000 -0.1618051498
C   C222      1.0  0.55210  0.09620  0.11970  1.0000 -0.1544044531
C   C223      1.0  0.06760  0.54410  0.94790  1.0000 -0.1544044531
C   C224      1.0  0.02350  0.40380  0.95590  1.0000 -0.1618051498
C   C225      1.0  0.40380  0.95590  0.02350  1.0000 -0.1618051498
C   C226      1.0  0.47650  0.43240  0.38030  1.0000 -0.1618051498
C   C227      1.0  0.43240  0.38030  0.47650  1.0000 -0.1544044531
C   C228      1.0  0.94790  0.06760  0.54410  1.0000 -0.1544044531
C   C229      1.0  0.05210  0.61970  0.59620  1.0000 -0.1618051498
C   C230      1.0  0.52350  0.45590  0.90380  1.0000 -0.1618051498
C   C231      1.0  0.97650  0.88030  0.93240  1.0000 -0.1544044531
C   C232      1.0  0.44790  0.04410  0.56760  1.0000 -0.1544044531
C   C233      1.0  0.61970  0.59620  0.05210  1.0000 -0.1618051498
C   C234      1.0  0.59620  0.05210  0.61970  1.0000 -0.1544044531
C   C235      1.0  0.04410  0.56760  0.44790  1.0000 -0.1618051498
C   C236      1.0  0.90380  0.52350  0.45590  1.0000 -0.1618051498
C   C237      1.0  0.45590  0.90380  0.52350  1.0000 -0.1618051498
C   C238      1.0  0.93240  0.97650  0.88030  1.0000 -0.1618051498
C   C239      1.0  0.88030  0.93240  0.97650  1.0000 -0.1544044531
C   C240      1.0  0.56760  0.44790  0.04410  1.0000 -0.1544044531
N   N1        1.0  0.07860  0.58580  0.06980  1.0000 -0.0938242464
N   N2        1.0  0.01600  0.00880  0.43020  1.0000 -0.0938242464
N   N3        1.0  0.42140  0.49120  0.50720  1.0000 -0.0938242464
N   N4        1.0  0.48400  0.91420  0.99280  1.0000 -0.0938242464
N   N5        1.0  0.06980  0.07860  0.58580  1.0000 -0.0938242464
N   N6        1.0  0.58580  0.06980  0.07860  1.0000 -0.0938242464
N   N7        1.0  0.99280  0.48400  0.91420  1.0000 -0.0938242464
N   N8        1.0  0.00880  0.43020  0.01600  1.0000 -0.0938242464
N   N9        1.0  0.43020  0.01600  0.00880  1.0000 -0.0938242464
N   N10       1.0  0.49120  0.50720  0.42140  1.0000 -0.0938242464
N   N11       1.0  0.50720  0.42140  0.49120  1.0000 -0.0938242464
N   N12       1.0  0.91420  0.99280  0.48400  1.0000 -0.0938242464
N   N13       1.0  0.08580  0.57860  0.56980  1.0000 -0.0938242464
N   N14       1.0  0.50880  0.51600  0.93020  1.0000 -0.0938242464
N   N15       1.0  0.99120  0.92140  0.00720  1.0000 -0.0938242464
N   N16       1.0  0.41420  0.98400  0.49280  1.0000 -0.0938242464
N   N17       1.0  0.57860  0.56980  0.08580  1.0000 -0.0938242464
N   N18       1.0  0.56980  0.08580  0.57860  1.0000 -0.0938242464
N   N19       1.0  0.98400  0.49280  0.41420  1.0000 -0.0938242464
N   N20       1.0  0.93020  0.50880  0.51600  1.0000 -0.0938242464
N   N21       1.0  0.51600  0.93020  0.50880  1.0000 -0.0938242464
N   N22       1.0  0.00720  0.99120  0.92140  1.0000 -0.0938242464
N   N23       1.0  0.92140  0.00720  0.99120  1.0000 -0.0938242464
N   N24       1.0  0.49280  0.41420  0.98400  1.0000 -0.0938242464
O   O1        1.0  0.42535  0.90798  0.36001  1.0000 -0.5245078421
O   O2        1.0  0.04797  0.06534  0.13999  1.0000 -0.5245078421
O   O3        1.0  0.07465  0.43466  0.48263  1.0000 -0.5245078421
O   O4        1.0  0.45203  0.59202  0.01737  1.0000 -0.5250720001
O   O5        1.0  0.36001  0.42535  0.90798  1.0000 -0.5250720001
O   O6        1.0  0.90798  0.36001  0.42535  1.0000 -0.5245078421
O   O7        1.0  0.01737  0.45203  0.59202  1.0000 -0.5245078421
O   O8        1.0  0.06534  0.13999  0.04797  1.0000 -0.5245078421
O   O9        1.0  0.13999  0.04797  0.06534  1.0000 -0.5245078421
O   O10       1.0  0.43466  0.48263  0.07465  1.0000 -0.5245078421
O   O11       1.0  0.48263  0.07465  0.43466  1.0000 -0.5245078421
O   O12       1.0  0.59202  0.01737  0.45203  1.0000 -0.5245078421
O   O13       1.0  0.40798  0.92535  0.86001  1.0000 -0.5250720001
O   O14       1.0  0.56534  0.54797  0.63999  1.0000 -0.5250720001
O   O15       1.0  0.93466  0.57465  0.98263  1.0000 -0.5245078421
O   O16       1.0  0.09202  0.95203  0.51737  1.0000 -0.5245078421
O   O17       1.0  0.92535  0.86001  0.40798  1.0000 -0.5250720001
O   O18       1.0  0.86001  0.40798  0.92535  1.0000 -0.5245078421
O   O19       1.0  0.95203  0.51737  0.09202  1.0000 -0.5245078421
O   O20       1.0  0.63999  0.56534  0.54797  1.0000 -0.5250720001
O   O21       1.0  0.54797  0.63999  0.56534  1.0000 -0.5250720001
O   O22       1.0  0.98263  0.93466  0.57465  1.0000 -0.5245078421
O   O23       1.0  0.57465  0.98263  0.93466  1.0000 -0.5250720001
O   O24       1.0  0.51737  0.09202  0.95203  1.0000 -0.5245078421
O   O25       1.0  0.39975  0.93320  0.27075  1.0000 -0.5714557163
O   O26       1.0  0.16245  0.12900  0.22925  1.0000 -0.5714557163
O   O27       1.0  0.10025  0.37100  0.53345  1.0000 -0.5714557163
O   O28       1.0  0.33755  0.56680  0.96655  1.0000 -0.5714557163
O   O29       1.0  0.27075  0.39975  0.93320  1.0000 -0.5714557163
O   O30       1.0  0.93320  0.27075  0.39975  1.0000 -0.5714557163
O   O31       1.0  0.96655  0.33755  0.56680  1.0000 -0.5714557163
O   O32       1.0  0.12900  0.22925  0.16245  1.0000 -0.5714557163
O   O33       1.0  0.22925  0.16245  0.12900  1.0000 -0.5714557163
O   O34       1.0  0.37100  0.53345  0.10025  1.0000 -0.5714557163
O   O35       1.0  0.53345  0.10025  0.37100  1.0000 -0.5714557163
O   O36       1.0  0.56680  0.96655  0.33755  1.0000 -0.5714557163
O   O37       1.0  0.43320  0.89975  0.77075  1.0000 -0.5714557163
O   O38       1.0  0.62900  0.66245  0.72925  1.0000 -0.5714557163
O   O39       1.0  0.87100  0.60025  0.03345  1.0000 -0.5714557163
O   O40       1.0  0.06680  0.83755  0.46655  1.0000 -0.5714557163
O   O41       1.0  0.89975  0.77075  0.43320  1.0000 -0.5714557163
O   O42       1.0  0.77075  0.43320  0.89975  1.0000 -0.5714557163
O   O43       1.0  0.83755  0.46655  0.06680  1.0000 -0.5714557163
O   O44       1.0  0.72925  0.62900  0.66245  1.0000 -0.5714557163
O   O45       1.0  0.66245  0.72925  0.62900  1.0000 -0.5714557163
O   O46       1.0  0.03345  0.87100  0.60025  1.0000 -0.5714557163
O   O47       1.0  0.60025  0.03345  0.87100  1.0000 -0.5714557163
O   O48       1.0  0.46655  0.06680  0.83755  1.0000 -0.5714557163
