# DDEC6 charges by PACMAN v1.1 (https://github.com/mtap-research/PACMAN-charge/)
data_2011[In][dia]3[ASR]1
_chemical_formula_sum              "In80 H48 C48 S128 N32"
_cell_length_a       22.5121
_cell_length_b       22.661
_cell_length_c       33.3409
_cell_angle_alpha    90
_cell_angle_beta     90
_cell_angle_gamma    90

_symmetry_space_group_name_H-M    "P 1"
_symmetry_Int_Tables_number       1

loop_
  _symmetry_equiv_pos_as_xyz
  'x, y, z'

loop_
  _atom_site_type_symbol
  _atom_site_label
  _atom_site_symmetry_multiplicity
  _atom_site_fract_x
  _atom_site_fract_y
  _atom_site_fract_z
  _atom_site_occupancy
  _atom_site_charge
In  In1       1.0  0.08639  0.69898  0.74450  1.0000 0.8395283397
In  In2       1.0  0.41361  0.30102  0.24450  1.0000 0.8596385913
In  In3       1.0  0.91361  0.19898  0.75550  1.0000 0.8706239707
In  In4       1.0  0.58639  0.80102  0.25550  1.0000 0.8347320901
In  In5       1.0  0.17794  0.76804  0.66467  1.0000 0.9486137814
In  In6       1.0  0.32206  0.23196  0.16467  1.0000 0.9486137814
In  In7       1.0  0.82206  0.26804  0.83533  1.0000 0.9311202116
In  In8       1.0  0.67794  0.73196  0.33533  1.0000 0.920265509
In  In9       1.0  0.01599  0.68988  0.64313  1.0000 0.9417723395
In  In10      1.0  0.48401  0.31012  0.14313  1.0000 0.9417723395
In  In11      1.0  0.98401  0.18988  0.85687  1.0000 0.9311202116
In  In12      1.0  0.51599  0.81012  0.35687  1.0000 0.911030923
In  In13      1.0  0.02379  0.84117  0.70801  1.0000 0.9486137814
In  In14      1.0  0.47621  0.15883  0.20801  1.0000 0.9486137814
In  In15      1.0  0.97621  0.34117  0.79199  1.0000 0.9486137814
In  In16      1.0  0.52379  0.65883  0.29199  1.0000 0.9486137814
In  In17      1.0  0.24730  0.84505  0.57749  1.0000 0.8506683098
In  In18      1.0  0.25270  0.15495  0.07749  1.0000 0.8756542103
In  In19      1.0  0.75270  0.34505  0.92251  1.0000 0.8596385913
In  In20      1.0  0.74730  0.65495  0.42251  1.0000 0.8706239707
In  In21      1.0  0.10794  0.76693  0.55146  1.0000 0.9486137814
In  In22      1.0  0.39206  0.23307  0.05146  1.0000 0.9417723395
In  In23      1.0  0.89206  0.26693  0.94854  1.0000 0.9417723395
In  In24      1.0  0.60794  0.73307  0.44854  1.0000 0.920265509
In  In25      1.0  0.95816  0.69850  0.53897  1.0000 0.8756542103
In  In26      1.0  0.54184  0.30150  0.03897  1.0000 0.8706239707
In  In27      1.0  0.04184  0.19850  0.96103  1.0000 0.8506683098
In  In28      1.0  0.45816  0.80150  0.46103  1.0000 0.8706239707
In  In29      1.0  0.11473  0.92159  0.61719  1.0000 0.9417723395
In  In30      1.0  0.38527  0.07841  0.11719  1.0000 0.9417723395
In  In31      1.0  0.88527  0.42159  0.88281  1.0000 0.920265509
In  In32      1.0  0.61473  0.57841  0.38281  1.0000 0.920265509
In  In33      1.0  0.95563  0.84228  0.59290  1.0000 0.9486137814
In  In34      1.0  0.54437  0.15772  0.09290  1.0000 0.920265509
In  In35      1.0  0.04437  0.34228  0.90710  1.0000 0.920265509
In  In36      1.0  0.45563  0.65772  0.40710  1.0000 0.9417723395
In  In37      1.0  0.96828  0.97638  0.65493  1.0000 0.8596385913
In  In38      1.0  0.53172  0.02362  0.15493  1.0000 0.8395283397
In  In39      1.0  0.03172  0.47638  0.84507  1.0000 0.8395283397
In  In40      1.0  0.46828  0.52362  0.34507  1.0000 0.8596385913
In  In41      1.0  0.91361  0.30102  0.25550  1.0000 0.8395283397
In  In42      1.0  0.58639  0.69898  0.75550  1.0000 0.8395283397
In  In43      1.0  0.08639  0.80102  0.24450  1.0000 0.8347320901
In  In44      1.0  0.41361  0.19898  0.74450  1.0000 0.8596385913
In  In45      1.0  0.82206  0.23196  0.33533  1.0000 0.9311202116
In  In46      1.0  0.67794  0.76804  0.83533  1.0000 0.920265509
In  In47      1.0  0.17794  0.73196  0.16467  1.0000 0.9486137814
In  In48      1.0  0.32206  0.26804  0.66467  1.0000 0.9486137814
In  In49      1.0  0.98401  0.31012  0.35687  1.0000 0.911030923
In  In50      1.0  0.51599  0.68988  0.85687  1.0000 0.9417723395
In  In51      1.0  0.01599  0.81012  0.14313  1.0000 0.9417723395
In  In52      1.0  0.48401  0.18988  0.64313  1.0000 0.9417723395
In  In53      1.0  0.97621  0.15883  0.29199  1.0000 0.9486137814
In  In54      1.0  0.52379  0.84117  0.79199  1.0000 0.9486137814
In  In55      1.0  0.02379  0.65883  0.20801  1.0000 0.9486137814
In  In56      1.0  0.47621  0.34117  0.70801  1.0000 0.9550300585
In  In57      1.0  0.75270  0.15495  0.42251  1.0000 0.8596385913
In  In58      1.0  0.74730  0.84505  0.92251  1.0000 0.8506683098
In  In59      1.0  0.24730  0.65495  0.07749  1.0000 0.8506683098
In  In60      1.0  0.25270  0.34505  0.57749  1.0000 0.8756542103
In  In61      1.0  0.89206  0.23307  0.44854  1.0000 0.9417723395
In  In62      1.0  0.60794  0.76693  0.94854  1.0000 0.920265509
In  In63      1.0  0.10794  0.73307  0.05146  1.0000 0.9486137814
In  In64      1.0  0.39206  0.26693  0.55146  1.0000 0.9417723395
In  In65      1.0  0.04184  0.30150  0.46103  1.0000 0.8506683098
In  In66      1.0  0.45816  0.69850  0.96103  1.0000 0.8756542103
In  In67      1.0  0.95816  0.80150  0.03897  1.0000 0.8706239707
In  In68      1.0  0.54184  0.19850  0.53897  1.0000 0.8706239707
In  In69      1.0  0.88527  0.07841  0.38281  1.0000 0.920265509
In  In70      1.0  0.61473  0.92159  0.88281  1.0000 0.920265509
In  In71      1.0  0.11473  0.57841  0.11719  1.0000 0.9417723395
In  In72      1.0  0.38527  0.42159  0.61719  1.0000 0.9486137814
In  In73      1.0  0.04437  0.15772  0.40710  1.0000 0.920265509
In  In74      1.0  0.45563  0.84228  0.90710  1.0000 0.920265509
In  In75      1.0  0.95563  0.65772  0.09290  1.0000 0.920265509
In  In76      1.0  0.54437  0.34228  0.59290  1.0000 0.920265509
In  In77      1.0  0.03172  0.02362  0.34507  1.0000 0.8596385913
In  In78      1.0  0.46828  0.97638  0.84507  1.0000 0.8395283397
In  In79      1.0  0.96828  0.52362  0.15493  1.0000 0.8596385913
In  In80      1.0  0.53172  0.47638  0.65493  1.0000 0.8395283397
H   H1        1.0  0.36710  0.94070  0.56860  1.0000 0.0912653039
H   H2        1.0  0.13290  0.05930  0.06860  1.0000 0.0912653039
H   H3        1.0  0.63290  0.44070  0.93140  1.0000 0.0828764038
H   H4        1.0  0.86710  0.55930  0.43140  1.0000 0.0828764038
H   H5        1.0  0.18300  0.64570  0.81510  1.0000 0.0912653039
H   H6        1.0  0.31700  0.35430  0.31510  1.0000 0.0999826736
H   H7        1.0  0.81700  0.14570  0.68490  1.0000 0.0828764038
H   H8        1.0  0.68300  0.85430  0.18490  1.0000 0.0912653039
H   H9        1.0  0.44940  0.92620  0.51910  1.0000 0.1080609213
H   H10       1.0  0.05060  0.07380  0.01910  1.0000 0.1080609213
H   H11       1.0  0.55060  0.42620  0.98090  1.0000 0.0999826736
H   H12       1.0  0.94940  0.57380  0.48090  1.0000 0.0999826736
H   H13       1.0  0.34000  0.79000  0.51620  1.0000 0.0576773389
H   H14       1.0  0.16000  0.21000  0.01620  1.0000 0.0576773389
H   H15       1.0  0.66000  0.29000  0.98380  1.0000 0.0576773389
H   H16       1.0  0.84000  0.71000  0.48380  1.0000 0.0480199409
H   H17       1.0  0.16360  0.55410  0.85250  1.0000 0.1080609213
H   H18       1.0  0.33640  0.44590  0.35250  1.0000 0.0999826736
H   H19       1.0  0.83640  0.05410  0.64750  1.0000 0.0999826736
H   H20       1.0  0.66360  0.94590  0.14750  1.0000 0.0999826736
H   H21       1.0  0.02080  0.59460  0.79200  1.0000 0.0480199409
H   H22       1.0  0.47920  0.40540  0.29200  1.0000 0.0419986266
H   H23       1.0  0.97920  0.09460  0.70800  1.0000 0.0419986266
H   H24       1.0  0.52080  0.90540  0.20800  1.0000 0.0480199409
H   H25       1.0  0.63290  0.05930  0.43140  1.0000 0.0828764038
H   H26       1.0  0.86710  0.94070  0.93140  1.0000 0.0828764038
H   H27       1.0  0.36710  0.55930  0.06860  1.0000 0.0912653039
H   H28       1.0  0.13290  0.44070  0.56860  1.0000 0.0999826736
H   H29       1.0  0.81700  0.35430  0.18490  1.0000 0.0912653039
H   H30       1.0  0.68300  0.64570  0.68490  1.0000 0.0912653039
H   H31       1.0  0.18300  0.85430  0.31510  1.0000 0.0912653039
H   H32       1.0  0.31700  0.14570  0.81510  1.0000 0.0912653039
H   H33       1.0  0.55060  0.07380  0.48090  1.0000 0.0999826736
H   H34       1.0  0.94940  0.92620  0.98090  1.0000 0.0999826736
H   H35       1.0  0.44940  0.57380  0.01910  1.0000 0.1080609213
H   H36       1.0  0.05060  0.42620  0.51910  1.0000 0.0999826736
H   H37       1.0  0.66000  0.21000  0.48380  1.0000 0.0576773389
H   H38       1.0  0.84000  0.79000  0.98380  1.0000 0.0480199409
H   H39       1.0  0.34000  0.71000  0.01620  1.0000 0.0576773389
H   H40       1.0  0.16000  0.29000  0.51620  1.0000 0.0576773389
H   H41       1.0  0.83640  0.44590  0.14750  1.0000 0.1080609213
H   H42       1.0  0.66360  0.55410  0.64750  1.0000 0.0999826736
H   H43       1.0  0.16360  0.94590  0.35250  1.0000 0.1080609213
H   H44       1.0  0.33640  0.05410  0.85250  1.0000 0.0999826736
H   H45       1.0  0.97920  0.40540  0.20800  1.0000 0.0419986266
H   H46       1.0  0.52080  0.59460  0.70800  1.0000 0.0480199409
H   H47       1.0  0.02080  0.90540  0.29200  1.0000 0.0480199409
H   H48       1.0  0.47920  0.09460  0.79200  1.0000 0.0419986266
C   C1        1.0  0.37100  0.90790  0.55100  1.0000 0.1208157123
C   C2        1.0  0.12900  0.09210  0.05100  1.0000 0.1208157123
C   C3        1.0  0.62900  0.40790  0.94900  1.0000 0.1208157123
C   C4        1.0  0.87100  0.59210  0.44900  1.0000 0.1208157123
C   C5        1.0  0.14670  0.62420  0.81520  1.0000 0.1506404725
C   C6        1.0  0.35330  0.37580  0.31520  1.0000 0.1629066067
C   C7        1.0  0.85330  0.12420  0.68480  1.0000 0.1629066067
C   C8        1.0  0.64670  0.87580  0.18480  1.0000 0.1425899016
C   C9        1.0  0.41710  0.90030  0.52410  1.0000 0.1302583546
C   C10       1.0  0.08290  0.09970  0.02410  1.0000 0.1302583546
C   C11       1.0  0.58290  0.40030  0.97590  1.0000 0.1208157123
C   C12       1.0  0.91710  0.59970  0.47590  1.0000 0.1302583546
C   C13       1.0  0.35630  0.82730  0.52290  1.0000 0.2600693196
C   C14       1.0  0.14370  0.17270  0.02290  1.0000 0.2600693196
C   C15       1.0  0.64370  0.32730  0.97710  1.0000 0.2600693196
C   C16       1.0  0.85630  0.67270  0.47710  1.0000 0.2511250602
C   C17       1.0  0.13580  0.57430  0.83610  1.0000 0.1208157123
C   C18       1.0  0.36420  0.42570  0.33610  1.0000 0.1302583546
C   C19       1.0  0.86420  0.07430  0.66390  1.0000 0.1302583546
C   C20       1.0  0.63580  0.92570  0.16390  1.0000 0.1208157123
C   C21       1.0  0.05930  0.59650  0.80360  1.0000 0.2718856456
C   C22       1.0  0.44070  0.40350  0.30360  1.0000 0.2600693196
C   C23       1.0  0.94070  0.09650  0.69640  1.0000 0.2718856456
C   C24       1.0  0.55930  0.90350  0.19640  1.0000 0.2511250602
C   C25       1.0  0.62900  0.09210  0.44900  1.0000 0.1080609213
C   C26       1.0  0.87100  0.90790  0.94900  1.0000 0.1208157123
C   C27       1.0  0.37100  0.59210  0.05100  1.0000 0.1208157123
C   C28       1.0  0.12900  0.40790  0.55100  1.0000 0.1208157123
C   C29       1.0  0.85330  0.37580  0.18480  1.0000 0.1629066067
C   C30       1.0  0.64670  0.62420  0.68480  1.0000 0.1425899016
C   C31       1.0  0.14670  0.87580  0.31520  1.0000 0.1506404725
C   C32       1.0  0.35330  0.12420  0.81520  1.0000 0.1506404725
C   C33       1.0  0.58290  0.09970  0.47590  1.0000 0.1208157123
C   C34       1.0  0.91710  0.90030  0.97590  1.0000 0.1208157123
C   C35       1.0  0.41710  0.59970  0.02410  1.0000 0.1302583546
C   C36       1.0  0.08290  0.40030  0.52410  1.0000 0.1302583546
C   C37       1.0  0.64370  0.17270  0.47710  1.0000 0.2511250602
C   C38       1.0  0.85630  0.82730  0.97710  1.0000 0.2600693196
C   C39       1.0  0.35630  0.67270  0.02290  1.0000 0.2600693196
C   C40       1.0  0.14370  0.32730  0.52290  1.0000 0.2600693196
C   C41       1.0  0.86420  0.42570  0.16390  1.0000 0.1302583546
C   C42       1.0  0.63580  0.57430  0.66390  1.0000 0.1208157123
C   C43       1.0  0.13580  0.92570  0.33610  1.0000 0.1302583546
C   C44       1.0  0.36420  0.07430  0.83610  1.0000 0.1208157123
C   C45       1.0  0.94070  0.40350  0.19640  1.0000 0.2718856456
C   C46       1.0  0.55930  0.59650  0.69640  1.0000 0.2511250602
C   C47       1.0  0.05930  0.90350  0.30360  1.0000 0.2718856456
C   C48       1.0  0.44070  0.09650  0.80360  1.0000 0.2511250602
S   S1        1.0  0.18898  0.71130  0.72533  1.0000 -0.5903187447
S   S2        1.0  0.31102  0.28870  0.22533  1.0000 -0.5797933194
S   S3        1.0  0.81102  0.21130  0.77467  1.0000 -0.5996631238
S   S4        1.0  0.68898  0.78870  0.27467  1.0000 -0.5797933194
S   S5        1.0  0.02320  0.63540  0.70465  1.0000 -0.5903187447
S   S6        1.0  0.47680  0.36460  0.20465  1.0000 -0.5903187447
S   S7        1.0  0.97680  0.13540  0.79535  1.0000 -0.5996631238
S   S8        1.0  0.52320  0.86460  0.29535  1.0000 -0.570556328
S   S9        1.0  0.03580  0.78630  0.76957  1.0000 -0.6103813463
S   S10       1.0  0.46420  0.21370  0.26957  1.0000 -0.6500104122
S   S11       1.0  0.96420  0.28630  0.73043  1.0000 -0.6624550326
S   S12       1.0  0.53580  0.71370  0.23043  1.0000 -0.61965864
S   S13       1.0  0.27447  0.79030  0.63748  1.0000 -0.5996631238
S   S14       1.0  0.22553  0.20970  0.13748  1.0000 -0.6370617701
S   S15       1.0  0.72553  0.29030  0.86252  1.0000 -0.6289975299
S   S16       1.0  0.77447  0.70970  0.36252  1.0000 -0.6103813463
S   S17       1.0  0.11752  0.70967  0.61549  1.0000 -0.6693358325
S   S18       1.0  0.38248  0.29033  0.11549  1.0000 -0.6693358325
S   S19       1.0  0.88248  0.20967  0.88451  1.0000 -0.6798521002
S   S20       1.0  0.61752  0.79033  0.38451  1.0000 -0.6624550326
S   S21       1.0  0.95820  0.63260  0.59629  1.0000 -0.5996631238
S   S22       1.0  0.54180  0.36740  0.09629  1.0000 -0.5797933194
S   S23       1.0  0.04180  0.13260  0.90371  1.0000 -0.5797933194
S   S24       1.0  0.45820  0.86740  0.40371  1.0000 -0.5797933194
S   S25       1.0  0.12550  0.86302  0.68030  1.0000 -0.6624550326
S   S26       1.0  0.37450  0.13698  0.18030  1.0000 -0.6624550326
S   S27       1.0  0.87450  0.36302  0.81970  1.0000 -0.6624550326
S   S28       1.0  0.62550  0.63698  0.31970  1.0000 -0.6624550326
S   S29       1.0  0.96442  0.78530  0.65684  1.0000 -0.6693358325
S   S30       1.0  0.53558  0.21470  0.15684  1.0000 -0.6693358325
S   S31       1.0  0.03558  0.28530  0.84316  1.0000 -0.6798521002
S   S32       1.0  0.46442  0.71470  0.34316  1.0000 -0.6798521002
S   S33       1.0  0.96950  0.93050  0.72061  1.0000 -0.5903187447
S   S34       1.0  0.53050  0.06950  0.22061  1.0000 -0.5797933194
S   S35       1.0  0.03050  0.43050  0.77939  1.0000 -0.570556328
S   S36       1.0  0.46950  0.56950  0.27939  1.0000 -0.5996631238
S   S37       1.0  0.20500  0.78560  0.52459  1.0000 -0.5797933194
S   S38       1.0  0.29500  0.21440  0.02459  1.0000 -0.570556328
S   S39       1.0  0.79500  0.28560  0.97541  1.0000 -0.5903187447
S   S40       1.0  0.70500  0.71440  0.47541  1.0000 -0.570556328
S   S41       1.0  0.05120  0.71020  0.50387  1.0000 -0.61965864
S   S42       1.0  0.44880  0.28980  0.00387  1.0000 -0.61965864
S   S43       1.0  0.94880  0.21020  0.99613  1.0000 -0.6103813463
S   S44       1.0  0.55120  0.78980  0.49613  1.0000 -0.6103813463
S   S45       1.0  0.21020  0.94350  0.58866  1.0000 -0.570556328
S   S46       1.0  0.28980  0.05650  0.08866  1.0000 -0.5996631238
S   S47       1.0  0.78980  0.44350  0.91134  1.0000 -0.5903187447
S   S48       1.0  0.71020  0.55650  0.41134  1.0000 -0.570556328
S   S49       1.0  0.05716  0.86311  0.56634  1.0000 -0.6624550326
S   S50       1.0  0.44284  0.13689  0.06634  1.0000 -0.6693358325
S   S51       1.0  0.94284  0.36311  0.93366  1.0000 -0.6798521002
S   S52       1.0  0.55716  0.63689  0.43366  1.0000 -0.6624550326
S   S53       1.0  0.89730  0.78590  0.54596  1.0000 -0.5996631238
S   S54       1.0  0.60270  0.21410  0.04596  1.0000 -0.5996631238
S   S55       1.0  0.10270  0.28590  0.95404  1.0000 -0.5903187447
S   S56       1.0  0.39730  0.71410  0.45404  1.0000 -0.6103813463
S   S57       1.0  0.06450  0.01300  0.63277  1.0000 -0.6370617701
S   S58       1.0  0.43550  0.98700  0.13277  1.0000 -0.5996631238
S   S59       1.0  0.93550  0.51300  0.86723  1.0000 -0.6289975299
S   S60       1.0  0.56450  0.48700  0.36723  1.0000 -0.6103813463
S   S61       1.0  0.90450  0.93400  0.60414  1.0000 -0.5996631238
S   S62       1.0  0.59550  0.06600  0.10414  1.0000 -0.570556328
S   S63       1.0  0.09550  0.43400  0.89586  1.0000 -0.5996631238
S   S64       1.0  0.40450  0.56600  0.39586  1.0000 -0.6103813463
S   S65       1.0  0.81102  0.28870  0.27467  1.0000 -0.5996631238
S   S66       1.0  0.68898  0.71130  0.77467  1.0000 -0.5797933194
S   S67       1.0  0.18898  0.78870  0.22533  1.0000 -0.5996631238
S   S68       1.0  0.31102  0.21130  0.72533  1.0000 -0.570556328
S   S69       1.0  0.97680  0.36460  0.29535  1.0000 -0.570556328
S   S70       1.0  0.52320  0.63540  0.79535  1.0000 -0.5996631238
S   S71       1.0  0.02320  0.86460  0.20465  1.0000 -0.5903187447
S   S72       1.0  0.47680  0.13540  0.70465  1.0000 -0.5903187447
S   S73       1.0  0.96420  0.21370  0.23043  1.0000 -0.6500104122
S   S74       1.0  0.53580  0.78630  0.73043  1.0000 -0.61965864
S   S75       1.0  0.03580  0.71370  0.26957  1.0000 -0.6103813463
S   S76       1.0  0.46420  0.28630  0.76957  1.0000 -0.6500104122
S   S77       1.0  0.72553  0.20970  0.36252  1.0000 -0.6289975299
S   S78       1.0  0.77447  0.79030  0.86252  1.0000 -0.6103813463
S   S79       1.0  0.27447  0.70970  0.13748  1.0000 -0.5996631238
S   S80       1.0  0.22553  0.29030  0.63748  1.0000 -0.6370617701
S   S81       1.0  0.88248  0.29033  0.38451  1.0000 -0.6798521002
S   S82       1.0  0.61752  0.70967  0.88451  1.0000 -0.6693358325
S   S83       1.0  0.11752  0.79033  0.11549  1.0000 -0.6798521002
S   S84       1.0  0.38248  0.20967  0.61549  1.0000 -0.6624550326
S   S85       1.0  0.04180  0.36740  0.40371  1.0000 -0.5797933194
S   S86       1.0  0.45820  0.63260  0.90371  1.0000 -0.6103813463
S   S87       1.0  0.95820  0.86740  0.09629  1.0000 -0.5903187447
S   S88       1.0  0.54180  0.13260  0.59629  1.0000 -0.5797933194
S   S89       1.0  0.87450  0.13698  0.31970  1.0000 -0.6693358325
S   S90       1.0  0.62550  0.86302  0.81970  1.0000 -0.6693358325
S   S91       1.0  0.12550  0.63698  0.18030  1.0000 -0.6693358325
S   S92       1.0  0.37450  0.36302  0.68030  1.0000 -0.6624550326
S   S93       1.0  0.03558  0.21470  0.34316  1.0000 -0.6798521002
S   S94       1.0  0.46442  0.78530  0.84316  1.0000 -0.6798521002
S   S95       1.0  0.96442  0.71470  0.15684  1.0000 -0.6798521002
S   S96       1.0  0.53558  0.28530  0.65684  1.0000 -0.6693358325
S   S97       1.0  0.03050  0.06950  0.27939  1.0000 -0.570556328
S   S98       1.0  0.46950  0.93050  0.77939  1.0000 -0.570556328
S   S99       1.0  0.96950  0.56950  0.22061  1.0000 -0.5996631238
S   S100      1.0  0.53050  0.43050  0.72061  1.0000 -0.5797933194
S   S101      1.0  0.79500  0.21440  0.47541  1.0000 -0.570556328
S   S102      1.0  0.70500  0.78560  0.97541  1.0000 -0.5633993102
S   S103      1.0  0.20500  0.71440  0.02459  1.0000 -0.5797933194
S   S104      1.0  0.29500  0.28560  0.52459  1.0000 -0.570556328
S   S105      1.0  0.94880  0.28980  0.49613  1.0000 -0.6103813463
S   S106      1.0  0.55120  0.71020  0.99613  1.0000 -0.61965864
S   S107      1.0  0.05120  0.78980  0.00387  1.0000 -0.61965864
S   S108      1.0  0.44880  0.21020  0.50387  1.0000 -0.61965864
S   S109      1.0  0.78980  0.05650  0.41134  1.0000 -0.5903187447
S   S110      1.0  0.71020  0.94350  0.91134  1.0000 -0.570556328
S   S111      1.0  0.21020  0.55650  0.08866  1.0000 -0.5633993102
S   S112      1.0  0.28980  0.44350  0.58866  1.0000 -0.5996631238
S   S113      1.0  0.94284  0.13689  0.43366  1.0000 -0.6693358325
S   S114      1.0  0.55716  0.86311  0.93366  1.0000 -0.6624550326
S   S115      1.0  0.05716  0.63689  0.06634  1.0000 -0.6693358325
S   S116      1.0  0.44284  0.36311  0.56634  1.0000 -0.6624550326
S   S117      1.0  0.10270  0.21410  0.45404  1.0000 -0.5903187447
S   S118      1.0  0.39730  0.78590  0.95404  1.0000 -0.6103813463
S   S119      1.0  0.89730  0.71410  0.04596  1.0000 -0.6103813463
S   S120      1.0  0.60270  0.28590  0.54596  1.0000 -0.5996631238
S   S121      1.0  0.93550  0.98700  0.36723  1.0000 -0.6370617701
S   S122      1.0  0.56450  0.01300  0.86723  1.0000 -0.6103813463
S   S123      1.0  0.06450  0.48700  0.13277  1.0000 -0.6103813463
S   S124      1.0  0.43550  0.51300  0.63277  1.0000 -0.6289975299
S   S125      1.0  0.09550  0.06600  0.39586  1.0000 -0.5996631238
S   S126      1.0  0.40450  0.93400  0.89586  1.0000 -0.5996631238
S   S127      1.0  0.90450  0.56600  0.10414  1.0000 -0.5996631238
S   S128      1.0  0.59550  0.43400  0.60414  1.0000 -0.570556328
N   N1        1.0  0.40610  0.84750  0.50630  1.0000 -0.1704665649
N   N2        1.0  0.09390  0.15250  0.00630  1.0000 -0.1626811006
N   N3        1.0  0.59390  0.34750  0.99370  1.0000 -0.1626811006
N   N4        1.0  0.90610  0.65250  0.49370  1.0000 -0.1511107487
N   N5        1.0  0.33170  0.86210  0.54880  1.0000 -0.1911753734
N   N6        1.0  0.16830  0.13790  0.04880  1.0000 -0.1911753734
N   N7        1.0  0.66830  0.36210  0.95120  1.0000 -0.1911753734
N   N8        1.0  0.83170  0.63790  0.45120  1.0000 -0.1797237558
N   N9        1.0  0.09790  0.63830  0.79480  1.0000 -0.1977614863
N   N10       1.0  0.40210  0.36170  0.29480  1.0000 -0.1704665649
N   N11       1.0  0.90210  0.13830  0.70520  1.0000 -0.1797237558
N   N12       1.0  0.59790  0.86170  0.20520  1.0000 -0.1977614863
N   N13       1.0  0.07870  0.55770  0.82970  1.0000 -0.1797237558
N   N14       1.0  0.42130  0.44230  0.32970  1.0000 -0.1435627295
N   N15       1.0  0.92130  0.05770  0.67030  1.0000 -0.1435627295
N   N16       1.0  0.57870  0.94230  0.17030  1.0000 -0.1797237558
N   N17       1.0  0.59390  0.15250  0.49370  1.0000 -0.1626811006
N   N18       1.0  0.90610  0.84750  0.99370  1.0000 -0.1626811006
N   N19       1.0  0.40610  0.65250  0.00630  1.0000 -0.1626811006
N   N20       1.0  0.09390  0.34750  0.50630  1.0000 -0.1704665649
N   N21       1.0  0.66830  0.13790  0.45120  1.0000 -0.1911753734
N   N22       1.0  0.83170  0.86210  0.95120  1.0000 -0.1977614863
N   N23       1.0  0.33170  0.63790  0.04880  1.0000 -0.1911753734
N   N24       1.0  0.16830  0.36210  0.54880  1.0000 -0.1911753734
N   N25       1.0  0.90210  0.36170  0.20520  1.0000 -0.1911753734
N   N26       1.0  0.59790  0.63830  0.70520  1.0000 -0.1911753734
N   N27       1.0  0.09790  0.86170  0.29480  1.0000 -0.1797237558
N   N28       1.0  0.40210  0.13830  0.79480  1.0000 -0.1911753734
N   N29       1.0  0.92130  0.44230  0.17030  1.0000 -0.1626811006
N   N30       1.0  0.57870  0.55770  0.67030  1.0000 -0.1704665649
N   N31       1.0  0.07870  0.94230  0.32970  1.0000 -0.1704665649
N   N32       1.0  0.42130  0.05770  0.82970  1.0000 -0.1704665649
