# DDEC6 charges by PACMAN v1.1 (https://github.com/mtap-research/PACMAN-charge/)
data_2011[Cd][scu]3[ASR]3
_chemical_formula_sum              "Cd8 H64 C120 O32"
_cell_length_a       11.4917
_cell_length_b       18.524
_cell_length_c       25.727
_cell_angle_alpha    90
_cell_angle_beta     96.28
_cell_angle_gamma    90

_symmetry_space_group_name_H-M    "P 1"
_symmetry_Int_Tables_number       1

loop_
  _symmetry_equiv_pos_as_xyz
  'x, y, z'

loop_
  _atom_site_type_symbol
  _atom_site_label
  _atom_site_symmetry_multiplicity
  _atom_site_fract_x
  _atom_site_fract_y
  _atom_site_fract_z
  _atom_site_occupancy
  _atom_site_charge
Cd  Cd1       1.0  0.96170  0.56267  0.94634  1.0000 1.0091421882
Cd  Cd2       1.0  0.03830  0.06267  0.55366  1.0000 1.0091421882
Cd  Cd3       1.0  0.03830  0.43733  0.05366  1.0000 1.0091421882
Cd  Cd4       1.0  0.96170  0.93733  0.44634  1.0000 1.0091421882
Cd  Cd5       1.0  0.97583  0.24958  0.05828  1.0000 1.1195836644
Cd  Cd6       1.0  0.02417  0.74958  0.44172  1.0000 1.1195836644
Cd  Cd7       1.0  0.02417  0.75042  0.94172  1.0000 1.1195836644
Cd  Cd8       1.0  0.97583  0.25042  0.55828  1.0000 1.1195836644
H   H1        1.0  0.46040  0.14780  0.75950  1.0000 0.1197044493
H   H2        1.0  0.53960  0.64780  0.74050  1.0000 0.1197044493
H   H3        1.0  0.53960  0.85220  0.24050  1.0000 0.1197044493
H   H4        1.0  0.46040  0.35220  0.25950  1.0000 0.1197044493
H   H5        1.0  0.34880  0.09180  0.69080  1.0000 0.1197044493
H   H6        1.0  0.65120  0.59180  0.80920  1.0000 0.1197044493
H   H7        1.0  0.65120  0.90820  0.30920  1.0000 0.1197044493
H   H8        1.0  0.34880  0.40820  0.19080  1.0000 0.1197044493
H   H9        1.0  0.11070  0.25090  0.68790  1.0000 0.1285587679
H   H10       1.0  0.88930  0.75090  0.81210  1.0000 0.1285587679
H   H11       1.0  0.88930  0.74910  0.31210  1.0000 0.1285587679
H   H12       1.0  0.11070  0.24910  0.18790  1.0000 0.1285587679
H   H13       1.0  0.21850  0.30450  0.75910  1.0000 0.1197044493
H   H14       1.0  0.78150  0.80450  0.74090  1.0000 0.1197044493
H   H15       1.0  0.78150  0.69550  0.24090  1.0000 0.1197044493
H   H16       1.0  0.21850  0.19550  0.25910  1.0000 0.1197044493
H   H17       1.0  0.47260  0.34590  0.71440  1.0000 0.1140548468
H   H18       1.0  0.52740  0.84590  0.78560  1.0000 0.1140548468
H   H19       1.0  0.52740  0.65410  0.28560  1.0000 0.1140548468
H   H20       1.0  0.47260  0.15410  0.21440  1.0000 0.1140548468
H   H21       1.0  0.57020  0.34750  0.63950  1.0000 0.1197044493
H   H22       1.0  0.42980  0.84750  0.86050  1.0000 0.1197044493
H   H23       1.0  0.42980  0.65250  0.36050  1.0000 0.1197044493
H   H24       1.0  0.57020  0.15250  0.13950  1.0000 0.1197044493
H   H25       1.0  0.83160  0.22900  0.71280  1.0000 0.1197044493
H   H26       1.0  0.16840  0.72900  0.78720  1.0000 0.1197044493
H   H27       1.0  0.16840  0.77100  0.28720  1.0000 0.1197044493
H   H28       1.0  0.83160  0.27100  0.21280  1.0000 0.1197044493
H   H29       1.0  0.73690  0.22880  0.78810  1.0000 0.1197044493
H   H30       1.0  0.26310  0.72880  0.71190  1.0000 0.1197044493
H   H31       1.0  0.26310  0.77120  0.21190  1.0000 0.1197044493
H   H32       1.0  0.73690  0.27120  0.28810  1.0000 0.1197044493
H   H33       1.0  0.66120  0.40780  0.82060  1.0000 0.1197044493
H   H34       1.0  0.33880  0.90780  0.67940  1.0000 0.1197044493
H   H35       1.0  0.33880  0.59220  0.17940  1.0000 0.1197044493
H   H36       1.0  0.66120  0.09220  0.32060  1.0000 0.1197044493
H   H37       1.0  0.78410  0.45120  0.89150  1.0000 0.1197044493
H   H38       1.0  0.21590  0.95120  0.60850  1.0000 0.1197044493
H   H39       1.0  0.21590  0.54880  0.10850  1.0000 0.1197044493
H   H40       1.0  0.78410  0.04880  0.39150  1.0000 0.1197044493
H   H41       1.0  0.71820  0.27260  0.97430  1.0000 0.1285587679
H   H42       1.0  0.28180  0.77260  0.52570  1.0000 0.1285587679
H   H43       1.0  0.28180  0.72740  0.02570  1.0000 0.1285587679
H   H44       1.0  0.71820  0.22740  0.47430  1.0000 0.1285587679
H   H45       1.0  0.58860  0.23170  0.90400  1.0000 0.1197044493
H   H46       1.0  0.41140  0.73170  0.59600  1.0000 0.1197044493
H   H47       1.0  0.41140  0.76830  0.09600  1.0000 0.1197044493
H   H48       1.0  0.58860  0.26830  0.40400  1.0000 0.1197044493
H   H49       1.0  0.29830  0.17900  0.86210  1.0000 0.1197044493
H   H50       1.0  0.70170  0.67900  0.63790  1.0000 0.1197044493
H   H51       1.0  0.70170  0.82100  0.13790  1.0000 0.1197044493
H   H52       1.0  0.29830  0.32100  0.36210  1.0000 0.1197044493
H   H53       1.0  0.19170  0.20000  0.93260  1.0000 0.1197044493
H   H54       1.0  0.80830  0.70000  0.56740  1.0000 0.1197044493
H   H55       1.0  0.80830  0.80000  0.06740  1.0000 0.1197044493
H   H56       1.0  0.19170  0.30000  0.43260  1.0000 0.1197044493
H   H57       1.0  0.29060  0.40950  0.93460  1.0000 0.1197044493
H   H58       1.0  0.70940  0.90950  0.56540  1.0000 0.1197044493
H   H59       1.0  0.70940  0.59050  0.06540  1.0000 0.1197044493
H   H60       1.0  0.29060  0.09050  0.43460  1.0000 0.1197044493
H   H61       1.0  0.40070  0.38770  0.86550  1.0000 0.1140548468
H   H62       1.0  0.59930  0.88770  0.63450  1.0000 0.1197044493
H   H63       1.0  0.59930  0.61230  0.13450  1.0000 0.1140548468
H   H64       1.0  0.40070  0.11230  0.36550  1.0000 0.1197044493
C   C1        1.0  0.53660  0.28870  0.80813  1.0000 -0.0313895867
C   C2        1.0  0.46340  0.78870  0.69187  1.0000 -0.0313895867
C   C3        1.0  0.46340  0.71130  0.19187  1.0000 -0.0313895867
C   C4        1.0  0.53660  0.21130  0.30813  1.0000 -0.0313895867
C   C5        1.0  0.42450  0.26870  0.81008  1.0000 -0.0313895867
C   C6        1.0  0.57550  0.76870  0.68992  1.0000 -0.0313895867
C   C7        1.0  0.57550  0.73130  0.18992  1.0000 -0.0313895867
C   C8        1.0  0.42450  0.23130  0.31008  1.0000 -0.0313895867
C   C9        1.0  0.35320  0.23320  0.76528  1.0000 0.077890627
C   C10       1.0  0.64680  0.73320  0.73472  1.0000 0.077890627
C   C11       1.0  0.64680  0.76680  0.23472  1.0000 0.077890627
C   C12       1.0  0.35320  0.26680  0.26528  1.0000 0.077890627
C   C13       1.0  0.38900  0.16930  0.74500  1.0000 -0.1597025444
C   C14       1.0  0.61100  0.66930  0.75500  1.0000 -0.1597025444
C   C15       1.0  0.61100  0.83070  0.25500  1.0000 -0.1597025444
C   C16       1.0  0.38900  0.33070  0.24500  1.0000 -0.1597025444
C   C17       1.0  0.32270  0.13610  0.70410  1.0000 -0.0903594838
C   C18       1.0  0.67730  0.63610  0.79590  1.0000 -0.0903594838
C   C19       1.0  0.67730  0.86390  0.29590  1.0000 -0.0903594838
C   C20       1.0  0.32270  0.36390  0.20410  1.0000 -0.0903594838
C   C21       1.0  0.21920  0.16610  0.68228  1.0000 -0.0407222223
C   C22       1.0  0.78080  0.66610  0.81772  1.0000 -0.0407222223
C   C23       1.0  0.78080  0.83390  0.31772  1.0000 -0.0407222223
C   C24       1.0  0.21920  0.33390  0.18228  1.0000 -0.0407222223
C   C25       1.0  0.18180  0.22930  0.70266  1.0000 -0.0989887455
C   C26       1.0  0.81820  0.72930  0.79734  1.0000 -0.0989887455
C   C27       1.0  0.81820  0.77070  0.29734  1.0000 -0.0989887455
C   C28       1.0  0.18180  0.27070  0.20266  1.0000 -0.0989887455
C   C29       1.0  0.24700  0.26180  0.74440  1.0000 -0.1520197784
C   C30       1.0  0.75300  0.76180  0.75560  1.0000 -0.1520197784
C   C31       1.0  0.75300  0.73820  0.25560  1.0000 -0.1520197784
C   C32       1.0  0.24700  0.23820  0.24440  1.0000 -0.1520197784
C   C33       1.0  0.59490  0.28680  0.75908  1.0000 0.077890627
C   C34       1.0  0.40510  0.78680  0.74092  1.0000 0.077890627
C   C35       1.0  0.40510  0.71320  0.24092  1.0000 0.077890627
C   C36       1.0  0.59490  0.21320  0.25908  1.0000 0.077890627
C   C37       1.0  0.54590  0.32220  0.71454  1.0000 -0.1675312613
C   C38       1.0  0.45410  0.82220  0.78546  1.0000 -0.1675312613
C   C39       1.0  0.45410  0.67780  0.28546  1.0000 -0.1675312613
C   C40       1.0  0.54590  0.17780  0.21454  1.0000 -0.1675312613
C   C41       1.0  0.60460  0.32310  0.66990  1.0000 -0.0903594838
C   C42       1.0  0.39540  0.82310  0.83010  1.0000 -0.0903594838
C   C43       1.0  0.39540  0.67690  0.33010  1.0000 -0.0903594838
C   C44       1.0  0.60460  0.17690  0.16990  1.0000 -0.0903594838
C   C45       1.0  0.71140  0.28950  0.66874  1.0000 -0.0313895867
C   C46       1.0  0.28860  0.78950  0.83126  1.0000 -0.0313895867
C   C47       1.0  0.28860  0.71050  0.33126  1.0000 -0.0313895867
C   C48       1.0  0.71140  0.21050  0.16874  1.0000 -0.0313895867
C   C49       1.0  0.75910  0.25350  0.71302  1.0000 -0.0903594838
C   C50       1.0  0.24090  0.75350  0.78698  1.0000 -0.0903594838
C   C51       1.0  0.24090  0.74650  0.28698  1.0000 -0.0903594838
C   C52       1.0  0.75910  0.24650  0.21302  1.0000 -0.0903594838
C   C53       1.0  0.70190  0.25290  0.75773  1.0000 -0.1597025444
C   C54       1.0  0.29810  0.75290  0.74227  1.0000 -0.1597025444
C   C55       1.0  0.29810  0.74710  0.24227  1.0000 -0.1597025444
C   C56       1.0  0.70190  0.24710  0.25773  1.0000 -0.1597025444
C   C57       1.0  0.61300  0.31550  0.85474  1.0000 0.077890627
C   C58       1.0  0.38700  0.81550  0.64526  1.0000 0.077890627
C   C59       1.0  0.38700  0.68450  0.14526  1.0000 0.077890627
C   C60       1.0  0.61300  0.18450  0.35474  1.0000 0.077890627
C   C61       1.0  0.67180  0.38030  0.85200  1.0000 -0.1520197784
C   C62       1.0  0.32820  0.88030  0.64800  1.0000 -0.1520197784
C   C63       1.0  0.32820  0.61970  0.14800  1.0000 -0.1520197784
C   C64       1.0  0.67180  0.11970  0.35200  1.0000 -0.1520197784
C   C65       1.0  0.74590  0.40610  0.89403  1.0000 -0.0903594838
C   C66       1.0  0.25410  0.90610  0.60597  1.0000 -0.0903594838
C   C67       1.0  0.25410  0.59390  0.10597  1.0000 -0.0903594838
C   C68       1.0  0.74590  0.09390  0.39403  1.0000 -0.0903594838
C   C69       1.0  0.76420  0.36600  0.93980  1.0000 -0.0407222223
C   C70       1.0  0.23580  0.86600  0.56020  1.0000 -0.0407222223
C   C71       1.0  0.23580  0.63400  0.06020  1.0000 -0.0407222223
C   C72       1.0  0.76420  0.13400  0.43980  1.0000 -0.0407222223
C   C73       1.0  0.70590  0.30050  0.94318  1.0000 -0.0903594838
C   C74       1.0  0.29410  0.80050  0.55682  1.0000 -0.0903594838
C   C75       1.0  0.29410  0.69950  0.05682  1.0000 -0.0903594838
C   C76       1.0  0.70590  0.19950  0.44318  1.0000 -0.0903594838
C   C77       1.0  0.62960  0.27580  0.90114  1.0000 -0.1597025444
C   C78       1.0  0.37040  0.77580  0.59886  1.0000 -0.1597025444
C   C79       1.0  0.37040  0.72420  0.09886  1.0000 -0.1597025444
C   C80       1.0  0.62960  0.22420  0.40114  1.0000 -0.1597025444
C   C81       1.0  0.36040  0.28130  0.85652  1.0000 0.077890627
C   C82       1.0  0.63960  0.78130  0.64348  1.0000 0.077890627
C   C83       1.0  0.63960  0.71870  0.14348  1.0000 0.077890627
C   C84       1.0  0.36040  0.21870  0.35652  1.0000 0.077890627
C   C85       1.0  0.29730  0.22600  0.87692  1.0000 -0.1597025444
C   C86       1.0  0.70270  0.72600  0.62308  1.0000 -0.1597025444
C   C87       1.0  0.70270  0.77400  0.12308  1.0000 -0.1597025444
C   C88       1.0  0.29730  0.27400  0.37692  1.0000 -0.1597025444
C   C89       1.0  0.23290  0.23860  0.91859  1.0000 -0.0903594838
C   C90       1.0  0.76710  0.73860  0.58141  1.0000 -0.0903594838
C   C91       1.0  0.76710  0.76140  0.08141  1.0000 -0.0903594838
C   C92       1.0  0.23290  0.26140  0.41859  1.0000 -0.0903594838
C   C93       1.0  0.22850  0.30650  0.93974  1.0000 -0.0407222223
C   C94       1.0  0.77150  0.80650  0.56026  1.0000 -0.0407222223
C   C95       1.0  0.77150  0.69350  0.06026  1.0000 -0.0407222223
C   C96       1.0  0.22850  0.19350  0.43974  1.0000 -0.0407222223
C   C97       1.0  0.29210  0.36250  0.91984  1.0000 -0.0903594838
C   C98       1.0  0.70790  0.86250  0.58016  1.0000 -0.0903594838
C   C99       1.0  0.70790  0.63750  0.08016  1.0000 -0.0903594838
C   C100      1.0  0.29210  0.13750  0.41984  1.0000 -0.0903594838
C   C101      1.0  0.35730  0.34950  0.87875  1.0000 -0.1597025444
C   C102      1.0  0.64270  0.84950  0.62125  1.0000 -0.1597025444
C   C103      1.0  0.64270  0.65050  0.12125  1.0000 -0.1597025444
C   C104      1.0  0.35730  0.15050  0.37875  1.0000 -0.1597025444
C   C105      1.0  0.84930  0.39220  0.98366  1.0000 0.5992430727
C   C106      1.0  0.15070  0.89220  0.51634  1.0000 0.5992430727
C   C107      1.0  0.15070  0.60780  0.01634  1.0000 0.5992430727
C   C108      1.0  0.84930  0.10780  0.48366  1.0000 0.5992430727
C   C109      1.0  0.77470  0.29130  0.62040  1.0000 0.5328674595
C   C110      1.0  0.22530  0.79130  0.87960  1.0000 0.5328674595
C   C111      1.0  0.22530  0.70870  0.37960  1.0000 0.5328674595
C   C112      1.0  0.77470  0.20870  0.12040  1.0000 0.5328674595
C   C113      1.0  0.15170  0.13030  0.63677  1.0000 0.5739331524
C   C114      1.0  0.84830  0.63030  0.86323  1.0000 0.5739331524
C   C115      1.0  0.84830  0.86970  0.36323  1.0000 0.5739331524
C   C116      1.0  0.15170  0.36970  0.13677  1.0000 0.5739331524
C   C117      1.0  0.15270  0.32160  0.98242  1.0000 0.5886917393
C   C118      1.0  0.84730  0.82160  0.51758  1.0000 0.5886917393
C   C119      1.0  0.84730  0.67840  0.01758  1.0000 0.5886917393
C   C120      1.0  0.15270  0.17840  0.48242  1.0000 0.5886917393
O   O1        1.0  0.89530  0.45371  0.98041  1.0000 -0.5623434504
O   O2        1.0  0.10470  0.95371  0.51959  1.0000 -0.5623434504
O   O3        1.0  0.10470  0.54629  0.01959  1.0000 -0.5623434504
O   O4        1.0  0.89530  0.04629  0.48041  1.0000 -0.5623434504
O   O5        1.0  0.87620  0.35246  0.02319  1.0000 -0.5933991541
O   O6        1.0  0.12380  0.85246  0.47681  1.0000 -0.5933991541
O   O7        1.0  0.12380  0.64754  0.97681  1.0000 -0.5933991541
O   O8        1.0  0.87620  0.14754  0.52319  1.0000 -0.5933991541
O   O9        1.0  0.13340  0.38772  0.99120  1.0000 -0.5537724813
O   O10       1.0  0.86660  0.88772  0.50880  1.0000 -0.5537724813
O   O11       1.0  0.86660  0.61228  0.00880  1.0000 -0.5537724813
O   O12       1.0  0.13340  0.11228  0.49120  1.0000 -0.5537724813
O   O13       1.0  0.11400  0.26950  0.00529  1.0000 -0.595738398
O   O14       1.0  0.88600  0.76950  0.49471  1.0000 -0.595738398
O   O15       1.0  0.88600  0.73050  0.99471  1.0000 -0.595738398
O   O16       1.0  0.11400  0.23050  0.50529  1.0000 -0.595738398
O   O17       1.0  0.72420  0.31310  0.57950  1.0000 -0.5027226974
O   O18       1.0  0.27580  0.81310  0.92050  1.0000 -0.5027226974
O   O19       1.0  0.27580  0.68690  0.42050  1.0000 -0.5027226974
O   O20       1.0  0.72420  0.18690  0.07950  1.0000 -0.5027226974
O   O21       1.0  0.87350  0.26730  0.62418  1.0000 -0.5276979749
O   O22       1.0  0.12650  0.76730  0.87582  1.0000 -0.5276979749
O   O23       1.0  0.12650  0.73270  0.37582  1.0000 -0.5276979749
O   O24       1.0  0.87350  0.23270  0.12418  1.0000 -0.5276979749
O   O25       1.0  0.06110  0.16018  0.61440  1.0000 -0.5782329757
O   O26       1.0  0.93890  0.66018  0.88560  1.0000 -0.5782329757
O   O27       1.0  0.93890  0.83982  0.38560  1.0000 -0.5782329757
O   O28       1.0  0.06110  0.33982  0.11440  1.0000 -0.5782329757
O   O29       1.0  0.18590  0.07078  0.62143  1.0000 -0.5276979749
O   O30       1.0  0.81410  0.57078  0.87857  1.0000 -0.5276979749
O   O31       1.0  0.81410  0.92922  0.37857  1.0000 -0.5276979749
O   O32       1.0  0.18590  0.42922  0.12143  1.0000 -0.5276979749
