# DDEC6 charges by PACMAN v1.1 (https://github.com/mtap-research/PACMAN-charge/)
data_2011[Tb][mog]3[ASR]1
_chemical_formula_sum              "Tb2 H4 C14 N4 O12"
_cell_length_a       6.078
_cell_length_b       9.95
_cell_length_c       13.337
_cell_angle_alpha    68.823
_cell_angle_beta     81.142
_cell_angle_gamma    76.813

_symmetry_space_group_name_H-M    "P 1"
_symmetry_Int_Tables_number       1

loop_
  _symmetry_equiv_pos_as_xyz
  'x, y, z'

loop_
  _atom_site_type_symbol
  _atom_site_label
  _atom_site_symmetry_multiplicity
  _atom_site_fract_x
  _atom_site_fract_y
  _atom_site_fract_z
  _atom_site_occupancy
  _atom_site_charge
Tb  Tb1       1.0  0.16637  0.38607  0.80454  1.0000 1.9035296708
Tb  Tb2       1.0  0.83363  0.61393  0.19546  1.0000 1.9035296708
H   H1        1.0  0.67490  0.95370  0.97210  1.0000 0.1320951253
H   H2        1.0  0.32510  0.04630  0.02790  1.0000 0.1320951253
H   H3        1.0  0.29130  0.67490  0.37060  1.0000 0.1388923123
H   H4        1.0  0.70870  0.32510  0.62940  1.0000 0.1388923123
C   C1        1.0  0.71100  0.23510  0.85920  1.0000 0.5989600986
C   C2        1.0  0.28900  0.76490  0.14080  1.0000 0.5989600986
C   C3        1.0  0.86520  0.10720  0.93030  1.0000 0.037305855
C   C4        1.0  0.13480  0.89280  0.06970  1.0000 0.037305855
C   C5        1.0  0.81100  0.97040  0.98500  1.0000 0.0813553154
C   C6        1.0  0.18900  0.02960  0.01500  1.0000 0.0813553154
C   C7        1.0  0.05000  0.61600  0.56050  1.0000 0.5685540407
C   C8        1.0  0.95000  0.38400  0.43950  1.0000 0.5685540407
C   C9        1.0  0.28700  0.55740  0.52650  1.0000 0.0604805525
C   C10       1.0  0.71300  0.44260  0.47350  1.0000 0.0604805525
C   C11       1.0  0.37900  0.60320  0.42300  1.0000 0.0719879389
C   C12       1.0  0.62100  0.39680  0.57700  1.0000 0.0719879389
C   C13       1.0  0.91100  0.55950  0.96670  1.0000 0.5082081824
C   C14       1.0  0.08900  0.44050  0.03330  1.0000 0.5082081824
N   N1        1.0  0.06220  0.13760  0.94590  1.0000 -0.2885696918
N   N2        1.0  0.93780  0.86240  0.05410  1.0000 -0.2885696918
N   N3        1.0  0.40460  0.45190  0.60680  1.0000 -0.3104418993
N   N4        1.0  0.59540  0.54810  0.39320  1.0000 -0.3104418993
O   O1        1.0  0.78480  0.35250  0.81650  1.0000 -0.6042024821
O   O2        1.0  0.21520  0.64750  0.18350  1.0000 -0.6042024821
O   O3        1.0  0.52030  0.21790  0.84730  1.0000 -0.6333800286
O   O4        1.0  0.47970  0.78210  0.15270  1.0000 -0.6333800286
O   O5        1.0  0.98440  0.56790  0.65900  1.0000 -0.6127683848
O   O6        1.0  0.01560  0.43210  0.34100  1.0000 -0.6127683848
O   O7        1.0  0.92980  0.71180  0.48950  1.0000 -0.5026600689
O   O8        1.0  0.07020  0.28820  0.51050  1.0000 -0.5026600689
O   O9        1.0  0.91720  0.56980  0.86990  1.0000 -0.5556046695
O   O10       1.0  0.08280  0.43020  0.13010  1.0000 -0.5556046695
O   O11       1.0  0.77630  0.63800  0.01270  1.0000 -0.593741867
O   O12       1.0  0.22370  0.36200  0.98730  1.0000 -0.593741867
