# DDEC6 charges by PACMAN v1.1 (https://github.com/mtap-research/PACMAN-charge/)
data_2011[Zn][srs]3[ASR]8
_chemical_formula_sum              "Zn24 H192 C288 I48 N96"
_cell_length_a       13.8926
_cell_length_b       28.147
_cell_length_c       44.028
_cell_angle_alpha    90
_cell_angle_beta     90
_cell_angle_gamma    90

_symmetry_space_group_name_H-M    "P 1"
_symmetry_Int_Tables_number       1

loop_
  _symmetry_equiv_pos_as_xyz
  'x, y, z'

loop_
  _atom_site_type_symbol
  _atom_site_label
  _atom_site_symmetry_multiplicity
  _atom_site_fract_x
  _atom_site_fract_y
  _atom_site_fract_z
  _atom_site_occupancy
  _atom_site_charge
Zn  Zn1       1.0  0.88888  0.02212  0.08977  1.0000 0.4661885464
Zn  Zn2       1.0  0.11112  0.47788  0.58977  1.0000 0.4661885464
Zn  Zn3       1.0  0.38888  0.97788  0.41023  1.0000 0.4661885464
Zn  Zn4       1.0  0.61112  0.52212  0.91023  1.0000 0.4661885464
Zn  Zn5       1.0  0.86352  0.54637  0.09304  1.0000 0.4540606291
Zn  Zn6       1.0  0.13648  0.95363  0.59304  1.0000 0.4540606291
Zn  Zn7       1.0  0.36352  0.45363  0.40696  1.0000 0.4540606291
Zn  Zn8       1.0  0.63648  0.04637  0.90696  1.0000 0.4540606291
Zn  Zn9       1.0  0.19089  0.76073  0.32454  1.0000 0.4633408562
Zn  Zn10      1.0  0.80911  0.73927  0.82454  1.0000 0.4633408562
Zn  Zn11      1.0  0.69089  0.23927  0.17546  1.0000 0.4633408562
Zn  Zn12      1.0  0.30911  0.26073  0.67546  1.0000 0.4633408562
Zn  Zn13      1.0  0.11112  0.97788  0.91023  1.0000 0.4661885464
Zn  Zn14      1.0  0.88888  0.52212  0.41023  1.0000 0.4661885464
Zn  Zn15      1.0  0.61112  0.02212  0.58977  1.0000 0.4661885464
Zn  Zn16      1.0  0.38888  0.47788  0.08977  1.0000 0.4661885464
Zn  Zn17      1.0  0.13648  0.45363  0.90696  1.0000 0.4540606291
Zn  Zn18      1.0  0.86352  0.04637  0.40696  1.0000 0.4540606291
Zn  Zn19      1.0  0.63648  0.54637  0.59304  1.0000 0.4540606291
Zn  Zn20      1.0  0.36352  0.95363  0.09304  1.0000 0.4540606291
Zn  Zn21      1.0  0.80911  0.23927  0.67546  1.0000 0.4633408562
Zn  Zn22      1.0  0.19089  0.26073  0.17546  1.0000 0.4633408562
Zn  Zn23      1.0  0.30911  0.76073  0.82454  1.0000 0.4633408562
Zn  Zn24      1.0  0.69089  0.73927  0.32454  1.0000 0.4633408562
H   H1        1.0  0.89720  0.91770  0.07350  1.0000 0.1096552838
H   H2        1.0  0.10280  0.58230  0.57350  1.0000 0.1096552838
H   H3        1.0  0.39720  0.08230  0.42650  1.0000 0.1096552838
H   H4        1.0  0.60280  0.41770  0.92650  1.0000 0.1096552838
H   H5        1.0  0.92000  0.84430  0.09710  1.0000 0.1306975344
H   H6        1.0  0.08000  0.65570  0.59710  1.0000 0.1306975344
H   H7        1.0  0.42000  0.15570  0.40290  1.0000 0.1306975344
H   H8        1.0  0.58000  0.34430  0.90290  1.0000 0.1306975344
H   H9        1.0  0.97410  0.91300  0.17550  1.0000 0.1306975344
H   H10       1.0  0.02590  0.58700  0.67550  1.0000 0.1306975344
H   H11       1.0  0.47410  0.08700  0.32450  1.0000 0.1306975344
H   H12       1.0  0.52590  0.41300  0.82450  1.0000 0.1306975344
H   H13       1.0  0.95000  0.98460  0.15090  1.0000 0.1096552838
H   H14       1.0  0.05000  0.51540  0.65090  1.0000 0.1096552838
H   H15       1.0  0.45000  0.01540  0.34910  1.0000 0.1096552838
H   H16       1.0  0.55000  0.48460  0.84910  1.0000 0.1096552838
H   H17       1.0  0.14090  0.83880  0.28050  1.0000 0.1174921245
H   H18       1.0  0.85910  0.66120  0.78050  1.0000 0.1174921245
H   H19       1.0  0.64090  0.16120  0.21950  1.0000 0.1174921245
H   H20       1.0  0.35910  0.33880  0.71950  1.0000 0.1174921245
H   H21       1.0  0.07150  0.84850  0.23360  1.0000 0.1371134154
H   H22       1.0  0.92850  0.65150  0.73360  1.0000 0.1371134154
H   H23       1.0  0.57150  0.15150  0.26640  1.0000 0.1371134154
H   H24       1.0  0.42850  0.34850  0.76640  1.0000 0.1371134154
H   H25       1.0  0.00450  0.70820  0.23330  1.0000 0.1306975344
H   H26       1.0  0.99550  0.79180  0.73330  1.0000 0.1306975344
H   H27       1.0  0.50450  0.29180  0.26670  1.0000 0.1306975344
H   H28       1.0  0.49550  0.20820  0.76670  1.0000 0.1306975344
H   H29       1.0  0.07150  0.70240  0.28120  1.0000 0.1096552838
H   H30       1.0  0.92850  0.79760  0.78120  1.0000 0.1096552838
H   H31       1.0  0.57150  0.29760  0.21880  1.0000 0.1096552838
H   H32       1.0  0.42850  0.20240  0.71880  1.0000 0.1096552838
H   H33       1.0  0.95000  0.58490  0.14860  1.0000 0.0992442944
H   H34       1.0  0.05000  0.91510  0.64860  1.0000 0.0992442944
H   H35       1.0  0.45000  0.41510  0.35140  1.0000 0.0992442944
H   H36       1.0  0.55000  0.08490  0.85140  1.0000 0.0992442944
H   H37       1.0  0.97730  0.65650  0.17340  1.0000 0.1306975344
H   H38       1.0  0.02270  0.84350  0.67340  1.0000 0.1306975344
H   H39       1.0  0.47730  0.34350  0.32660  1.0000 0.1306975344
H   H40       1.0  0.52270  0.15650  0.82660  1.0000 0.1306975344
H   H41       1.0  0.91330  0.72430  0.09430  1.0000 0.1371134154
H   H42       1.0  0.08670  0.77570  0.59430  1.0000 0.1371134154
H   H43       1.0  0.41330  0.27570  0.40570  1.0000 0.1371134154
H   H44       1.0  0.58670  0.22430  0.90570  1.0000 0.1371134154
H   H45       1.0  0.88470  0.65030  0.07250  1.0000 0.0992442944
H   H46       1.0  0.11530  0.84970  0.57250  1.0000 0.0992442944
H   H47       1.0  0.38470  0.34970  0.42750  1.0000 0.0992442944
H   H48       1.0  0.61530  0.15030  0.92750  1.0000 0.0992442944
H   H49       1.0  0.70090  0.07250  0.97080  1.0000 0.1096552838
H   H50       1.0  0.29910  0.42750  0.47080  1.0000 0.1096552838
H   H51       1.0  0.20090  0.92750  0.52920  1.0000 0.1096552838
H   H52       1.0  0.79910  0.57250  0.02920  1.0000 0.1096552838
H   H53       1.0  0.63130  0.08920  0.01700  1.0000 0.1371134154
H   H54       1.0  0.36870  0.41080  0.51700  1.0000 0.1371134154
H   H55       1.0  0.13130  0.91080  0.48300  1.0000 0.1371134154
H   H56       1.0  0.86870  0.58920  0.98300  1.0000 0.1371134154
H   H57       1.0  0.37550  0.04440  0.98360  1.0000 0.1306975344
H   H58       1.0  0.62450  0.45560  0.48360  1.0000 0.1306975344
H   H59       1.0  0.87550  0.95560  0.51640  1.0000 0.1306975344
H   H60       1.0  0.12450  0.54440  0.01640  1.0000 0.1306975344
H   H61       1.0  0.45260  0.02490  0.93930  1.0000 0.1096552838
H   H62       1.0  0.54740  0.47510  0.43930  1.0000 0.1096552838
H   H63       1.0  0.95260  0.97510  0.56070  1.0000 0.1096552838
H   H64       1.0  0.04740  0.52490  0.06070  1.0000 0.1096552838
H   H65       1.0  0.02500  0.02700  0.03600  1.0000 0.1096552838
H   H66       1.0  0.97500  0.47300  0.53600  1.0000 0.1096552838
H   H67       1.0  0.52500  0.97300  0.46400  1.0000 0.1096552838
H   H68       1.0  0.47500  0.52700  0.96400  1.0000 0.1096552838
H   H69       1.0  0.18250  0.05050  0.02530  1.0000 0.1306975344
H   H70       1.0  0.81750  0.44950  0.52530  1.0000 0.1306975344
H   H71       1.0  0.68250  0.94950  0.47470  1.0000 0.1306975344
H   H72       1.0  0.31750  0.55050  0.97470  1.0000 0.1306975344
H   H73       1.0  0.20080  0.10490  0.11080  1.0000 0.1306975344
H   H74       1.0  0.79920  0.39510  0.61080  1.0000 0.1306975344
H   H75       1.0  0.70080  0.89510  0.38920  1.0000 0.1306975344
H   H76       1.0  0.29920  0.60490  0.88920  1.0000 0.1306975344
H   H77       1.0  0.04730  0.07570  0.12010  1.0000 0.1096552838
H   H78       1.0  0.95270  0.42430  0.62010  1.0000 0.1096552838
H   H79       1.0  0.54730  0.92430  0.37990  1.0000 0.1096552838
H   H80       1.0  0.45270  0.57570  0.87990  1.0000 0.1096552838
H   H81       1.0  0.48310  0.21830  0.16160  1.0000 0.1096552838
H   H82       1.0  0.51690  0.28170  0.66160  1.0000 0.1096552838
H   H83       1.0  0.98310  0.78170  0.33840  1.0000 0.1096552838
H   H84       1.0  0.01690  0.71830  0.83840  1.0000 0.1096552838
H   H85       1.0  0.39120  0.17700  0.12580  1.0000 0.1306975344
H   H86       1.0  0.60880  0.32300  0.62580  1.0000 0.1306975344
H   H87       1.0  0.89120  0.82300  0.37420  1.0000 0.1306975344
H   H88       1.0  0.10880  0.67700  0.87420  1.0000 0.1306975344
H   H89       1.0  0.63910  0.13580  0.08560  1.0000 0.1306975344
H   H90       1.0  0.36090  0.36420  0.58560  1.0000 0.1306975344
H   H91       1.0  0.13910  0.86420  0.41440  1.0000 0.1306975344
H   H92       1.0  0.86090  0.63580  0.91440  1.0000 0.1306975344
H   H93       1.0  0.72180  0.17490  0.12320  1.0000 0.1096552838
H   H94       1.0  0.27820  0.32510  0.62320  1.0000 0.1096552838
H   H95       1.0  0.22180  0.82510  0.37680  1.0000 0.1096552838
H   H96       1.0  0.77820  0.67490  0.87680  1.0000 0.1096552838
H   H97       1.0  0.10280  0.08230  0.92650  1.0000 0.1096552838
H   H98       1.0  0.89720  0.41770  0.42650  1.0000 0.1096552838
H   H99       1.0  0.60280  0.91770  0.57350  1.0000 0.1096552838
H   H100      1.0  0.39720  0.58230  0.07350  1.0000 0.1096552838
H   H101      1.0  0.08000  0.15570  0.90290  1.0000 0.1306975344
H   H102      1.0  0.92000  0.34430  0.40290  1.0000 0.1306975344
H   H103      1.0  0.58000  0.84430  0.59710  1.0000 0.1306975344
H   H104      1.0  0.42000  0.65570  0.09710  1.0000 0.1306975344
H   H105      1.0  0.02590  0.08700  0.82450  1.0000 0.1306975344
H   H106      1.0  0.97410  0.41300  0.32450  1.0000 0.1306975344
H   H107      1.0  0.52590  0.91300  0.67550  1.0000 0.1306975344
H   H108      1.0  0.47410  0.58700  0.17550  1.0000 0.1306975344
H   H109      1.0  0.05000  0.01540  0.84910  1.0000 0.1096552838
H   H110      1.0  0.95000  0.48460  0.34910  1.0000 0.1096552838
H   H111      1.0  0.55000  0.98460  0.65090  1.0000 0.1096552838
H   H112      1.0  0.45000  0.51540  0.15090  1.0000 0.1096552838
H   H113      1.0  0.85910  0.16120  0.71950  1.0000 0.1174921245
H   H114      1.0  0.14090  0.33880  0.21950  1.0000 0.1174921245
H   H115      1.0  0.35910  0.83880  0.78050  1.0000 0.1174921245
H   H116      1.0  0.64090  0.66120  0.28050  1.0000 0.1174921245
H   H117      1.0  0.92850  0.15150  0.76640  1.0000 0.1371134154
H   H118      1.0  0.07150  0.34850  0.26640  1.0000 0.1371134154
H   H119      1.0  0.42850  0.84850  0.73360  1.0000 0.1371134154
H   H120      1.0  0.57150  0.65150  0.23360  1.0000 0.1371134154
H   H121      1.0  0.99550  0.29180  0.76670  1.0000 0.1306975344
H   H122      1.0  0.00450  0.20820  0.26670  1.0000 0.1306975344
H   H123      1.0  0.49550  0.70820  0.73330  1.0000 0.1306975344
H   H124      1.0  0.50450  0.79180  0.23330  1.0000 0.1306975344
H   H125      1.0  0.92850  0.29760  0.71880  1.0000 0.1096552838
H   H126      1.0  0.07150  0.20240  0.21880  1.0000 0.1096552838
H   H127      1.0  0.42850  0.70240  0.78120  1.0000 0.1096552838
H   H128      1.0  0.57150  0.79760  0.28120  1.0000 0.1096552838
H   H129      1.0  0.05000  0.41510  0.85140  1.0000 0.0992442944
H   H130      1.0  0.95000  0.08490  0.35140  1.0000 0.0992442944
H   H131      1.0  0.55000  0.58490  0.64860  1.0000 0.0992442944
H   H132      1.0  0.45000  0.91510  0.14860  1.0000 0.0992442944
H   H133      1.0  0.02270  0.34350  0.82660  1.0000 0.1306975344
H   H134      1.0  0.97730  0.15650  0.32660  1.0000 0.1306975344
H   H135      1.0  0.52270  0.65650  0.67340  1.0000 0.1306975344
H   H136      1.0  0.47730  0.84350  0.17340  1.0000 0.1306975344
H   H137      1.0  0.08670  0.27570  0.90570  1.0000 0.1371134154
H   H138      1.0  0.91330  0.22430  0.40570  1.0000 0.1371134154
H   H139      1.0  0.58670  0.72430  0.59430  1.0000 0.1371134154
H   H140      1.0  0.41330  0.77570  0.09430  1.0000 0.1371134154
H   H141      1.0  0.11530  0.34970  0.92750  1.0000 0.0992442944
H   H142      1.0  0.88470  0.15030  0.42750  1.0000 0.0992442944
H   H143      1.0  0.61530  0.65030  0.57250  1.0000 0.0992442944
H   H144      1.0  0.38470  0.84970  0.07250  1.0000 0.0992442944
H   H145      1.0  0.29910  0.92750  0.02920  1.0000 0.1096552838
H   H146      1.0  0.70090  0.57250  0.52920  1.0000 0.1096552838
H   H147      1.0  0.79910  0.07250  0.47080  1.0000 0.1096552838
H   H148      1.0  0.20090  0.42750  0.97080  1.0000 0.1096552838
H   H149      1.0  0.36870  0.91080  0.98300  1.0000 0.1371134154
H   H150      1.0  0.63130  0.58920  0.48300  1.0000 0.1371134154
H   H151      1.0  0.86870  0.08920  0.51700  1.0000 0.1371134154
H   H152      1.0  0.13130  0.41080  0.01700  1.0000 0.1371134154
H   H153      1.0  0.62450  0.95560  0.01640  1.0000 0.1306975344
H   H154      1.0  0.37550  0.54440  0.51640  1.0000 0.1306975344
H   H155      1.0  0.12450  0.04440  0.48360  1.0000 0.1306975344
H   H156      1.0  0.87550  0.45560  0.98360  1.0000 0.1306975344
H   H157      1.0  0.54740  0.97510  0.06070  1.0000 0.1096552838
H   H158      1.0  0.45260  0.52490  0.56070  1.0000 0.1096552838
H   H159      1.0  0.04740  0.02490  0.43930  1.0000 0.1096552838
H   H160      1.0  0.95260  0.47510  0.93930  1.0000 0.1096552838
H   H161      1.0  0.97500  0.97300  0.96400  1.0000 0.1096552838
H   H162      1.0  0.02500  0.52700  0.46400  1.0000 0.1096552838
H   H163      1.0  0.47500  0.02700  0.53600  1.0000 0.1096552838
H   H164      1.0  0.52500  0.47300  0.03600  1.0000 0.1096552838
H   H165      1.0  0.81750  0.94950  0.97470  1.0000 0.1306975344
H   H166      1.0  0.18250  0.55050  0.47470  1.0000 0.1306975344
H   H167      1.0  0.31750  0.05050  0.52530  1.0000 0.1306975344
H   H168      1.0  0.68250  0.44950  0.02530  1.0000 0.1306975344
H   H169      1.0  0.79920  0.89510  0.88920  1.0000 0.1306975344
H   H170      1.0  0.20080  0.60490  0.38920  1.0000 0.1306975344
H   H171      1.0  0.29920  0.10490  0.61080  1.0000 0.1306975344
H   H172      1.0  0.70080  0.39510  0.11080  1.0000 0.1306975344
H   H173      1.0  0.95270  0.92430  0.87990  1.0000 0.1096552838
H   H174      1.0  0.04730  0.57570  0.37990  1.0000 0.1096552838
H   H175      1.0  0.45270  0.07570  0.62010  1.0000 0.1096552838
H   H176      1.0  0.54730  0.42430  0.12010  1.0000 0.1096552838
H   H177      1.0  0.51690  0.78170  0.83840  1.0000 0.1096552838
H   H178      1.0  0.48310  0.71830  0.33840  1.0000 0.1096552838
H   H179      1.0  0.01690  0.21830  0.66160  1.0000 0.1096552838
H   H180      1.0  0.98310  0.28170  0.16160  1.0000 0.1096552838
H   H181      1.0  0.60880  0.82300  0.87420  1.0000 0.1306975344
H   H182      1.0  0.39120  0.67700  0.37420  1.0000 0.1306975344
H   H183      1.0  0.10880  0.17700  0.62580  1.0000 0.1306975344
H   H184      1.0  0.89120  0.32300  0.12580  1.0000 0.1306975344
H   H185      1.0  0.36090  0.86420  0.91440  1.0000 0.1306975344
H   H186      1.0  0.63910  0.63580  0.41440  1.0000 0.1306975344
H   H187      1.0  0.86090  0.13580  0.58560  1.0000 0.1306975344
H   H188      1.0  0.13910  0.36420  0.08560  1.0000 0.1306975344
H   H189      1.0  0.27820  0.82510  0.87680  1.0000 0.1096552838
H   H190      1.0  0.72180  0.67490  0.37680  1.0000 0.1096552838
H   H191      1.0  0.77820  0.17490  0.62320  1.0000 0.1096552838
H   H192      1.0  0.22180  0.32510  0.12320  1.0000 0.1096552838
C   C1        1.0  0.91260  0.91690  0.09449  1.0000 0.0918113515
C   C2        1.0  0.08740  0.58310  0.59449  1.0000 0.0918113515
C   C3        1.0  0.41260  0.08310  0.40551  1.0000 0.0918113515
C   C4        1.0  0.58740  0.41690  0.90551  1.0000 0.0918113515
C   C5        1.0  0.92620  0.87290  0.10843  1.0000 -0.1413881666
C   C6        1.0  0.07380  0.62710  0.60843  1.0000 -0.1413881666
C   C7        1.0  0.42620  0.12710  0.39157  1.0000 -0.1413881666
C   C8        1.0  0.57380  0.37290  0.89157  1.0000 -0.1413881666
C   C9        1.0  0.94890  0.87130  0.13893  1.0000 0.0698099786
C   C10       1.0  0.05110  0.62870  0.63893  1.0000 0.0698099786
C   C11       1.0  0.44890  0.12870  0.36107  1.0000 0.0698099786
C   C12       1.0  0.55110  0.37130  0.86107  1.0000 0.0698099786
C   C13       1.0  0.95800  0.91330  0.15454  1.0000 -0.1502386294
C   C14       1.0  0.04200  0.58670  0.65454  1.0000 -0.1502386294
C   C15       1.0  0.45800  0.08670  0.34546  1.0000 -0.1502386294
C   C16       1.0  0.54200  0.41330  0.84546  1.0000 -0.1502386294
C   C17       1.0  0.94360  0.95590  0.13970  1.0000 0.0918113515
C   C18       1.0  0.05640  0.54410  0.63970  1.0000 0.0918113515
C   C19       1.0  0.44360  0.04410  0.36030  1.0000 0.0918113515
C   C20       1.0  0.55640  0.45590  0.86030  1.0000 0.0918113515
C   C21       1.0  0.11280  0.81210  0.27080  1.0000 0.0698099786
C   C22       1.0  0.88720  0.68790  0.77080  1.0000 0.0698099786
C   C23       1.0  0.61280  0.18790  0.22920  1.0000 0.0698099786
C   C24       1.0  0.38720  0.31210  0.72920  1.0000 0.0698099786
C   C25       1.0  0.07290  0.81790  0.24274  1.0000 -0.1608896181
C   C26       1.0  0.92710  0.68210  0.74274  1.0000 -0.1608896181
C   C27       1.0  0.57290  0.18210  0.25726  1.0000 -0.1608896181
C   C28       1.0  0.42710  0.31790  0.75726  1.0000 -0.1608896181
C   C29       1.0  0.03370  0.77870  0.22727  1.0000 0.0591104516
C   C30       1.0  0.96630  0.72130  0.72727  1.0000 0.0591104516
C   C31       1.0  0.53370  0.22130  0.27273  1.0000 0.0591104516
C   C32       1.0  0.46630  0.27870  0.77273  1.0000 0.0591104516
C   C33       1.0  0.03260  0.73540  0.24248  1.0000 -0.1413881666
C   C34       1.0  0.96740  0.76460  0.74248  1.0000 -0.1413881666
C   C35       1.0  0.53260  0.26460  0.25752  1.0000 -0.1413881666
C   C36       1.0  0.46740  0.23540  0.75752  1.0000 -0.1413881666
C   C37       1.0  0.07290  0.73220  0.27118  1.0000 0.0992442944
C   C38       1.0  0.92710  0.76780  0.77118  1.0000 0.0992442944
C   C39       1.0  0.57290  0.26780  0.22882  1.0000 0.0992442944
C   C40       1.0  0.42710  0.23220  0.72882  1.0000 0.0992442944
C   C41       1.0  0.94070  0.61370  0.13771  1.0000 0.0992442944
C   C42       1.0  0.05930  0.88630  0.63771  1.0000 0.0992442944
C   C43       1.0  0.44070  0.38630  0.36229  1.0000 0.0992442944
C   C44       1.0  0.55930  0.11370  0.86229  1.0000 0.0992442944
C   C45       1.0  0.95780  0.65610  0.15268  1.0000 -0.1608896181
C   C46       1.0  0.04220  0.84390  0.65268  1.0000 -0.1608896181
C   C47       1.0  0.45780  0.34390  0.34732  1.0000 -0.1608896181
C   C48       1.0  0.54220  0.15610  0.84732  1.0000 -0.1608896181
C   C49       1.0  0.94550  0.69820  0.13641  1.0000 0.0698099786
C   C50       1.0  0.05450  0.80180  0.63641  1.0000 0.0698099786
C   C51       1.0  0.44550  0.30180  0.36359  1.0000 0.0698099786
C   C52       1.0  0.55450  0.19820  0.86359  1.0000 0.0698099786
C   C53       1.0  0.91960  0.69620  0.10607  1.0000 -0.1608896181
C   C54       1.0  0.08040  0.80380  0.60607  1.0000 -0.1608896181
C   C55       1.0  0.41960  0.30380  0.39393  1.0000 -0.1608896181
C   C56       1.0  0.58040  0.19620  0.89393  1.0000 -0.1608896181
C   C57       1.0  0.90310  0.65180  0.09330  1.0000 0.076944368
C   C58       1.0  0.09690  0.84820  0.59330  1.0000 0.076944368
C   C59       1.0  0.40310  0.34820  0.40670  1.0000 0.076944368
C   C60       1.0  0.59690  0.15180  0.90670  1.0000 0.076944368
C   C61       1.0  0.96200  0.82400  0.15468  1.0000 0.3771759868
C   C62       1.0  0.03800  0.67600  0.65468  1.0000 0.3771759868
C   C63       1.0  0.46200  0.17600  0.34532  1.0000 0.3771759868
C   C64       1.0  0.53800  0.32400  0.84532  1.0000 0.3771759868
C   C65       1.0  0.95920  0.74500  0.15233  1.0000 0.3771759868
C   C66       1.0  0.04080  0.75500  0.65233  1.0000 0.3771759868
C   C67       1.0  0.45920  0.25500  0.34767  1.0000 0.3771759868
C   C68       1.0  0.54080  0.24500  0.84767  1.0000 0.3771759868
C   C69       1.0  0.99870  0.78170  0.19589  1.0000 0.360827487
C   C70       1.0  0.00130  0.71830  0.69589  1.0000 0.360827487
C   C71       1.0  0.49870  0.21830  0.30411  1.0000 0.360827487
C   C72       1.0  0.50130  0.28170  0.80411  1.0000 0.360827487
C   C73       1.0  0.63410  0.06660  0.97358  1.0000 0.0698099786
C   C74       1.0  0.36590  0.43340  0.47358  1.0000 0.0698099786
C   C75       1.0  0.13410  0.93340  0.52642  1.0000 0.0698099786
C   C76       1.0  0.86590  0.56660  0.02642  1.0000 0.0698099786
C   C77       1.0  0.59260  0.07720  0.00096  1.0000 -0.1413881666
C   C78       1.0  0.40740  0.42280  0.50096  1.0000 -0.1413881666
C   C79       1.0  0.09260  0.92280  0.49904  1.0000 -0.1413881666
C   C80       1.0  0.90740  0.57720  0.99904  1.0000 -0.1413881666
C   C81       1.0  0.49540  0.07050  0.00563  1.0000 0.0536582198
C   C82       1.0  0.50460  0.42950  0.50563  1.0000 0.0536582198
C   C83       1.0  0.99540  0.92950  0.49437  1.0000 0.0536582198
C   C84       1.0  0.00460  0.57050  0.99437  1.0000 0.0536582198
C   C85       1.0  0.44250  0.05030  0.98147  1.0000 -0.1502386294
C   C86       1.0  0.55750  0.44970  0.48147  1.0000 -0.1502386294
C   C87       1.0  0.94250  0.94970  0.51853  1.0000 -0.1502386294
C   C88       1.0  0.05750  0.55030  0.01853  1.0000 -0.1502386294
C   C89       1.0  0.48870  0.03940  0.95514  1.0000 0.0698099786
C   C90       1.0  0.51130  0.46060  0.45514  1.0000 0.0698099786
C   C91       1.0  0.98870  0.96060  0.54486  1.0000 0.0698099786
C   C92       1.0  0.01130  0.53940  0.04486  1.0000 0.0698099786
C   C93       1.0  0.06180  0.04250  0.05120  1.0000 0.076944368
C   C94       1.0  0.93820  0.45750  0.55120  1.0000 0.076944368
C   C95       1.0  0.56180  0.95750  0.44880  1.0000 0.076944368
C   C96       1.0  0.43820  0.54250  0.94880  1.0000 0.076944368
C   C97       1.0  0.15550  0.05650  0.04471  1.0000 -0.1413881666
C   C98       1.0  0.84450  0.44350  0.54471  1.0000 -0.1413881666
C   C99       1.0  0.65550  0.94350  0.45529  1.0000 -0.1413881666
C   C100      1.0  0.34450  0.55650  0.95529  1.0000 -0.1413881666
C   C101      1.0  0.21000  0.07960  0.06713  1.0000 0.0536582198
C   C102      1.0  0.79000  0.42040  0.56713  1.0000 0.0536582198
C   C103      1.0  0.71000  0.92040  0.43287  1.0000 0.0536582198
C   C104      1.0  0.29000  0.57960  0.93287  1.0000 0.0536582198
C   C105      1.0  0.16700  0.08810  0.09543  1.0000 -0.1248943507
C   C106      1.0  0.83300  0.41190  0.59543  1.0000 -0.1248943507
C   C107      1.0  0.66700  0.91190  0.40457  1.0000 -0.1248943507
C   C108      1.0  0.33300  0.58810  0.90457  1.0000 -0.1248943507
C   C109      1.0  0.07450  0.07170  0.10048  1.0000 0.0992442944
C   C110      1.0  0.92550  0.42830  0.60048  1.0000 0.0992442944
C   C111      1.0  0.57450  0.92830  0.39952  1.0000 0.0992442944
C   C112      1.0  0.42550  0.57170  0.89952  1.0000 0.0992442944
C   C113      1.0  0.51440  0.20120  0.14586  1.0000 0.0992442944
C   C114      1.0  0.48560  0.29880  0.64586  1.0000 0.0992442944
C   C115      1.0  0.01440  0.79880  0.35414  1.0000 0.0992442944
C   C116      1.0  0.98560  0.70120  0.85414  1.0000 0.0992442944
C   C117      1.0  0.45940  0.17700  0.12447  1.0000 -0.1289919484
C   C118      1.0  0.54060  0.32300  0.62447  1.0000 -0.1289919484
C   C119      1.0  0.95940  0.82300  0.37553  1.0000 -0.1289919484
C   C120      1.0  0.04060  0.67700  0.87553  1.0000 -0.1289919484
C   C121      1.0  0.50500  0.15290  0.10129  1.0000 0.0698099786
C   C122      1.0  0.49500  0.34710  0.60129  1.0000 0.0698099786
C   C123      1.0  0.00500  0.84710  0.39871  1.0000 0.0698099786
C   C124      1.0  0.99500  0.65290  0.89871  1.0000 0.0698099786
C   C125      1.0  0.60510  0.15240  0.10100  1.0000 -0.1289919484
C   C126      1.0  0.39490  0.34760  0.60100  1.0000 -0.1289919484
C   C127      1.0  0.10510  0.84760  0.39900  1.0000 -0.1289919484
C   C128      1.0  0.89490  0.65240  0.89900  1.0000 -0.1289919484
C   C129      1.0  0.65350  0.17620  0.12310  1.0000 0.0918113515
C   C130      1.0  0.34650  0.32380  0.62310  1.0000 0.0918113515
C   C131      1.0  0.15350  0.82380  0.37690  1.0000 0.0918113515
C   C132      1.0  0.84650  0.67620  0.87690  1.0000 0.0918113515
C   C133      1.0  0.44710  0.08630  0.03381  1.0000 0.3698536158
C   C134      1.0  0.55290  0.41370  0.53381  1.0000 0.3698536158
C   C135      1.0  0.94710  0.91370  0.46619  1.0000 0.3698536158
C   C136      1.0  0.05290  0.58630  0.96619  1.0000 0.3698536158
C   C137      1.0  0.44870  0.12630  0.07762  1.0000 0.3698536158
C   C138      1.0  0.55130  0.37370  0.57762  1.0000 0.3698536158
C   C139      1.0  0.94870  0.87370  0.42238  1.0000 0.3698536158
C   C140      1.0  0.05130  0.62630  0.92238  1.0000 0.3698536158
C   C141      1.0  0.31140  0.09250  0.06194  1.0000 0.3771759868
C   C142      1.0  0.68860  0.40750  0.56194  1.0000 0.3771759868
C   C143      1.0  0.81140  0.90750  0.43806  1.0000 0.3771759868
C   C144      1.0  0.18860  0.59250  0.93806  1.0000 0.3771759868
C   C145      1.0  0.08740  0.08310  0.90551  1.0000 0.0918113515
C   C146      1.0  0.91260  0.41690  0.40551  1.0000 0.0918113515
C   C147      1.0  0.58740  0.91690  0.59449  1.0000 0.0918113515
C   C148      1.0  0.41260  0.58310  0.09449  1.0000 0.0918113515
C   C149      1.0  0.07380  0.12710  0.89157  1.0000 -0.1413881666
C   C150      1.0  0.92620  0.37290  0.39157  1.0000 -0.1413881666
C   C151      1.0  0.57380  0.87290  0.60843  1.0000 -0.1413881666
C   C152      1.0  0.42620  0.62710  0.10843  1.0000 -0.1413881666
C   C153      1.0  0.05110  0.12870  0.86107  1.0000 0.0698099786
C   C154      1.0  0.94890  0.37130  0.36107  1.0000 0.0698099786
C   C155      1.0  0.55110  0.87130  0.63893  1.0000 0.0698099786
C   C156      1.0  0.44890  0.62870  0.13893  1.0000 0.0698099786
C   C157      1.0  0.04200  0.08670  0.84546  1.0000 -0.1502386294
C   C158      1.0  0.95800  0.41330  0.34546  1.0000 -0.1502386294
C   C159      1.0  0.54200  0.91330  0.65454  1.0000 -0.1502386294
C   C160      1.0  0.45800  0.58670  0.15454  1.0000 -0.1502386294
C   C161      1.0  0.05640  0.04410  0.86030  1.0000 0.0918113515
C   C162      1.0  0.94360  0.45590  0.36030  1.0000 0.0918113515
C   C163      1.0  0.55640  0.95590  0.63970  1.0000 0.0918113515
C   C164      1.0  0.44360  0.54410  0.13970  1.0000 0.0918113515
C   C165      1.0  0.88720  0.18790  0.72920  1.0000 0.0698099786
C   C166      1.0  0.11280  0.31210  0.22920  1.0000 0.0698099786
C   C167      1.0  0.38720  0.81210  0.77080  1.0000 0.0698099786
C   C168      1.0  0.61280  0.68790  0.27080  1.0000 0.0698099786
C   C169      1.0  0.92710  0.18210  0.75726  1.0000 -0.1608896181
C   C170      1.0  0.07290  0.31790  0.25726  1.0000 -0.1608896181
C   C171      1.0  0.42710  0.81790  0.74274  1.0000 -0.1608896181
C   C172      1.0  0.57290  0.68210  0.24274  1.0000 -0.1608896181
C   C173      1.0  0.96630  0.22130  0.77273  1.0000 0.0591104516
C   C174      1.0  0.03370  0.27870  0.27273  1.0000 0.0591104516
C   C175      1.0  0.46630  0.77870  0.72727  1.0000 0.0591104516
C   C176      1.0  0.53370  0.72130  0.22727  1.0000 0.0591104516
C   C177      1.0  0.96740  0.26460  0.75752  1.0000 -0.1413881666
C   C178      1.0  0.03260  0.23540  0.25752  1.0000 -0.1413881666
C   C179      1.0  0.46740  0.73540  0.74248  1.0000 -0.1413881666
C   C180      1.0  0.53260  0.76460  0.24248  1.0000 -0.1413881666
C   C181      1.0  0.92710  0.26780  0.72882  1.0000 0.0992442944
C   C182      1.0  0.07290  0.23220  0.22882  1.0000 0.0992442944
C   C183      1.0  0.42710  0.73220  0.77118  1.0000 0.0992442944
C   C184      1.0  0.57290  0.76780  0.27118  1.0000 0.0992442944
C   C185      1.0  0.05930  0.38630  0.86229  1.0000 0.0992442944
C   C186      1.0  0.94070  0.11370  0.36229  1.0000 0.0992442944
C   C187      1.0  0.55930  0.61370  0.63771  1.0000 0.0992442944
C   C188      1.0  0.44070  0.88630  0.13771  1.0000 0.0992442944
C   C189      1.0  0.04220  0.34390  0.84732  1.0000 -0.1608896181
C   C190      1.0  0.95780  0.15610  0.34732  1.0000 -0.1608896181
C   C191      1.0  0.54220  0.65610  0.65268  1.0000 -0.1608896181
C   C192      1.0  0.45780  0.84390  0.15268  1.0000 -0.1608896181
C   C193      1.0  0.05450  0.30180  0.86359  1.0000 0.0698099786
C   C194      1.0  0.94550  0.19820  0.36359  1.0000 0.0698099786
C   C195      1.0  0.55450  0.69820  0.63641  1.0000 0.0698099786
C   C196      1.0  0.44550  0.80180  0.13641  1.0000 0.0698099786
C   C197      1.0  0.08040  0.30380  0.89393  1.0000 -0.1608896181
C   C198      1.0  0.91960  0.19620  0.39393  1.0000 -0.1608896181
C   C199      1.0  0.58040  0.69620  0.60607  1.0000 -0.1608896181
C   C200      1.0  0.41960  0.80380  0.10607  1.0000 -0.1608896181
C   C201      1.0  0.09690  0.34820  0.90670  1.0000 0.076944368
C   C202      1.0  0.90310  0.15180  0.40670  1.0000 0.076944368
C   C203      1.0  0.59690  0.65180  0.59330  1.0000 0.076944368
C   C204      1.0  0.40310  0.84820  0.09330  1.0000 0.076944368
C   C205      1.0  0.03800  0.17600  0.84532  1.0000 0.3771759868
C   C206      1.0  0.96200  0.32400  0.34532  1.0000 0.3771759868
C   C207      1.0  0.53800  0.82400  0.65468  1.0000 0.3771759868
C   C208      1.0  0.46200  0.67600  0.15468  1.0000 0.3771759868
C   C209      1.0  0.04080  0.25500  0.84767  1.0000 0.3771759868
C   C210      1.0  0.95920  0.24500  0.34767  1.0000 0.3771759868
C   C211      1.0  0.54080  0.74500  0.65233  1.0000 0.3771759868
C   C212      1.0  0.45920  0.75500  0.15233  1.0000 0.3771759868
C   C213      1.0  0.00130  0.21830  0.80411  1.0000 0.360827487
C   C214      1.0  0.99870  0.28170  0.30411  1.0000 0.360827487
C   C215      1.0  0.50130  0.78170  0.69589  1.0000 0.360827487
C   C216      1.0  0.49870  0.71830  0.19589  1.0000 0.360827487
C   C217      1.0  0.36590  0.93340  0.02642  1.0000 0.0698099786
C   C218      1.0  0.63410  0.56660  0.52642  1.0000 0.0698099786
C   C219      1.0  0.86590  0.06660  0.47358  1.0000 0.0698099786
C   C220      1.0  0.13410  0.43340  0.97358  1.0000 0.0698099786
C   C221      1.0  0.40740  0.92280  0.99904  1.0000 -0.1413881666
C   C222      1.0  0.59260  0.57720  0.49904  1.0000 -0.1413881666
C   C223      1.0  0.90740  0.07720  0.50096  1.0000 -0.1413881666
C   C224      1.0  0.09260  0.42280  0.00096  1.0000 -0.1413881666
C   C225      1.0  0.50460  0.92950  0.99437  1.0000 0.0536582198
C   C226      1.0  0.49540  0.57050  0.49437  1.0000 0.0536582198
C   C227      1.0  0.00460  0.07050  0.50563  1.0000 0.0536582198
C   C228      1.0  0.99540  0.42950  0.00563  1.0000 0.0536582198
C   C229      1.0  0.55750  0.94970  0.01853  1.0000 -0.1502386294
C   C230      1.0  0.44250  0.55030  0.51853  1.0000 -0.1502386294
C   C231      1.0  0.05750  0.05030  0.48147  1.0000 -0.1502386294
C   C232      1.0  0.94250  0.44970  0.98147  1.0000 -0.1502386294
C   C233      1.0  0.51130  0.96060  0.04486  1.0000 0.0698099786
C   C234      1.0  0.48870  0.53940  0.54486  1.0000 0.0698099786
C   C235      1.0  0.01130  0.03940  0.45514  1.0000 0.0698099786
C   C236      1.0  0.98870  0.46060  0.95514  1.0000 0.0698099786
C   C237      1.0  0.93820  0.95750  0.94880  1.0000 0.076944368
C   C238      1.0  0.06180  0.54250  0.44880  1.0000 0.076944368
C   C239      1.0  0.43820  0.04250  0.55120  1.0000 0.076944368
C   C240      1.0  0.56180  0.45750  0.05120  1.0000 0.076944368
C   C241      1.0  0.84450  0.94350  0.95529  1.0000 -0.1413881666
C   C242      1.0  0.15550  0.55650  0.45529  1.0000 -0.1413881666
C   C243      1.0  0.34450  0.05650  0.54471  1.0000 -0.1413881666
C   C244      1.0  0.65550  0.44350  0.04471  1.0000 -0.1413881666
C   C245      1.0  0.79000  0.92040  0.93287  1.0000 0.0536582198
C   C246      1.0  0.21000  0.57960  0.43287  1.0000 0.0536582198
C   C247      1.0  0.29000  0.07960  0.56713  1.0000 0.0536582198
C   C248      1.0  0.71000  0.42040  0.06713  1.0000 0.0536582198
C   C249      1.0  0.83300  0.91190  0.90457  1.0000 -0.1248943507
C   C250      1.0  0.16700  0.58810  0.40457  1.0000 -0.1248943507
C   C251      1.0  0.33300  0.08810  0.59543  1.0000 -0.1248943507
C   C252      1.0  0.66700  0.41190  0.09543  1.0000 -0.1248943507
C   C253      1.0  0.92550  0.92830  0.89952  1.0000 0.0992442944
C   C254      1.0  0.07450  0.57170  0.39952  1.0000 0.0992442944
C   C255      1.0  0.42550  0.07170  0.60048  1.0000 0.0992442944
C   C256      1.0  0.57450  0.42830  0.10048  1.0000 0.0992442944
C   C257      1.0  0.48560  0.79880  0.85414  1.0000 0.0992442944
C   C258      1.0  0.51440  0.70120  0.35414  1.0000 0.0992442944
C   C259      1.0  0.98560  0.20120  0.64586  1.0000 0.0992442944
C   C260      1.0  0.01440  0.29880  0.14586  1.0000 0.0992442944
C   C261      1.0  0.54060  0.82300  0.87553  1.0000 -0.1289919484
C   C262      1.0  0.45940  0.67700  0.37553  1.0000 -0.1289919484
C   C263      1.0  0.04060  0.17700  0.62447  1.0000 -0.1289919484
C   C264      1.0  0.95940  0.32300  0.12447  1.0000 -0.1289919484
C   C265      1.0  0.49500  0.84710  0.89871  1.0000 0.0698099786
C   C266      1.0  0.50500  0.65290  0.39871  1.0000 0.0698099786
C   C267      1.0  0.99500  0.15290  0.60129  1.0000 0.0698099786
C   C268      1.0  0.00500  0.34710  0.10129  1.0000 0.0698099786
C   C269      1.0  0.39490  0.84760  0.89900  1.0000 -0.1289919484
C   C270      1.0  0.60510  0.65240  0.39900  1.0000 -0.1289919484
C   C271      1.0  0.89490  0.15240  0.60100  1.0000 -0.1289919484
C   C272      1.0  0.10510  0.34760  0.10100  1.0000 -0.1289919484
C   C273      1.0  0.34650  0.82380  0.87690  1.0000 0.0918113515
C   C274      1.0  0.65350  0.67620  0.37690  1.0000 0.0918113515
C   C275      1.0  0.84650  0.17620  0.62310  1.0000 0.0918113515
C   C276      1.0  0.15350  0.32380  0.12310  1.0000 0.0918113515
C   C277      1.0  0.55290  0.91370  0.96619  1.0000 0.3698536158
C   C278      1.0  0.44710  0.58630  0.46619  1.0000 0.3698536158
C   C279      1.0  0.05290  0.08630  0.53381  1.0000 0.3698536158
C   C280      1.0  0.94710  0.41370  0.03381  1.0000 0.3698536158
C   C281      1.0  0.55130  0.87370  0.92238  1.0000 0.3698536158
C   C282      1.0  0.44870  0.62630  0.42238  1.0000 0.3698536158
C   C283      1.0  0.05130  0.12630  0.57762  1.0000 0.3698536158
C   C284      1.0  0.94870  0.37370  0.07762  1.0000 0.3698536158
C   C285      1.0  0.68860  0.90750  0.93806  1.0000 0.3771759868
C   C286      1.0  0.31140  0.59250  0.43806  1.0000 0.3771759868
C   C287      1.0  0.18860  0.09250  0.56194  1.0000 0.3771759868
C   C288      1.0  0.81140  0.40750  0.06194  1.0000 0.3771759868
I   I1        1.0  0.80378  0.00652  0.03897  1.0000 -0.4816198572
I   I2        1.0  0.19622  0.49348  0.53897  1.0000 -0.4816198572
I   I3        1.0  0.30378  0.99348  0.46103  1.0000 -0.4816198572
I   I4        1.0  0.69622  0.50652  0.96103  1.0000 -0.4816198572
I   I5        1.0  0.81224  0.07090  0.13153  1.0000 -0.4317526891
I   I6        1.0  0.18776  0.42910  0.63153  1.0000 -0.4317526891
I   I7        1.0  0.31224  0.92910  0.36847  1.0000 -0.4317526891
I   I8        1.0  0.68776  0.57090  0.86847  1.0000 -0.4317526891
I   I9        1.0  0.68203  0.55663  0.09175  1.0000 -0.4503067061
I   I10       1.0  0.31797  0.94337  0.59175  1.0000 -0.4503067061
I   I11       1.0  0.18203  0.44337  0.40825  1.0000 -0.4503067061
I   I12       1.0  0.81797  0.05663  0.90825  1.0000 -0.4503067061
I   I13       1.0  0.95110  0.48174  0.12287  1.0000 -0.4424043484
I   I14       1.0  0.04890  0.01826  0.62287  1.0000 -0.4424043484
I   I15       1.0  0.45110  0.51826  0.37713  1.0000 -0.4424043484
I   I16       1.0  0.54890  0.98174  0.87713  1.0000 -0.4424043484
I   I17       1.0  0.19159  0.67265  0.33755  1.0000 -0.4503067061
I   I18       1.0  0.80841  0.82735  0.83755  1.0000 -0.4503067061
I   I19       1.0  0.69159  0.32735  0.16245  1.0000 -0.4503067061
I   I20       1.0  0.30841  0.17265  0.66245  1.0000 -0.4503067061
I   I21       1.0  0.35164  0.80338  0.31797  1.0000 -0.4503067061
I   I22       1.0  0.64836  0.69662  0.81797  1.0000 -0.4503067061
I   I23       1.0  0.85164  0.19662  0.18203  1.0000 -0.4503067061
I   I24       1.0  0.14836  0.30338  0.68203  1.0000 -0.4503067061
I   I25       1.0  0.19622  0.99348  0.96103  1.0000 -0.4816198572
I   I26       1.0  0.80378  0.50652  0.46103  1.0000 -0.4816198572
I   I27       1.0  0.69622  0.00652  0.53897  1.0000 -0.4816198572
I   I28       1.0  0.30378  0.49348  0.03897  1.0000 -0.4816198572
I   I29       1.0  0.18776  0.92910  0.86847  1.0000 -0.4317526891
I   I30       1.0  0.81224  0.57090  0.36847  1.0000 -0.4317526891
I   I31       1.0  0.68776  0.07090  0.63153  1.0000 -0.4317526891
I   I32       1.0  0.31224  0.42910  0.13153  1.0000 -0.4317526891
I   I33       1.0  0.31797  0.44337  0.90825  1.0000 -0.4503067061
I   I34       1.0  0.68203  0.05663  0.40825  1.0000 -0.4503067061
I   I35       1.0  0.81797  0.55663  0.59175  1.0000 -0.4503067061
I   I36       1.0  0.18203  0.94337  0.09175  1.0000 -0.4503067061
I   I37       1.0  0.04890  0.51826  0.87713  1.0000 -0.4424043484
I   I38       1.0  0.95110  0.98174  0.37713  1.0000 -0.4424043484
I   I39       1.0  0.54890  0.48174  0.62287  1.0000 -0.4424043484
I   I40       1.0  0.45110  0.01826  0.12287  1.0000 -0.4424043484
I   I41       1.0  0.80841  0.32735  0.66245  1.0000 -0.4503067061
I   I42       1.0  0.19159  0.17265  0.16245  1.0000 -0.4503067061
I   I43       1.0  0.30841  0.67265  0.83755  1.0000 -0.4503067061
I   I44       1.0  0.69159  0.82735  0.33755  1.0000 -0.4503067061
I   I45       1.0  0.64836  0.19662  0.68203  1.0000 -0.4503067061
I   I46       1.0  0.35164  0.30338  0.18203  1.0000 -0.4503067061
I   I47       1.0  0.14836  0.80338  0.81797  1.0000 -0.4503067061
I   I48       1.0  0.85164  0.69662  0.31797  1.0000 -0.4503067061
N   N1        1.0  0.92060  0.95840  0.10984  1.0000 -0.1802856139
N   N2        1.0  0.07940  0.54160  0.60984  1.0000 -0.1802856139
N   N3        1.0  0.42060  0.04160  0.39016  1.0000 -0.1802856139
N   N4        1.0  0.57940  0.45840  0.89016  1.0000 -0.1802856139
N   N5        1.0  0.91190  0.61080  0.10890  1.0000 -0.1896591335
N   N6        1.0  0.08810  0.88920  0.60890  1.0000 -0.1896591335
N   N7        1.0  0.41190  0.38920  0.39110  1.0000 -0.1896591335
N   N8        1.0  0.58810  0.11080  0.89110  1.0000 -0.1896591335
N   N9        1.0  0.11410  0.76930  0.28558  1.0000 -0.1896591335
N   N10       1.0  0.88590  0.73070  0.78558  1.0000 -0.1896591335
N   N11       1.0  0.61410  0.23070  0.21442  1.0000 -0.1896591335
N   N12       1.0  0.38590  0.26930  0.71442  1.0000 -0.1896591335
N   N13       1.0  0.94560  0.78500  0.13756  1.0000 -0.4155708402
N   N14       1.0  0.05440  0.71500  0.63756  1.0000 -0.4155708402
N   N15       1.0  0.44560  0.21500  0.36244  1.0000 -0.4155708402
N   N16       1.0  0.55440  0.28500  0.86244  1.0000 -0.4155708402
N   N17       1.0  0.98520  0.74100  0.18179  1.0000 -0.4098915103
N   N18       1.0  0.01480  0.75900  0.68179  1.0000 -0.4098915103
N   N19       1.0  0.48520  0.25900  0.31821  1.0000 -0.4098915103
N   N20       1.0  0.51480  0.24100  0.81821  1.0000 -0.4098915103
N   N21       1.0  0.98750  0.82550  0.18324  1.0000 -0.4098915103
N   N22       1.0  0.01250  0.67450  0.68324  1.0000 -0.4098915103
N   N23       1.0  0.48750  0.17450  0.31676  1.0000 -0.4098915103
N   N24       1.0  0.51250  0.32550  0.81676  1.0000 -0.4098915103
N   N25       1.0  0.58230  0.04800  0.95028  1.0000 -0.1802856139
N   N26       1.0  0.41770  0.45200  0.45028  1.0000 -0.1802856139
N   N27       1.0  0.08230  0.95200  0.54972  1.0000 -0.1802856139
N   N28       1.0  0.91770  0.54800  0.04972  1.0000 -0.1802856139
N   N29       1.0  0.60980  0.20080  0.14463  1.0000 -0.171500761
N   N30       1.0  0.39020  0.29920  0.64463  1.0000 -0.171500761
N   N31       1.0  0.10980  0.79920  0.35537  1.0000 -0.171500761
N   N32       1.0  0.89020  0.70080  0.85537  1.0000 -0.171500761
N   N33       1.0  0.02140  0.05060  0.07899  1.0000 -0.1802856139
N   N34       1.0  0.97860  0.44940  0.57899  1.0000 -0.1802856139
N   N35       1.0  0.52140  0.94940  0.42101  1.0000 -0.1802856139
N   N36       1.0  0.47860  0.55060  0.92101  1.0000 -0.1802856139
N   N37       1.0  0.49890  0.11080  0.05383  1.0000 -0.389331974
N   N38       1.0  0.50110  0.38920  0.55383  1.0000 -0.389331974
N   N39       1.0  0.99890  0.88920  0.44617  1.0000 -0.389331974
N   N40       1.0  0.00110  0.61080  0.94617  1.0000 -0.389331974
N   N41       1.0  0.35540  0.11910  0.08281  1.0000 -0.3737680464
N   N42       1.0  0.64460  0.38090  0.58281  1.0000 -0.3737680464
N   N43       1.0  0.85540  0.88090  0.41719  1.0000 -0.3737680464
N   N44       1.0  0.14460  0.61910  0.91719  1.0000 -0.3737680464
N   N45       1.0  0.35240  0.07510  0.03723  1.0000 -0.389331974
N   N46       1.0  0.64760  0.42490  0.53723  1.0000 -0.389331974
N   N47       1.0  0.85240  0.92490  0.46277  1.0000 -0.389331974
N   N48       1.0  0.14760  0.57510  0.96277  1.0000 -0.389331974
N   N49       1.0  0.07940  0.04160  0.89016  1.0000 -0.1802856139
N   N50       1.0  0.92060  0.45840  0.39016  1.0000 -0.1802856139
N   N51       1.0  0.57940  0.95840  0.60984  1.0000 -0.1802856139
N   N52       1.0  0.42060  0.54160  0.10984  1.0000 -0.1802856139
N   N53       1.0  0.08810  0.38920  0.89110  1.0000 -0.1896591335
N   N54       1.0  0.91190  0.11080  0.39110  1.0000 -0.1896591335
N   N55       1.0  0.58810  0.61080  0.60890  1.0000 -0.1896591335
N   N56       1.0  0.41190  0.88920  0.10890  1.0000 -0.1896591335
N   N57       1.0  0.88590  0.23070  0.71442  1.0000 -0.1896591335
N   N58       1.0  0.11410  0.26930  0.21442  1.0000 -0.1896591335
N   N59       1.0  0.38590  0.76930  0.78558  1.0000 -0.1896591335
N   N60       1.0  0.61410  0.73070  0.28558  1.0000 -0.1896591335
N   N61       1.0  0.05440  0.21500  0.86244  1.0000 -0.4155708402
N   N62       1.0  0.94560  0.28500  0.36244  1.0000 -0.4155708402
N   N63       1.0  0.55440  0.78500  0.63756  1.0000 -0.4155708402
N   N64       1.0  0.44560  0.71500  0.13756  1.0000 -0.4155708402
N   N65       1.0  0.01480  0.25900  0.81821  1.0000 -0.4098915103
N   N66       1.0  0.98520  0.24100  0.31821  1.0000 -0.4098915103
N   N67       1.0  0.51480  0.74100  0.68179  1.0000 -0.4098915103
N   N68       1.0  0.48520  0.75900  0.18179  1.0000 -0.4098915103
N   N69       1.0  0.01250  0.17450  0.81676  1.0000 -0.4098915103
N   N70       1.0  0.98750  0.32550  0.31676  1.0000 -0.4098915103
N   N71       1.0  0.51250  0.82550  0.68324  1.0000 -0.4098915103
N   N72       1.0  0.48750  0.67450  0.18324  1.0000 -0.4098915103
N   N73       1.0  0.41770  0.95200  0.04972  1.0000 -0.1802856139
N   N74       1.0  0.58230  0.54800  0.54972  1.0000 -0.1802856139
N   N75       1.0  0.91770  0.04800  0.45028  1.0000 -0.1802856139
N   N76       1.0  0.08230  0.45200  0.95028  1.0000 -0.1802856139
N   N77       1.0  0.39020  0.79920  0.85537  1.0000 -0.171500761
N   N78       1.0  0.60980  0.70080  0.35537  1.0000 -0.171500761
N   N79       1.0  0.89020  0.20080  0.64463  1.0000 -0.171500761
N   N80       1.0  0.10980  0.29920  0.14463  1.0000 -0.171500761
N   N81       1.0  0.97860  0.94940  0.92101  1.0000 -0.1802856139
N   N82       1.0  0.02140  0.55060  0.42101  1.0000 -0.1802856139
N   N83       1.0  0.47860  0.05060  0.57899  1.0000 -0.1802856139
N   N84       1.0  0.52140  0.44940  0.07899  1.0000 -0.1802856139
N   N85       1.0  0.50110  0.88920  0.94617  1.0000 -0.389331974
N   N86       1.0  0.49890  0.61080  0.44617  1.0000 -0.389331974
N   N87       1.0  0.00110  0.11080  0.55383  1.0000 -0.389331974
N   N88       1.0  0.99890  0.38920  0.05383  1.0000 -0.389331974
N   N89       1.0  0.64460  0.88090  0.91719  1.0000 -0.3737680464
N   N90       1.0  0.35540  0.61910  0.41719  1.0000 -0.3737680464
N   N91       1.0  0.14460  0.11910  0.58281  1.0000 -0.3737680464
N   N92       1.0  0.85540  0.38090  0.08281  1.0000 -0.3737680464
N   N93       1.0  0.64760  0.92490  0.96277  1.0000 -0.389331974
N   N94       1.0  0.35240  0.57510  0.46277  1.0000 -0.389331974
N   N95       1.0  0.14760  0.07510  0.53723  1.0000 -0.389331974
N   N96       1.0  0.85240  0.42490  0.03723  1.0000 -0.389331974
