# DDEC6 charges by PACMAN v1.1 (https://github.com/mtap-research/PACMAN-charge/)
data_2011[Co][nan]3[ASR]2
_chemical_formula_sum              "Co8 H56 C104 N8 O32"
_cell_length_a       9.287
_cell_length_b       28.242
_cell_length_c       16.667
_cell_angle_alpha    90
_cell_angle_beta     97.03
_cell_angle_gamma    90

_symmetry_space_group_name_H-M    "P 1"
_symmetry_Int_Tables_number       1

loop_
  _symmetry_equiv_pos_as_xyz
  'x, y, z'

loop_
  _atom_site_type_symbol
  _atom_site_label
  _atom_site_symmetry_multiplicity
  _atom_site_fract_x
  _atom_site_fract_y
  _atom_site_fract_z
  _atom_site_occupancy
  _atom_site_charge
Co  Co1       1.0  0.80722  0.69522  0.71979  1.0000 1.0035111433
Co  Co2       1.0  0.19278  0.19522  0.78021  1.0000 1.0035111433
Co  Co3       1.0  0.19278  0.30478  0.28021  1.0000 1.0035111433
Co  Co4       1.0  0.80722  0.80478  0.21979  1.0000 1.0035111433
Co  Co5       1.0  0.75545  0.57543  0.73061  1.0000 0.8196683055
Co  Co6       1.0  0.24455  0.07543  0.76939  1.0000 0.8196683055
Co  Co7       1.0  0.24455  0.42457  0.26939  1.0000 0.8196683055
Co  Co8       1.0  0.75545  0.92457  0.23061  1.0000 0.8196683055
H   H1        1.0  0.04930  0.51010  0.30000  1.0000 0.1035204366
H   H2        1.0  0.95070  0.01010  0.20000  1.0000 0.1035204366
H   H3        1.0  0.95070  0.48990  0.70000  1.0000 0.1035204366
H   H4        1.0  0.04930  0.98990  0.80000  1.0000 0.1035204366
H   H5        1.0  0.93900  0.57580  0.23670  1.0000 0.134886173
H   H6        1.0  0.06100  0.07580  0.26330  1.0000 0.1393146334
H   H7        1.0  0.06100  0.42420  0.76330  1.0000 0.1393146334
H   H8        1.0  0.93900  0.92420  0.73670  1.0000 0.134886173
H   H9        1.0  0.13400  0.54280  0.04080  1.0000 0.1393146334
H   H10       1.0  0.86600  0.04280  0.45920  1.0000 0.1393146334
H   H11       1.0  0.86600  0.45720  0.95920  1.0000 0.1393146334
H   H12       1.0  0.13400  0.95720  0.54080  1.0000 0.1393146334
H   H13       1.0  0.23470  0.47730  0.10940  1.0000 0.1093797312
H   H14       1.0  0.76530  0.97730  0.39060  1.0000 0.1093797312
H   H15       1.0  0.76530  0.52270  0.89060  1.0000 0.1093797312
H   H16       1.0  0.23470  0.02270  0.60940  1.0000 0.1093797312
H   H17       1.0  0.95180  0.65060  0.18850  1.0000 0.1196146405
H   H18       1.0  0.04820  0.15060  0.31150  1.0000 0.1196146405
H   H19       1.0  0.04820  0.34940  0.81150  1.0000 0.1196146405
H   H20       1.0  0.95180  0.84940  0.68850  1.0000 0.1196146405
H   H21       1.0  0.80840  0.71860  0.98090  1.0000 0.1393146334
H   H22       1.0  0.19160  0.21860  0.51910  1.0000 0.1393146334
H   H23       1.0  0.19160  0.28140  0.01910  1.0000 0.1393146334
H   H24       1.0  0.80840  0.78140  0.48090  1.0000 0.1393146334
H   H25       1.0  0.93550  0.58150  0.97530  1.0000 0.1093797312
H   H26       1.0  0.06450  0.08150  0.52470  1.0000 0.1093797312
H   H27       1.0  0.06450  0.41850  0.02470  1.0000 0.1093797312
H   H28       1.0  0.93550  0.91850  0.47530  1.0000 0.1093797312
H   H29       1.0  0.41790  0.51450  0.32510  1.0000 0.1035204366
H   H30       1.0  0.58210  0.01450  0.17490  1.0000 0.1035204366
H   H31       1.0  0.58210  0.48550  0.67490  1.0000 0.1035204366
H   H32       1.0  0.41790  0.98550  0.82510  1.0000 0.1035204366
H   H33       1.0  0.43020  0.57150  0.42520  1.0000 0.1393146334
H   H34       1.0  0.56980  0.07150  0.07480  1.0000 0.1393146334
H   H35       1.0  0.56980  0.42850  0.57480  1.0000 0.1393146334
H   H36       1.0  0.43020  0.92850  0.92520  1.0000 0.1393146334
H   H37       1.0  0.19050  0.48540  0.55080  1.0000 0.134886173
H   H38       1.0  0.80950  0.98540  0.94920  1.0000 0.134886173
H   H39       1.0  0.80950  0.51460  0.44920  1.0000 0.134886173
H   H40       1.0  0.19050  0.01460  0.05080  1.0000 0.134886173
H   H41       1.0  0.19000  0.43040  0.44870  1.0000 0.1196146405
H   H42       1.0  0.81000  0.93040  0.05130  1.0000 0.1196146405
H   H43       1.0  0.81000  0.56960  0.55130  1.0000 0.1196146405
H   H44       1.0  0.19000  0.06960  0.94870  1.0000 0.1196146405
H   H45       1.0  0.51150  0.59570  0.56270  1.0000 0.1196146405
H   H46       1.0  0.48850  0.09570  0.93730  1.0000 0.1196146405
H   H47       1.0  0.48850  0.40430  0.43730  1.0000 0.1196146405
H   H48       1.0  0.51150  0.90430  0.06270  1.0000 0.1196146405
H   H49       1.0  0.28430  0.67120  0.71080  1.0000 0.1393146334
H   H50       1.0  0.71570  0.17120  0.78920  1.0000 0.1393146334
H   H51       1.0  0.71570  0.32880  0.28920  1.0000 0.1393146334
H   H52       1.0  0.28430  0.82880  0.21080  1.0000 0.1393146334
H   H53       1.0  0.09570  0.56040  0.58430  1.0000 0.1093797312
H   H54       1.0  0.90430  0.06040  0.91570  1.0000 0.1093797312
H   H55       1.0  0.90430  0.43960  0.41570  1.0000 0.1093797312
H   H56       1.0  0.09570  0.93960  0.08430  1.0000 0.1093797312
C   C1        1.0  0.06630  0.51672  0.24610  1.0000 0.0909992582
C   C2        1.0  0.93370  0.01672  0.25390  1.0000 0.0909992582
C   C3        1.0  0.93370  0.48328  0.75390  1.0000 0.0909992582
C   C4        1.0  0.06630  0.98328  0.74610  1.0000 0.0909992582
C   C5        1.0  0.00030  0.55644  0.20900  1.0000 -0.2002880063
C   C6        1.0  0.99970  0.05644  0.29100  1.0000 -0.2002880063
C   C7        1.0  0.99970  0.44356  0.79100  1.0000 -0.2002880063
C   C8        1.0  0.00030  0.94356  0.70900  1.0000 -0.2002880063
C   C9        1.0  0.02530  0.56737  0.13100  1.0000 0.1196146405
C   C10       1.0  0.97470  0.06737  0.36900  1.0000 0.1196146405
C   C11       1.0  0.97470  0.43263  0.86900  1.0000 0.1196146405
C   C12       1.0  0.02530  0.93263  0.63100  1.0000 0.1196146405
C   C13       1.0  0.11420  0.53686  0.09450  1.0000 -0.2002880063
C   C14       1.0  0.88580  0.03686  0.40550  1.0000 -0.2002880063
C   C15       1.0  0.88580  0.46314  0.90550  1.0000 -0.2002880063
C   C16       1.0  0.11420  0.96314  0.59450  1.0000 -0.2002880063
C   C17       1.0  0.17440  0.49769  0.13610  1.0000 0.0909992582
C   C18       1.0  0.82560  0.99769  0.36390  1.0000 0.0909992582
C   C19       1.0  0.82560  0.50231  0.86390  1.0000 0.0909992582
C   C20       1.0  0.17440  0.00231  0.63610  1.0000 0.0909992582
C   C21       1.0  0.95930  0.60977  0.08850  1.0000 0.0513194301
C   C22       1.0  0.04070  0.10977  0.41150  1.0000 0.0513194301
C   C23       1.0  0.04070  0.39023  0.91150  1.0000 0.0513194301
C   C24       1.0  0.95930  0.89023  0.58850  1.0000 0.0513194301
C   C25       1.0  0.93240  0.65053  0.13120  1.0000 -0.1360685104
C   C26       1.0  0.06760  0.15053  0.36880  1.0000 -0.1360685104
C   C27       1.0  0.06760  0.34947  0.86880  1.0000 -0.1360685104
C   C28       1.0  0.93240  0.84947  0.63120  1.0000 -0.1360685104
C   C29       1.0  0.87740  0.69130  0.09120  1.0000 -0.0047123748
C   C30       1.0  0.12260  0.19130  0.40880  1.0000 -0.0047123748
C   C31       1.0  0.12260  0.30870  0.90880  1.0000 -0.0047123748
C   C32       1.0  0.87740  0.80870  0.59120  1.0000 -0.0047123748
C   C33       1.0  0.84470  0.69077  0.00820  1.0000 -0.087325581
C   C34       1.0  0.15530  0.19077  0.49180  1.0000 -0.087325581
C   C35       1.0  0.15530  0.30923  0.99180  1.0000 -0.087325581
C   C36       1.0  0.84470  0.80923  0.50820  1.0000 -0.087325581
C   C37       1.0  0.86430  0.64963  0.96350  1.0000 -0.0189415147
C   C38       1.0  0.13570  0.14963  0.53650  1.0000 -0.0189415147
C   C39       1.0  0.13570  0.35037  0.03650  1.0000 -0.0189415147
C   C40       1.0  0.86430  0.85037  0.46350  1.0000 -0.0189415147
C   C41       1.0  0.92170  0.60960  0.00490  1.0000 -0.1536429735
C   C42       1.0  0.07830  0.10960  0.49510  1.0000 -0.1536429735
C   C43       1.0  0.07830  0.39040  0.99510  1.0000 -0.1536429735
C   C44       1.0  0.92170  0.89040  0.50490  1.0000 -0.1536429735
C   C45       1.0  0.84890  0.73472  0.13800  1.0000 0.5426107621
C   C46       1.0  0.15110  0.23472  0.36200  1.0000 0.5426107621
C   C47       1.0  0.15110  0.26528  0.86200  1.0000 0.5426107621
C   C48       1.0  0.84890  0.76528  0.63800  1.0000 0.5426107621
C   C49       1.0  0.82510  0.64856  0.87410  1.0000 0.5904329544
C   C50       1.0  0.17490  0.14856  0.62590  1.0000 0.5904329544
C   C51       1.0  0.17490  0.35144  0.12590  1.0000 0.5904329544
C   C52       1.0  0.82510  0.85144  0.37410  1.0000 0.5904329544
C   C53       1.0  0.36990  0.50883  0.37130  1.0000 0.0663475221
C   C54       1.0  0.63010  0.00883  0.12870  1.0000 0.0663475221
C   C55       1.0  0.63010  0.49117  0.62870  1.0000 0.0663475221
C   C56       1.0  0.36990  0.99117  0.87130  1.0000 0.0663475221
C   C57       1.0  0.37720  0.54310  0.43070  1.0000 -0.2002880063
C   C58       1.0  0.62280  0.04310  0.06930  1.0000 -0.2002880063
C   C59       1.0  0.62280  0.45690  0.56930  1.0000 -0.2002880063
C   C60       1.0  0.37720  0.95690  0.93070  1.0000 -0.2002880063
C   C61       1.0  0.30660  0.53590  0.49840  1.0000 0.1196146405
C   C62       1.0  0.69340  0.03590  0.00160  1.0000 0.1196146405
C   C63       1.0  0.69340  0.46410  0.50160  1.0000 0.1196146405
C   C64       1.0  0.30660  0.96410  0.99840  1.0000 0.1196146405
C   C65       1.0  0.23710  0.49245  0.50450  1.0000 -0.2093560534
C   C66       1.0  0.76290  0.99245  0.99550  1.0000 -0.2093560534
C   C67       1.0  0.76290  0.50755  0.49550  1.0000 -0.2093560534
C   C68       1.0  0.23710  0.00755  0.00450  1.0000 -0.2093560534
C   C69       1.0  0.23660  0.45996  0.44300  1.0000 0.0909992582
C   C70       1.0  0.76340  0.95996  0.05700  1.0000 0.0909992582
C   C71       1.0  0.76340  0.54004  0.55700  1.0000 0.0909992582
C   C72       1.0  0.23660  0.04004  0.94300  1.0000 0.0909992582
C   C73       1.0  0.30240  0.57299  0.56100  1.0000 0.0513194301
C   C74       1.0  0.69760  0.07299  0.93900  1.0000 0.0513194301
C   C75       1.0  0.69760  0.42701  0.43900  1.0000 0.0513194301
C   C76       1.0  0.30240  0.92701  0.06100  1.0000 0.0513194301
C   C77       1.0  0.42400  0.60094  0.58560  1.0000 -0.1705690498
C   C78       1.0  0.57600  0.10094  0.91440  1.0000 -0.1705690498
C   C79       1.0  0.57600  0.39906  0.41440  1.0000 -0.1705690498
C   C80       1.0  0.42400  0.89906  0.08560  1.0000 -0.1705690498
C   C81       1.0  0.41830  0.63622  0.64300  1.0000 0.0010997204
C   C82       1.0  0.58170  0.13622  0.85700  1.0000 0.0010997204
C   C83       1.0  0.58170  0.36378  0.35700  1.0000 0.0010997204
C   C84       1.0  0.41830  0.86378  0.14300  1.0000 0.0010997204
C   C85       1.0  0.29010  0.64551  0.67450  1.0000 -0.1027946794
C   C86       1.0  0.70990  0.14551  0.82550  1.0000 -0.1027946794
C   C87       1.0  0.70990  0.35449  0.32550  1.0000 -0.1027946794
C   C88       1.0  0.29010  0.85449  0.17450  1.0000 -0.1027946794
C   C89       1.0  0.17000  0.61690  0.65260  1.0000 0.0010997204
C   C90       1.0  0.83000  0.11690  0.84740  1.0000 0.0010997204
C   C91       1.0  0.83000  0.38310  0.34740  1.0000 0.0010997204
C   C92       1.0  0.17000  0.88310  0.15260  1.0000 0.0010997204
C   C93       1.0  0.17720  0.58048  0.59740  1.0000 -0.1705690498
C   C94       1.0  0.82280  0.08048  0.90260  1.0000 -0.1705690498
C   C95       1.0  0.82280  0.41952  0.40260  1.0000 -0.1705690498
C   C96       1.0  0.17720  0.91952  0.09740  1.0000 -0.1705690498
C   C97       1.0  0.55500  0.66235  0.67370  1.0000 0.5622713095
C   C98       1.0  0.44500  0.16235  0.82630  1.0000 0.5622713095
C   C99       1.0  0.44500  0.33765  0.32630  1.0000 0.5622713095
C   C100      1.0  0.55500  0.83765  0.17370  1.0000 0.5622713095
C   C101      1.0  0.02850  0.62501  0.68730  1.0000 0.5904329544
C   C102      1.0  0.97150  0.12501  0.81270  1.0000 0.5904329544
C   C103      1.0  0.97150  0.37499  0.31270  1.0000 0.5904329544
C   C104      1.0  0.02850  0.87499  0.18730  1.0000 0.5904329544
N   N1        1.0  0.15220  0.48717  0.21107  1.0000 -0.244798305
N   N2        1.0  0.84780  0.98717  0.28893  1.0000 -0.244798305
N   N3        1.0  0.84780  0.51283  0.78893  1.0000 -0.244798305
N   N4        1.0  0.15220  0.01283  0.71107  1.0000 -0.244798305
N   N5        1.0  0.29810  0.46763  0.37573  1.0000 -0.2617917532
N   N6        1.0  0.70190  0.96763  0.12427  1.0000 -0.2617917532
N   N7        1.0  0.70190  0.53237  0.62427  1.0000 -0.2617917532
N   N8        1.0  0.29810  0.03237  0.87573  1.0000 -0.2617917532
O   O1        1.0  0.80540  0.68794  0.83874  1.0000 -0.5220906311
O   O2        1.0  0.19460  0.18794  0.66126  1.0000 -0.5220906311
O   O3        1.0  0.19460  0.31206  0.16126  1.0000 -0.5220906311
O   O4        1.0  0.80540  0.81206  0.33874  1.0000 -0.5220906311
O   O5        1.0  0.81500  0.60877  0.84106  1.0000 -0.5851151222
O   O6        1.0  0.18500  0.10877  0.65894  1.0000 -0.5851151222
O   O7        1.0  0.18500  0.39123  0.15894  1.0000 -0.5851151222
O   O8        1.0  0.81500  0.89123  0.34106  1.0000 -0.5851151222
O   O9        1.0  0.81140  0.77209  0.10105  1.0000 -0.5220906311
O   O10       1.0  0.18860  0.27209  0.39895  1.0000 -0.5220906311
O   O11       1.0  0.18860  0.22791  0.89895  1.0000 -0.5220906311
O   O12       1.0  0.81140  0.72791  0.60105  1.0000 -0.5220906311
O   O13       1.0  0.86450  0.73331  0.21439  1.0000 -0.5260192627
O   O14       1.0  0.13550  0.23331  0.28561  1.0000 -0.5260192627
O   O15       1.0  0.13550  0.26669  0.78561  1.0000 -0.5260192627
O   O16       1.0  0.86450  0.76669  0.71439  1.0000 -0.5260192627
O   O17       1.0  0.67550  0.64001  0.67392  1.0000 -0.6055843705
O   O18       1.0  0.32450  0.14001  0.82608  1.0000 -0.6055843705
O   O19       1.0  0.32450  0.35999  0.32608  1.0000 -0.6055843705
O   O20       1.0  0.67550  0.85999  0.17392  1.0000 -0.6055843705
O   O21       1.0  0.55260  0.70352  0.69916  1.0000 -0.4866159434
O   O22       1.0  0.44740  0.20352  0.80084  1.0000 -0.4866159434
O   O23       1.0  0.44740  0.29648  0.30084  1.0000 -0.4866159434
O   O24       1.0  0.55260  0.79648  0.19916  1.0000 -0.4866159434
O   O25       1.0  0.00580  0.66649  0.71284  1.0000 -0.5383344168
O   O26       1.0  0.99420  0.16649  0.78716  1.0000 -0.5383344168
O   O27       1.0  0.99420  0.33351  0.28716  1.0000 -0.5383344168
O   O28       1.0  0.00580  0.83351  0.21284  1.0000 -0.5383344168
O   O29       1.0  0.94710  0.58982  0.68776  1.0000 -0.5683251643
O   O30       1.0  0.05290  0.08982  0.81224  1.0000 -0.5683251643
O   O31       1.0  0.05290  0.41018  0.31224  1.0000 -0.5683251643
O   O32       1.0  0.94710  0.91018  0.18776  1.0000 -0.5683251643
