# DDEC6 charges by PACMAN v1.1 (https://github.com/mtap-research/PACMAN-charge/)
data_2011[Zn][srs]3[ASR]6
_chemical_formula_sum              "Zn24 H192 C288 I48 N96"
_cell_length_a       13.798
_cell_length_b       27.249
_cell_length_c       44.834
_cell_angle_alpha    90
_cell_angle_beta     90
_cell_angle_gamma    90

_symmetry_space_group_name_H-M    "P 1"
_symmetry_Int_Tables_number       1

loop_
  _symmetry_equiv_pos_as_xyz
  'x, y, z'

loop_
  _atom_site_type_symbol
  _atom_site_label
  _atom_site_symmetry_multiplicity
  _atom_site_fract_x
  _atom_site_fract_y
  _atom_site_fract_z
  _atom_site_occupancy
  _atom_site_charge
Zn  Zn1       1.0  0.37979  0.97230  0.91302  1.0000 0.4728190607
Zn  Zn2       1.0  0.62021  0.52770  0.41302  1.0000 0.4728190607
Zn  Zn3       1.0  0.87979  0.02770  0.58698  1.0000 0.4728190607
Zn  Zn4       1.0  0.12021  0.47230  0.08698  1.0000 0.4728190607
Zn  Zn5       1.0  0.35246  0.45626  0.91443  1.0000 0.4531970286
Zn  Zn6       1.0  0.64754  0.04374  0.41443  1.0000 0.4531970286
Zn  Zn7       1.0  0.85246  0.54374  0.58557  1.0000 0.4531970286
Zn  Zn8       1.0  0.14754  0.95626  0.08557  1.0000 0.4531970286
Zn  Zn9       1.0  0.67948  0.24397  0.68039  1.0000 0.4753735774
Zn  Zn10      1.0  0.32052  0.25603  0.18039  1.0000 0.4728190607
Zn  Zn11      1.0  0.17948  0.75603  0.81961  1.0000 0.4728190607
Zn  Zn12      1.0  0.82052  0.74397  0.31961  1.0000 0.4728190607
Zn  Zn13      1.0  0.62021  0.02770  0.08698  1.0000 0.4728190607
Zn  Zn14      1.0  0.37979  0.47230  0.58698  1.0000 0.4728190607
Zn  Zn15      1.0  0.12021  0.97230  0.41302  1.0000 0.4728190607
Zn  Zn16      1.0  0.87979  0.52770  0.91302  1.0000 0.4728190607
Zn  Zn17      1.0  0.64754  0.54374  0.08557  1.0000 0.4531970286
Zn  Zn18      1.0  0.35246  0.95626  0.58557  1.0000 0.4531970286
Zn  Zn19      1.0  0.14754  0.45626  0.41443  1.0000 0.4531970286
Zn  Zn20      1.0  0.85246  0.04374  0.91443  1.0000 0.4531970286
Zn  Zn21      1.0  0.32052  0.75603  0.31961  1.0000 0.4728190607
Zn  Zn22      1.0  0.67948  0.74397  0.81961  1.0000 0.4728190607
Zn  Zn23      1.0  0.82052  0.24397  0.18039  1.0000 0.4753735774
Zn  Zn24      1.0  0.17948  0.25603  0.68039  1.0000 0.4728190607
H   H1        1.0  0.40630  0.07960  0.92820  1.0000 0.1099320153
H   H2        1.0  0.59370  0.42040  0.42820  1.0000 0.1099320153
H   H3        1.0  0.90630  0.92040  0.57180  1.0000 0.1099320153
H   H4        1.0  0.09370  0.57960  0.07180  1.0000 0.1099320153
H   H5        1.0  0.41250  0.15460  0.90330  1.0000 0.1319617874
H   H6        1.0  0.58750  0.34540  0.40330  1.0000 0.1319617874
H   H7        1.0  0.91250  0.84540  0.59670  1.0000 0.1319617874
H   H8        1.0  0.08750  0.65460  0.09670  1.0000 0.1319617874
H   H9        1.0  0.46900  0.08260  0.82720  1.0000 0.1379041514
H   H10       1.0  0.53100  0.41740  0.32720  1.0000 0.1379041514
H   H11       1.0  0.96900  0.91740  0.67280  1.0000 0.1379041514
H   H12       1.0  0.03100  0.58260  0.17280  1.0000 0.1379041514
H   H13       1.0  0.44110  0.01050  0.85190  1.0000 0.1099320153
H   H14       1.0  0.55890  0.48950  0.35190  1.0000 0.1099320153
H   H15       1.0  0.94110  0.98950  0.64810  1.0000 0.1099320153
H   H16       1.0  0.05890  0.51050  0.14810  1.0000 0.1099320153
H   H17       1.0  0.43120  0.42210  0.85780  1.0000 0.1000111688
H   H18       1.0  0.56880  0.07790  0.35780  1.0000 0.1000111688
H   H19       1.0  0.93120  0.57790  0.64220  1.0000 0.1000111688
H   H20       1.0  0.06880  0.92210  0.14220  1.0000 0.1000111688
H   H21       1.0  0.46760  0.35140  0.83160  1.0000 0.1319617874
H   H22       1.0  0.53240  0.14860  0.33160  1.0000 0.1319617874
H   H23       1.0  0.96760  0.64860  0.66840  1.0000 0.1319617874
H   H24       1.0  0.03240  0.85140  0.16840  1.0000 0.1319617874
H   H25       1.0  0.39670  0.27340  0.90650  1.0000 0.1379041514
H   H26       1.0  0.60330  0.22660  0.40650  1.0000 0.1379041514
H   H27       1.0  0.89670  0.72660  0.59350  1.0000 0.1379041514
H   H28       1.0  0.10330  0.77340  0.09350  1.0000 0.1379041514
H   H29       1.0  0.37720  0.35030  0.92960  1.0000 0.1000111688
H   H30       1.0  0.62280  0.14970  0.42960  1.0000 0.1000111688
H   H31       1.0  0.87720  0.64970  0.57040  1.0000 0.1000111688
H   H32       1.0  0.12280  0.85030  0.07040  1.0000 0.1000111688
H   H33       1.0  0.61080  0.16130  0.71970  1.0000 0.1099320153
H   H34       1.0  0.38920  0.33870  0.21970  1.0000 0.1099320153
H   H35       1.0  0.11080  0.83870  0.78030  1.0000 0.1099320153
H   H36       1.0  0.88920  0.66130  0.28030  1.0000 0.1099320153
H   H37       1.0  0.54730  0.14950  0.76770  1.0000 0.1319617874
H   H38       1.0  0.45270  0.35050  0.26770  1.0000 0.1319617874
H   H39       1.0  0.04730  0.85050  0.73230  1.0000 0.1319617874
H   H40       1.0  0.95270  0.64950  0.23230  1.0000 0.1319617874
H   H41       1.0  0.50940  0.29700  0.77120  1.0000 0.1319617874
H   H42       1.0  0.49060  0.20300  0.27120  1.0000 0.1319617874
H   H43       1.0  0.00940  0.70300  0.72880  1.0000 0.1319617874
H   H44       1.0  0.99060  0.79700  0.22880  1.0000 0.1319617874
H   H45       1.0  0.56520  0.30340  0.72430  1.0000 0.1099320153
H   H46       1.0  0.43480  0.19660  0.22430  1.0000 0.1099320153
H   H47       1.0  0.06520  0.69660  0.77570  1.0000 0.1099320153
H   H48       1.0  0.93480  0.80340  0.27570  1.0000 0.1099320153
H   H49       1.0  0.20260  0.92780  0.02330  1.0000 0.1000111688
H   H50       1.0  0.79740  0.57220  0.52330  1.0000 0.1000111688
H   H51       1.0  0.70260  0.07220  0.47670  1.0000 0.1000111688
H   H52       1.0  0.29740  0.42780  0.97670  1.0000 0.1000111688
H   H53       1.0  0.13030  0.89870  0.97910  1.0000 0.1379041514
H   H54       1.0  0.86970  0.60130  0.47910  1.0000 0.1379041514
H   H55       1.0  0.63030  0.10130  0.52090  1.0000 0.1379041514
H   H56       1.0  0.36970  0.39870  0.02090  1.0000 0.1379041514
H   H57       1.0  0.87250  0.94610  0.01200  1.0000 0.1319617874
H   H58       1.0  0.12750  0.55390  0.51200  1.0000 0.1319617874
H   H59       1.0  0.37250  0.05390  0.48800  1.0000 0.1319617874
H   H60       1.0  0.62750  0.44610  0.98800  1.0000 0.1319617874
H   H61       1.0  0.95550  0.97120  0.05700  1.0000 0.1000111688
H   H62       1.0  0.04450  0.52880  0.55700  1.0000 0.1000111688
H   H63       1.0  0.45550  0.02880  0.44300  1.0000 0.1000111688
H   H64       1.0  0.54450  0.47120  0.94300  1.0000 0.1000111688
H   H65       1.0  0.97360  0.77410  0.83570  1.0000 0.1099320153
H   H66       1.0  0.02640  0.72590  0.33570  1.0000 0.1099320153
H   H67       1.0  0.47360  0.22590  0.66430  1.0000 0.1099320153
H   H68       1.0  0.52640  0.27410  0.16430  1.0000 0.1099320153
H   H69       1.0  0.88120  0.81260  0.87330  1.0000 0.1379041514
H   H70       1.0  0.11880  0.68740  0.37330  1.0000 0.1379041514
H   H71       1.0  0.38120  0.18740  0.62670  1.0000 0.1379041514
H   H72       1.0  0.61880  0.31260  0.12670  1.0000 0.1379041514
H   H73       1.0  0.12750  0.84580  0.91460  1.0000 0.1319617874
H   H74       1.0  0.87250  0.65420  0.41460  1.0000 0.1319617874
H   H75       1.0  0.62750  0.15420  0.58540  1.0000 0.1319617874
H   H76       1.0  0.37250  0.34580  0.08540  1.0000 0.1319617874
H   H77       1.0  0.21310  0.81620  0.87460  1.0000 0.1099320153
H   H78       1.0  0.78690  0.68380  0.37460  1.0000 0.1099320153
H   H79       1.0  0.71310  0.18380  0.62540  1.0000 0.1099320153
H   H80       1.0  0.28690  0.31620  0.12540  1.0000 0.1099320153
H   H81       1.0  0.51820  0.96770  0.96490  1.0000 0.1099320153
H   H82       1.0  0.48180  0.53230  0.46490  1.0000 0.1099320153
H   H83       1.0  0.01820  0.03230  0.53510  1.0000 0.1099320153
H   H84       1.0  0.98180  0.46770  0.03510  1.0000 0.1099320153
H   H85       1.0  0.66940  0.93550  0.97590  1.0000 0.1319617874
H   H86       1.0  0.33060  0.56450  0.47590  1.0000 0.1319617874
H   H87       1.0  0.16940  0.06450  0.52410  1.0000 0.1319617874
H   H88       1.0  0.83060  0.43550  0.02410  1.0000 0.1319617874
H   H89       1.0  0.68630  0.88510  0.89060  1.0000 0.1319617874
H   H90       1.0  0.31370  0.61490  0.39060  1.0000 0.1319617874
H   H91       1.0  0.18630  0.11490  0.60940  1.0000 0.1319617874
H   H92       1.0  0.81370  0.38510  0.10940  1.0000 0.1319617874
H   H93       1.0  0.53120  0.91190  0.88250  1.0000 0.1158951941
H   H94       1.0  0.46880  0.58810  0.38250  1.0000 0.1158951941
H   H95       1.0  0.03120  0.08810  0.61750  1.0000 0.1158951941
H   H96       1.0  0.96880  0.41190  0.11750  1.0000 0.1158951941
H   H97       1.0  0.59370  0.92040  0.07180  1.0000 0.1099320153
H   H98       1.0  0.40630  0.57960  0.57180  1.0000 0.1099320153
H   H99       1.0  0.09370  0.07960  0.42820  1.0000 0.1099320153
H   H100      1.0  0.90630  0.42040  0.92820  1.0000 0.1099320153
H   H101      1.0  0.58750  0.84540  0.09670  1.0000 0.1319617874
H   H102      1.0  0.41250  0.65460  0.59670  1.0000 0.1319617874
H   H103      1.0  0.08750  0.15460  0.40330  1.0000 0.1319617874
H   H104      1.0  0.91250  0.34540  0.90330  1.0000 0.1319617874
H   H105      1.0  0.53100  0.91740  0.17280  1.0000 0.1379041514
H   H106      1.0  0.46900  0.58260  0.67280  1.0000 0.1379041514
H   H107      1.0  0.03100  0.08260  0.32720  1.0000 0.1379041514
H   H108      1.0  0.96900  0.41740  0.82720  1.0000 0.1379041514
H   H109      1.0  0.55890  0.98950  0.14810  1.0000 0.1099320153
H   H110      1.0  0.44110  0.51050  0.64810  1.0000 0.1099320153
H   H111      1.0  0.05890  0.01050  0.35190  1.0000 0.1099320153
H   H112      1.0  0.94110  0.48950  0.85190  1.0000 0.1099320153
H   H113      1.0  0.56880  0.57790  0.14220  1.0000 0.1000111688
H   H114      1.0  0.43120  0.92210  0.64220  1.0000 0.1000111688
H   H115      1.0  0.06880  0.42210  0.35780  1.0000 0.1000111688
H   H116      1.0  0.93120  0.07790  0.85780  1.0000 0.1000111688
H   H117      1.0  0.53240  0.64860  0.16840  1.0000 0.1319617874
H   H118      1.0  0.46760  0.85140  0.66840  1.0000 0.1319617874
H   H119      1.0  0.03240  0.35140  0.33160  1.0000 0.1319617874
H   H120      1.0  0.96760  0.14860  0.83160  1.0000 0.1319617874
H   H121      1.0  0.60330  0.72660  0.09350  1.0000 0.1379041514
H   H122      1.0  0.39670  0.77340  0.59350  1.0000 0.1379041514
H   H123      1.0  0.10330  0.27340  0.40650  1.0000 0.1379041514
H   H124      1.0  0.89670  0.22660  0.90650  1.0000 0.1379041514
H   H125      1.0  0.62280  0.64970  0.07040  1.0000 0.1000111688
H   H126      1.0  0.37720  0.85030  0.57040  1.0000 0.1000111688
H   H127      1.0  0.12280  0.35030  0.42960  1.0000 0.1000111688
H   H128      1.0  0.87720  0.14970  0.92960  1.0000 0.1000111688
H   H129      1.0  0.38920  0.83870  0.28030  1.0000 0.1099320153
H   H130      1.0  0.61080  0.66130  0.78030  1.0000 0.1099320153
H   H131      1.0  0.88920  0.16130  0.21970  1.0000 0.1099320153
H   H132      1.0  0.11080  0.33870  0.71970  1.0000 0.1099320153
H   H133      1.0  0.45270  0.85050  0.23230  1.0000 0.1319617874
H   H134      1.0  0.54730  0.64950  0.73230  1.0000 0.1319617874
H   H135      1.0  0.95270  0.14950  0.26770  1.0000 0.1319617874
H   H136      1.0  0.04730  0.35050  0.76770  1.0000 0.1319617874
H   H137      1.0  0.49060  0.70300  0.22880  1.0000 0.1319617874
H   H138      1.0  0.50940  0.79700  0.72880  1.0000 0.1319617874
H   H139      1.0  0.99060  0.29700  0.27120  1.0000 0.1319617874
H   H140      1.0  0.00940  0.20300  0.77120  1.0000 0.1319617874
H   H141      1.0  0.43480  0.69660  0.27570  1.0000 0.1099320153
H   H142      1.0  0.56520  0.80340  0.77570  1.0000 0.1099320153
H   H143      1.0  0.93480  0.30340  0.22430  1.0000 0.1099320153
H   H144      1.0  0.06520  0.19660  0.72430  1.0000 0.1099320153
H   H145      1.0  0.79740  0.07220  0.97670  1.0000 0.1000111688
H   H146      1.0  0.20260  0.42780  0.47670  1.0000 0.1000111688
H   H147      1.0  0.29740  0.92780  0.52330  1.0000 0.1000111688
H   H148      1.0  0.70260  0.57220  0.02330  1.0000 0.1000111688
H   H149      1.0  0.86970  0.10130  0.02090  1.0000 0.1379041514
H   H150      1.0  0.13030  0.39870  0.52090  1.0000 0.1379041514
H   H151      1.0  0.36970  0.89870  0.47910  1.0000 0.1379041514
H   H152      1.0  0.63030  0.60130  0.97910  1.0000 0.1379041514
H   H153      1.0  0.12750  0.05390  0.98800  1.0000 0.1319617874
H   H154      1.0  0.87250  0.44610  0.48800  1.0000 0.1319617874
H   H155      1.0  0.62750  0.94610  0.51200  1.0000 0.1319617874
H   H156      1.0  0.37250  0.55390  0.01200  1.0000 0.1319617874
H   H157      1.0  0.04450  0.02880  0.94300  1.0000 0.1000111688
H   H158      1.0  0.95550  0.47120  0.44300  1.0000 0.1000111688
H   H159      1.0  0.54450  0.97120  0.55700  1.0000 0.1000111688
H   H160      1.0  0.45550  0.52880  0.05700  1.0000 0.1000111688
H   H161      1.0  0.02640  0.22590  0.16430  1.0000 0.1099320153
H   H162      1.0  0.97360  0.27410  0.66430  1.0000 0.1099320153
H   H163      1.0  0.52640  0.77410  0.33570  1.0000 0.1099320153
H   H164      1.0  0.47360  0.72590  0.83570  1.0000 0.1099320153
H   H165      1.0  0.11880  0.18740  0.12670  1.0000 0.1379041514
H   H166      1.0  0.88120  0.31260  0.62670  1.0000 0.1379041514
H   H167      1.0  0.61880  0.81260  0.37330  1.0000 0.1379041514
H   H168      1.0  0.38120  0.68740  0.87330  1.0000 0.1379041514
H   H169      1.0  0.87250  0.15420  0.08540  1.0000 0.1319617874
H   H170      1.0  0.12750  0.34580  0.58540  1.0000 0.1319617874
H   H171      1.0  0.37250  0.84580  0.41460  1.0000 0.1319617874
H   H172      1.0  0.62750  0.65420  0.91460  1.0000 0.1319617874
H   H173      1.0  0.78690  0.18380  0.12540  1.0000 0.1099320153
H   H174      1.0  0.21310  0.31620  0.62540  1.0000 0.1099320153
H   H175      1.0  0.28690  0.81620  0.37460  1.0000 0.1099320153
H   H176      1.0  0.71310  0.68380  0.87460  1.0000 0.1099320153
H   H177      1.0  0.48180  0.03230  0.03510  1.0000 0.1099320153
H   H178      1.0  0.51820  0.46770  0.53510  1.0000 0.1099320153
H   H179      1.0  0.98180  0.96770  0.46490  1.0000 0.1099320153
H   H180      1.0  0.01820  0.53230  0.96490  1.0000 0.1099320153
H   H181      1.0  0.33060  0.06450  0.02410  1.0000 0.1319617874
H   H182      1.0  0.66940  0.43550  0.52410  1.0000 0.1319617874
H   H183      1.0  0.83060  0.93550  0.47590  1.0000 0.1319617874
H   H184      1.0  0.16940  0.56450  0.97590  1.0000 0.1319617874
H   H185      1.0  0.31370  0.11490  0.10940  1.0000 0.1319617874
H   H186      1.0  0.68630  0.38510  0.60940  1.0000 0.1319617874
H   H187      1.0  0.81370  0.88510  0.39060  1.0000 0.1319617874
H   H188      1.0  0.18630  0.61490  0.89060  1.0000 0.1319617874
H   H189      1.0  0.46880  0.08810  0.11750  1.0000 0.1158951941
H   H190      1.0  0.53120  0.41190  0.61750  1.0000 0.1158951941
H   H191      1.0  0.96880  0.91190  0.38250  1.0000 0.1158951941
H   H192      1.0  0.03120  0.58810  0.88250  1.0000 0.1158951941
C   C1        1.0  0.41320  0.08020  0.90710  1.0000 0.082298343
C   C2        1.0  0.58680  0.41980  0.40710  1.0000 0.082298343
C   C3        1.0  0.91320  0.91980  0.59290  1.0000 0.082298343
C   C4        1.0  0.08680  0.58020  0.09290  1.0000 0.082298343
C   C5        1.0  0.42220  0.12490  0.89250  1.0000 -0.1304283532
C   C6        1.0  0.57780  0.37510  0.39250  1.0000 -0.1304283532
C   C7        1.0  0.92220  0.87510  0.60750  1.0000 -0.1304283532
C   C8        1.0  0.07780  0.62490  0.10750  1.0000 -0.1304283532
C   C9        1.0  0.44490  0.12680  0.86280  1.0000 0.0492608642
C   C10       1.0  0.55510  0.37320  0.36280  1.0000 0.0492608642
C   C11       1.0  0.94490  0.87320  0.63720  1.0000 0.0492608642
C   C12       1.0  0.05510  0.62680  0.13720  1.0000 0.0492608642
C   C13       1.0  0.45260  0.08310  0.84780  1.0000 -0.1605909637
C   C14       1.0  0.54740  0.41690  0.34780  1.0000 -0.1605909637
C   C15       1.0  0.95260  0.91690  0.65220  1.0000 -0.1605909637
C   C16       1.0  0.04740  0.58310  0.15220  1.0000 -0.1605909637
C   C17       1.0  0.43630  0.04030  0.86280  1.0000 0.0898447969
C   C18       1.0  0.56370  0.45970  0.36280  1.0000 0.0898447969
C   C19       1.0  0.93630  0.95970  0.63720  1.0000 0.0898447969
C   C20       1.0  0.06370  0.54030  0.13720  1.0000 0.0898447969
C   C21       1.0  0.42560  0.39140  0.86760  1.0000 0.1099320153
C   C22       1.0  0.57440  0.10860  0.36760  1.0000 0.1099320153
C   C23       1.0  0.92560  0.60860  0.63240  1.0000 0.1099320153
C   C24       1.0  0.07440  0.89140  0.13240  1.0000 0.1099320153
C   C25       1.0  0.44710  0.34930  0.85180  1.0000 -0.1790677374
C   C26       1.0  0.55290  0.15070  0.35180  1.0000 -0.1790677374
C   C27       1.0  0.94710  0.65070  0.64820  1.0000 -0.1790677374
C   C28       1.0  0.05290  0.84930  0.14820  1.0000 -0.1790677374
C   C29       1.0  0.43840  0.30380  0.86570  1.0000 0.082298343
C   C30       1.0  0.56160  0.19620  0.36570  1.0000 0.070138271
C   C31       1.0  0.93840  0.69620  0.63430  1.0000 0.070138271
C   C32       1.0  0.06160  0.80380  0.13430  1.0000 0.070138271
C   C33       1.0  0.40710  0.30320  0.89590  1.0000 -0.171219781
C   C34       1.0  0.59290  0.19680  0.39590  1.0000 -0.171219781
C   C35       1.0  0.90710  0.69680  0.60410  1.0000 -0.171219781
C   C36       1.0  0.09290  0.80320  0.10410  1.0000 -0.171219781
C   C37       1.0  0.39250  0.34940  0.90900  1.0000 0.082298343
C   C38       1.0  0.60750  0.15060  0.40900  1.0000 0.082298343
C   C39       1.0  0.89250  0.65060  0.59100  1.0000 0.082298343
C   C40       1.0  0.10750  0.84940  0.09100  1.0000 0.082298343
C   C41       1.0  0.58940  0.18910  0.73070  1.0000 0.070138271
C   C42       1.0  0.41060  0.31090  0.23070  1.0000 0.070138271
C   C43       1.0  0.08940  0.81090  0.76930  1.0000 0.070138271
C   C44       1.0  0.91060  0.68910  0.26930  1.0000 0.070138271
C   C45       1.0  0.55170  0.18150  0.75940  1.0000 -0.1478346159
C   C46       1.0  0.44830  0.31850  0.25940  1.0000 -0.1478346159
C   C47       1.0  0.05170  0.81850  0.74060  1.0000 -0.1478346159
C   C48       1.0  0.94830  0.68150  0.24060  1.0000 -0.1446243561
C   C49       1.0  0.52080  0.22280  0.77540  1.0000 0.0492608642
C   C50       1.0  0.47920  0.27720  0.27540  1.0000 0.0492608642
C   C51       1.0  0.02080  0.77720  0.72460  1.0000 0.0492608642
C   C52       1.0  0.97920  0.72280  0.22460  1.0000 0.0492608642
C   C53       1.0  0.52910  0.26810  0.76100  1.0000 -0.1478346159
C   C54       1.0  0.47090  0.23190  0.26100  1.0000 -0.1478346159
C   C55       1.0  0.02910  0.73190  0.73900  1.0000 -0.1605909637
C   C56       1.0  0.97090  0.76810  0.23900  1.0000 -0.1605909637
C   C57       1.0  0.56410  0.27180  0.73330  1.0000 0.1000111688
C   C58       1.0  0.43590  0.22820  0.23330  1.0000 0.1000111688
C   C59       1.0  0.06410  0.72820  0.76670  1.0000 0.1000111688
C   C60       1.0  0.93590  0.77180  0.26670  1.0000 0.1000111688
C   C61       1.0  0.45610  0.17400  0.84790  1.0000 0.3705771976
C   C62       1.0  0.54390  0.32600  0.34790  1.0000 0.3705771976
C   C63       1.0  0.95610  0.82600  0.65210  1.0000 0.3705771976
C   C64       1.0  0.04390  0.67400  0.15210  1.0000 0.3705771976
C   C65       1.0  0.45540  0.25610  0.84980  1.0000 0.3705771976
C   C66       1.0  0.54460  0.24390  0.34980  1.0000 0.3705771976
C   C67       1.0  0.95540  0.74390  0.65020  1.0000 0.3705771976
C   C68       1.0  0.04460  0.75610  0.15020  1.0000 0.3705771976
C   C69       1.0  0.49330  0.21900  0.80660  1.0000 0.3705771976
C   C70       1.0  0.50670  0.28100  0.30660  1.0000 0.3705771976
C   C71       1.0  0.99330  0.78100  0.69340  1.0000 0.3705771976
C   C72       1.0  0.00670  0.71900  0.19340  1.0000 0.3705771976
C   C73       1.0  0.13420  0.93000  0.02150  1.0000 0.1000111688
C   C74       1.0  0.86580  0.57000  0.52150  1.0000 0.1000111688
C   C75       1.0  0.63420  0.07000  0.47850  1.0000 0.1000111688
C   C76       1.0  0.36580  0.43000  0.97850  1.0000 0.1000111688
C   C77       1.0  0.09280  0.91340  0.99440  1.0000 -0.1478346159
C   C78       1.0  0.90720  0.58660  0.49440  1.0000 -0.1478346159
C   C79       1.0  0.59280  0.08660  0.50560  1.0000 -0.1478346159
C   C80       1.0  0.40720  0.41340  0.00560  1.0000 -0.1478346159
C   C81       1.0  0.99370  0.92030  0.99180  1.0000 0.0492608642
C   C82       1.0  0.00630  0.57970  0.49180  1.0000 0.0492608642
C   C83       1.0  0.49370  0.07970  0.50820  1.0000 0.0492608642
C   C84       1.0  0.50630  0.42030  0.00820  1.0000 0.0492608642
C   C85       1.0  0.94030  0.94130  0.01420  1.0000 -0.1304283532
C   C86       1.0  0.05970  0.55870  0.51420  1.0000 -0.1304283532
C   C87       1.0  0.44030  0.05870  0.48580  1.0000 -0.1304283532
C   C88       1.0  0.55970  0.44130  0.98580  1.0000 -0.1304283532
C   C89       1.0  0.99040  0.95590  0.04120  1.0000 0.0633959277
C   C90       1.0  0.00960  0.54410  0.54120  1.0000 0.0633959277
C   C91       1.0  0.49040  0.04410  0.45880  1.0000 0.0633959277
C   C92       1.0  0.50960  0.45590  0.95880  1.0000 0.0633959277
C   C93       1.0  0.00600  0.79020  0.85160  1.0000 0.1099320153
C   C94       1.0  0.99400  0.70980  0.35160  1.0000 0.1099320153
C   C95       1.0  0.50600  0.20980  0.64840  1.0000 0.1099320153
C   C96       1.0  0.49400  0.29020  0.14840  1.0000 0.1099320153
C   C97       1.0  0.95000  0.81320  0.87450  1.0000 -0.1208698204
C   C98       1.0  0.05000  0.68680  0.37450  1.0000 -0.1208698204
C   C99       1.0  0.45000  0.18680  0.62550  1.0000 -0.1208698204
C   C100      1.0  0.55000  0.31320  0.12550  1.0000 -0.1208698204
C   C101      1.0  0.99360  0.83590  0.89810  1.0000 0.0405978003
C   C102      1.0  0.00640  0.66410  0.39810  1.0000 0.0405978003
C   C103      1.0  0.49360  0.16410  0.60190  1.0000 0.0405978003
C   C104      1.0  0.50640  0.33590  0.10190  1.0000 0.0405978003
C   C105      1.0  0.09300  0.83340  0.89790  1.0000 -0.1208698204
C   C106      1.0  0.90700  0.66667  0.39790  1.0000 -0.1208698204
C   C107      1.0  0.59300  0.16660  0.60210  1.0000 -0.1208698204
C   C108      1.0  0.40700  0.33340  0.10210  1.0000 -0.1208698204
C   C109      1.0  0.14440  0.81370  0.87460  1.0000 0.070138271
C   C110      1.0  0.85560  0.68630  0.37460  1.0000 0.070138271
C   C111      1.0  0.64440  0.18630  0.62540  1.0000 0.070138271
C   C112      1.0  0.35560  0.31370  0.12540  1.0000 0.070138271
C   C113      1.0  0.55220  0.94910  0.95030  1.0000 0.070138271
C   C114      1.0  0.44780  0.55090  0.45030  1.0000 0.070138271
C   C115      1.0  0.05220  0.05090  0.54970  1.0000 0.070138271
C   C116      1.0  0.94780  0.44910  0.04970  1.0000 0.070138271
C   C117      1.0  0.64370  0.93200  0.95630  1.0000 -0.1304283532
C   C118      1.0  0.35630  0.56800  0.45630  1.0000 -0.1304283532
C   C119      1.0  0.14370  0.06800  0.54370  1.0000 -0.1304283532
C   C120      1.0  0.85630  0.43200  0.04370  1.0000 -0.1304283532
C   C121      1.0  0.70090  0.90890  0.93380  1.0000 0.0633959277
C   C122      1.0  0.29910  0.59110  0.43380  1.0000 0.0633959277
C   C123      1.0  0.20090  0.09110  0.56620  1.0000 0.0633959277
C   C124      1.0  0.79910  0.40890  0.06620  1.0000 0.0633959277
C   C125      1.0  0.65290  0.90150  0.90620  1.0000 -0.1304283532
C   C126      1.0  0.34710  0.59850  0.40620  1.0000 -0.1304283532
C   C127      1.0  0.15290  0.09850  0.59380  1.0000 -0.1304283532
C   C128      1.0  0.84710  0.40150  0.09380  1.0000 -0.1304283532
C   C129      1.0  0.56040  0.91700  0.90140  1.0000 0.082298343
C   C130      1.0  0.43960  0.58300  0.40140  1.0000 0.082298343
C   C131      1.0  0.06040  0.08300  0.59860  1.0000 0.082298343
C   C132      1.0  0.93960  0.41700  0.09860  1.0000 0.082298343
C   C133      1.0  0.94010  0.90220  0.96580  1.0000 0.3802230973
C   C134      1.0  0.05990  0.59780  0.46580  1.0000 0.3802230973
C   C135      1.0  0.44010  0.09780  0.53420  1.0000 0.3802230973
C   C136      1.0  0.55990  0.40220  0.03420  1.0000 0.3802230973
C   C137      1.0  0.94020  0.86020  0.92140  1.0000 0.36301874
C   C138      1.0  0.05980  0.63980  0.42140  1.0000 0.36301874
C   C139      1.0  0.44020  0.13980  0.57860  1.0000 0.36301874
C   C140      1.0  0.55980  0.36020  0.07860  1.0000 0.36301874
C   C141      1.0  0.80390  0.89520  0.93830  1.0000 0.3802230973
C   C142      1.0  0.19610  0.60480  0.43830  1.0000 0.3802230973
C   C143      1.0  0.30390  0.10480  0.56170  1.0000 0.3802230973
C   C144      1.0  0.69610  0.39520  0.06170  1.0000 0.3802230973
C   C145      1.0  0.58680  0.91980  0.09290  1.0000 0.082298343
C   C146      1.0  0.41320  0.58020  0.59290  1.0000 0.082298343
C   C147      1.0  0.08680  0.08020  0.40710  1.0000 0.082298343
C   C148      1.0  0.91320  0.41980  0.90710  1.0000 0.082298343
C   C149      1.0  0.57780  0.87510  0.10750  1.0000 -0.1304283532
C   C150      1.0  0.42220  0.62490  0.60750  1.0000 -0.1304283532
C   C151      1.0  0.07780  0.12490  0.39250  1.0000 -0.1304283532
C   C152      1.0  0.92220  0.37510  0.89250  1.0000 -0.1304283532
C   C153      1.0  0.55510  0.87320  0.13720  1.0000 0.0492608642
C   C154      1.0  0.44490  0.62680  0.63720  1.0000 0.0492608642
C   C155      1.0  0.05510  0.12680  0.36280  1.0000 0.0492608642
C   C156      1.0  0.94490  0.37320  0.86280  1.0000 0.0492608642
C   C157      1.0  0.54740  0.91690  0.15220  1.0000 -0.1605909637
C   C158      1.0  0.45260  0.58310  0.65220  1.0000 -0.1605909637
C   C159      1.0  0.04740  0.08310  0.34780  1.0000 -0.1605909637
C   C160      1.0  0.95260  0.41690  0.84780  1.0000 -0.1605909637
C   C161      1.0  0.56370  0.95970  0.13720  1.0000 0.0898447969
C   C162      1.0  0.43630  0.54030  0.63720  1.0000 0.0898447969
C   C163      1.0  0.06370  0.04030  0.36280  1.0000 0.0898447969
C   C164      1.0  0.93630  0.45970  0.86280  1.0000 0.0898447969
C   C165      1.0  0.57440  0.60860  0.13240  1.0000 0.1099320153
C   C166      1.0  0.42560  0.89140  0.63240  1.0000 0.1099320153
C   C167      1.0  0.07440  0.39140  0.36760  1.0000 0.1099320153
C   C168      1.0  0.92560  0.10860  0.86760  1.0000 0.1099320153
C   C169      1.0  0.55290  0.65070  0.14820  1.0000 -0.1790677374
C   C170      1.0  0.44710  0.84930  0.64820  1.0000 -0.1790677374
C   C171      1.0  0.05290  0.34930  0.35180  1.0000 -0.1790677374
C   C172      1.0  0.94710  0.15070  0.85180  1.0000 -0.1790677374
C   C173      1.0  0.56160  0.69620  0.13430  1.0000 0.070138271
C   C174      1.0  0.43840  0.80380  0.63430  1.0000 0.070138271
C   C175      1.0  0.06160  0.30380  0.36570  1.0000 0.070138271
C   C176      1.0  0.93840  0.19620  0.86570  1.0000 0.082298343
C   C177      1.0  0.59290  0.69680  0.10410  1.0000 -0.171219781
C   C178      1.0  0.40710  0.80320  0.60410  1.0000 -0.171219781
C   C179      1.0  0.09290  0.30320  0.39590  1.0000 -0.171219781
C   C180      1.0  0.90710  0.19680  0.89590  1.0000 -0.171219781
C   C181      1.0  0.60750  0.65060  0.09100  1.0000 0.082298343
C   C182      1.0  0.39250  0.84940  0.59100  1.0000 0.082298343
C   C183      1.0  0.10750  0.34940  0.40900  1.0000 0.082298343
C   C184      1.0  0.89250  0.15060  0.90900  1.0000 0.082298343
C   C185      1.0  0.41060  0.81090  0.26930  1.0000 0.070138271
C   C186      1.0  0.58940  0.68910  0.76930  1.0000 0.070138271
C   C187      1.0  0.91060  0.18910  0.23070  1.0000 0.070138271
C   C188      1.0  0.08940  0.31090  0.73070  1.0000 0.070138271
C   C189      1.0  0.44830  0.81850  0.24060  1.0000 -0.1478346159
C   C190      1.0  0.55170  0.68150  0.74060  1.0000 -0.1478346159
C   C191      1.0  0.94830  0.18150  0.25940  1.0000 -0.1446243561
C   C192      1.0  0.05170  0.31850  0.75940  1.0000 -0.1478346159
C   C193      1.0  0.47920  0.77720  0.22460  1.0000 0.0492608642
C   C194      1.0  0.52080  0.72280  0.72460  1.0000 0.0492608642
C   C195      1.0  0.97920  0.22280  0.27540  1.0000 0.0492608642
C   C196      1.0  0.02080  0.27720  0.77540  1.0000 0.0492608642
C   C197      1.0  0.47090  0.73190  0.23900  1.0000 -0.1478346159
C   C198      1.0  0.52910  0.76810  0.73900  1.0000 -0.1605909637
C   C199      1.0  0.97090  0.26810  0.26100  1.0000 -0.1478346159
C   C200      1.0  0.02910  0.23190  0.76100  1.0000 -0.1605909637
C   C201      1.0  0.43590  0.72820  0.26670  1.0000 0.1000111688
C   C202      1.0  0.56410  0.77180  0.76670  1.0000 0.1000111688
C   C203      1.0  0.93590  0.27180  0.23330  1.0000 0.1000111688
C   C204      1.0  0.06410  0.22820  0.73330  1.0000 0.1000111688
C   C205      1.0  0.54390  0.82600  0.15210  1.0000 0.3705771976
C   C206      1.0  0.45610  0.67400  0.65210  1.0000 0.3705771976
C   C207      1.0  0.04390  0.17400  0.34790  1.0000 0.3705771976
C   C208      1.0  0.95610  0.32600  0.84790  1.0000 0.3705771976
C   C209      1.0  0.54460  0.74390  0.15020  1.0000 0.3705771976
C   C210      1.0  0.45540  0.75610  0.65020  1.0000 0.3705771976
C   C211      1.0  0.04460  0.25610  0.34980  1.0000 0.3705771976
C   C212      1.0  0.95540  0.24390  0.84980  1.0000 0.3705771976
C   C213      1.0  0.50670  0.78100  0.19340  1.0000 0.3705771976
C   C214      1.0  0.49330  0.71900  0.69340  1.0000 0.3705771976
C   C215      1.0  0.00670  0.21900  0.30660  1.0000 0.3705771976
C   C216      1.0  0.99330  0.28100  0.80660  1.0000 0.3705771976
C   C217      1.0  0.86580  0.07000  0.97850  1.0000 0.1000111688
C   C218      1.0  0.13420  0.43000  0.47850  1.0000 0.1000111688
C   C219      1.0  0.36580  0.93000  0.52150  1.0000 0.1000111688
C   C220      1.0  0.63420  0.57000  0.02150  1.0000 0.1000111688
C   C221      1.0  0.90720  0.08660  0.00560  1.0000 -0.1478346159
C   C222      1.0  0.09280  0.41340  0.50560  1.0000 -0.1478346159
C   C223      1.0  0.40720  0.91340  0.49440  1.0000 -0.1478346159
C   C224      1.0  0.59280  0.58660  0.99440  1.0000 -0.1478346159
C   C225      1.0  0.00630  0.07970  0.00820  1.0000 0.0492608642
C   C226      1.0  0.99370  0.42030  0.50820  1.0000 0.0492608642
C   C227      1.0  0.50630  0.92030  0.49180  1.0000 0.0492608642
C   C228      1.0  0.49370  0.57970  0.99180  1.0000 0.0492608642
C   C229      1.0  0.05970  0.05870  0.98580  1.0000 -0.1304283532
C   C230      1.0  0.94030  0.44130  0.48580  1.0000 -0.1304283532
C   C231      1.0  0.55970  0.94130  0.51420  1.0000 -0.1304283532
C   C232      1.0  0.44030  0.55870  0.01420  1.0000 -0.1304283532
C   C233      1.0  0.00960  0.04410  0.95880  1.0000 0.0633959277
C   C234      1.0  0.99040  0.45590  0.45880  1.0000 0.0633959277
C   C235      1.0  0.50960  0.95590  0.54120  1.0000 0.0633959277
C   C236      1.0  0.49040  0.54410  0.04120  1.0000 0.0633959277
C   C237      1.0  0.99400  0.20980  0.14840  1.0000 0.1099320153
C   C238      1.0  0.00600  0.29020  0.64840  1.0000 0.1099320153
C   C239      1.0  0.49400  0.79020  0.35160  1.0000 0.1099320153
C   C240      1.0  0.50600  0.70980  0.85160  1.0000 0.1099320153
C   C241      1.0  0.05000  0.18680  0.12550  1.0000 -0.1208698204
C   C242      1.0  0.95000  0.31320  0.62550  1.0000 -0.1208698204
C   C243      1.0  0.55000  0.81320  0.37450  1.0000 -0.1208698204
C   C244      1.0  0.45000  0.68680  0.87450  1.0000 -0.1208698204
C   C245      1.0  0.00640  0.16410  0.10190  1.0000 0.0405978003
C   C246      1.0  0.99360  0.33590  0.60190  1.0000 0.0405978003
C   C247      1.0  0.50640  0.83590  0.39810  1.0000 0.0405978003
C   C248      1.0  0.49360  0.66410  0.89810  1.0000 0.0405978003
C   C249      1.0  0.90700  0.16660  0.10210  1.0000 -0.1208698204
C   C250      1.0  0.09300  0.33340  0.60210  1.0000 -0.1208698204
C   C251      1.0  0.40700  0.83340  0.39790  1.0000 -0.1208698204
C   C252      1.0  0.59300  0.66667  0.89790  1.0000 -0.1208698204
C   C253      1.0  0.85560  0.18630  0.12540  1.0000 0.070138271
C   C254      1.0  0.14440  0.31370  0.62540  1.0000 0.070138271
C   C255      1.0  0.35560  0.81370  0.37460  1.0000 0.070138271
C   C256      1.0  0.64440  0.68630  0.87460  1.0000 0.070138271
C   C257      1.0  0.44780  0.05090  0.04970  1.0000 0.070138271
C   C258      1.0  0.55220  0.44910  0.54970  1.0000 0.070138271
C   C259      1.0  0.94780  0.94910  0.45030  1.0000 0.070138271
C   C260      1.0  0.05220  0.55090  0.95030  1.0000 0.070138271
C   C261      1.0  0.35630  0.06800  0.04370  1.0000 -0.1304283532
C   C262      1.0  0.64370  0.43200  0.54370  1.0000 -0.1304283532
C   C263      1.0  0.85630  0.93200  0.45630  1.0000 -0.1304283532
C   C264      1.0  0.14370  0.56800  0.95630  1.0000 -0.1304283532
C   C265      1.0  0.29910  0.09110  0.06620  1.0000 0.0633959277
C   C266      1.0  0.70090  0.40890  0.56620  1.0000 0.0633959277
C   C267      1.0  0.79910  0.90890  0.43380  1.0000 0.0633959277
C   C268      1.0  0.20090  0.59110  0.93380  1.0000 0.0633959277
C   C269      1.0  0.34710  0.09850  0.09380  1.0000 -0.1304283532
C   C270      1.0  0.65290  0.40150  0.59380  1.0000 -0.1304283532
C   C271      1.0  0.84710  0.90150  0.40620  1.0000 -0.1304283532
C   C272      1.0  0.15290  0.59850  0.90620  1.0000 -0.1304283532
C   C273      1.0  0.43960  0.08300  0.09860  1.0000 0.082298343
C   C274      1.0  0.56040  0.41700  0.59860  1.0000 0.082298343
C   C275      1.0  0.93960  0.91700  0.40140  1.0000 0.082298343
C   C276      1.0  0.06040  0.58300  0.90140  1.0000 0.082298343
C   C277      1.0  0.05990  0.09780  0.03420  1.0000 0.3802230973
C   C278      1.0  0.94010  0.40220  0.53420  1.0000 0.3802230973
C   C279      1.0  0.55990  0.90220  0.46580  1.0000 0.3802230973
C   C280      1.0  0.44010  0.59780  0.96580  1.0000 0.3802230973
C   C281      1.0  0.05980  0.13980  0.07860  1.0000 0.36301874
C   C282      1.0  0.94020  0.36020  0.57860  1.0000 0.36301874
C   C283      1.0  0.55980  0.86020  0.42140  1.0000 0.36301874
C   C284      1.0  0.44020  0.63980  0.92140  1.0000 0.36301874
C   C285      1.0  0.19610  0.10480  0.06170  1.0000 0.3802230973
C   C286      1.0  0.80390  0.39520  0.56170  1.0000 0.3802230973
C   C287      1.0  0.69610  0.89520  0.43830  1.0000 0.3802230973
C   C288      1.0  0.30390  0.60480  0.93830  1.0000 0.3802230973
I   I1        1.0  0.29932  0.99354  0.96301  1.0000 -0.4692643545
I   I2        1.0  0.70068  0.50646  0.46301  1.0000 -0.4692643545
I   I3        1.0  0.79932  0.00646  0.53699  1.0000 -0.4692643545
I   I4        1.0  0.20068  0.49354  0.03699  1.0000 -0.4692643545
I   I5        1.0  0.29738  0.92220  0.87320  1.0000 -0.4283234609
I   I6        1.0  0.70262  0.57780  0.37320  1.0000 -0.4283234609
I   I7        1.0  0.79738  0.07780  0.62680  1.0000 -0.4283234609
I   I8        1.0  0.20262  0.42220  0.12680  1.0000 -0.4283234609
I   I9        1.0  0.44071  0.52350  0.88603  1.0000 -0.4179255129
I   I10       1.0  0.55929  0.97650  0.38603  1.0000 -0.4179255129
I   I11       1.0  0.94071  0.47650  0.61397  1.0000 -0.4283234609
I   I12       1.0  0.05929  0.02350  0.11397  1.0000 -0.4283234609
I   I13       1.0  0.17024  0.44274  0.91983  1.0000 -0.4498460479
I   I14       1.0  0.82976  0.05726  0.41983  1.0000 -0.4498460479
I   I15       1.0  0.67024  0.55726  0.58017  1.0000 -0.4498460479
I   I16       1.0  0.32976  0.94274  0.08017  1.0000 -0.4498460479
I   I17       1.0  0.83529  0.19625  0.68945  1.0000 -0.444407992
I   I18       1.0  0.16471  0.30375  0.18945  1.0000 -0.444407992
I   I19       1.0  0.33529  0.80375  0.81055  1.0000 -0.444407992
I   I20       1.0  0.66471  0.69625  0.31055  1.0000 -0.444407992
I   I21       1.0  0.69078  0.33578  0.66952  1.0000 -0.4498460479
I   I22       1.0  0.30922  0.16422  0.16952  1.0000 -0.4498460479
I   I23       1.0  0.19078  0.66422  0.83048  1.0000 -0.4498460479
I   I24       1.0  0.80922  0.83578  0.33048  1.0000 -0.4498460479
I   I25       1.0  0.70068  0.00646  0.03699  1.0000 -0.4692643545
I   I26       1.0  0.29932  0.49354  0.53699  1.0000 -0.4692643545
I   I27       1.0  0.20068  0.99354  0.46301  1.0000 -0.4692643545
I   I28       1.0  0.79932  0.50646  0.96301  1.0000 -0.4692643545
I   I29       1.0  0.70262  0.07780  0.12680  1.0000 -0.4283234609
I   I30       1.0  0.29738  0.42220  0.62680  1.0000 -0.4283234609
I   I31       1.0  0.20262  0.92220  0.37320  1.0000 -0.4283234609
I   I32       1.0  0.79738  0.57780  0.87320  1.0000 -0.4283234609
I   I33       1.0  0.55929  0.47650  0.11397  1.0000 -0.4283234609
I   I34       1.0  0.44071  0.02350  0.61397  1.0000 -0.4179255129
I   I35       1.0  0.05929  0.52350  0.38603  1.0000 -0.4179255129
I   I36       1.0  0.94071  0.97650  0.88603  1.0000 -0.4179255129
I   I37       1.0  0.82976  0.55726  0.08017  1.0000 -0.4498460479
I   I38       1.0  0.17024  0.94274  0.58017  1.0000 -0.4498460479
I   I39       1.0  0.32976  0.44274  0.41983  1.0000 -0.4498460479
I   I40       1.0  0.67024  0.05726  0.91983  1.0000 -0.4498460479
I   I41       1.0  0.16471  0.80375  0.31055  1.0000 -0.444407992
I   I42       1.0  0.83529  0.69625  0.81055  1.0000 -0.444407992
I   I43       1.0  0.66471  0.19625  0.18945  1.0000 -0.444407992
I   I44       1.0  0.33529  0.30375  0.68945  1.0000 -0.444407992
I   I45       1.0  0.30922  0.66422  0.33048  1.0000 -0.4498460479
I   I46       1.0  0.69078  0.83578  0.83048  1.0000 -0.4498460479
I   I47       1.0  0.80922  0.33578  0.16952  1.0000 -0.4498460479
I   I48       1.0  0.19078  0.16422  0.66952  1.0000 -0.4498460479
N   N1        1.0  0.41390  0.03730  0.89180  1.0000 -0.1790677374
N   N2        1.0  0.58610  0.46270  0.39180  1.0000 -0.1790677374
N   N3        1.0  0.91390  0.96270  0.60820  1.0000 -0.1790677374
N   N4        1.0  0.08610  0.53730  0.10820  1.0000 -0.1790677374
N   N5        1.0  0.39860  0.39120  0.89480  1.0000 -0.187566353
N   N6        1.0  0.60140  0.10880  0.39480  1.0000 -0.187566353
N   N7        1.0  0.89860  0.60880  0.60520  1.0000 -0.187566353
N   N8        1.0  0.10140  0.89120  0.10520  1.0000 -0.187566353
N   N9        1.0  0.59700  0.23490  0.71770  1.0000 -0.187566353
N   N10       1.0  0.40300  0.26510  0.21770  1.0000 -0.187566353
N   N11       1.0  0.09700  0.76510  0.78230  1.0000 -0.187566353
N   N12       1.0  0.90300  0.73490  0.28230  1.0000 -0.187566353
N   N13       1.0  0.44250  0.21500  0.86390  1.0000 -0.4071555903
N   N14       1.0  0.55750  0.28500  0.36390  1.0000 -0.4071555903
N   N15       1.0  0.94250  0.78500  0.63610  1.0000 -0.4071555903
N   N16       1.0  0.05750  0.71500  0.13610  1.0000 -0.4071555903
N   N17       1.0  0.47840  0.26090  0.82063  1.0000 -0.4179255129
N   N18       1.0  0.52160  0.23910  0.32063  1.0000 -0.4179255129
N   N19       1.0  0.97840  0.73910  0.67937  1.0000 -0.4071555903
N   N20       1.0  0.02160  0.76090  0.17937  1.0000 -0.4179255129
N   N21       1.0  0.48400  0.17440  0.81860  1.0000 -0.4179255129
N   N22       1.0  0.51600  0.32560  0.31860  1.0000 -0.4179255129
N   N23       1.0  0.98400  0.82560  0.68140  1.0000 -0.4179255129
N   N24       1.0  0.01600  0.67440  0.18140  1.0000 -0.4179255129
N   N25       1.0  0.08720  0.94780  0.04400  1.0000 -0.1965382136
N   N26       1.0  0.91280  0.55220  0.54400  1.0000 -0.1965382136
N   N27       1.0  0.58720  0.05220  0.45600  1.0000 -0.1965382136
N   N28       1.0  0.41280  0.44780  0.95600  1.0000 -0.1965382136
N   N29       1.0  0.09940  0.79090  0.85190  1.0000 -0.171219781
N   N30       1.0  0.90060  0.70910  0.35190  1.0000 -0.171219781
N   N31       1.0  0.59940  0.20910  0.64810  1.0000 -0.171219781
N   N32       1.0  0.40060  0.29090  0.14810  1.0000 -0.171219781
N   N33       1.0  0.50970  0.93950  0.92320  1.0000 -0.1605909637
N   N34       1.0  0.49030  0.56050  0.42320  1.0000 -0.1605909637
N   N35       1.0  0.00970  0.06050  0.57680  1.0000 -0.1605909637
N   N36       1.0  0.99030  0.43950  0.07680  1.0000 -0.1605909637
N   N37       1.0  0.99390  0.87750  0.94510  1.0000 -0.4071555903
N   N38       1.0  0.00610  0.62250  0.44510  1.0000 -0.4071555903
N   N39       1.0  0.49390  0.12250  0.55490  1.0000 -0.4071555903
N   N40       1.0  0.50610  0.37750  0.05490  1.0000 -0.4071555903
N   N41       1.0  0.84530  0.86770  0.91760  1.0000 -0.3758698738
N   N42       1.0  0.15470  0.63230  0.41760  1.0000 -0.3758698738
N   N43       1.0  0.34530  0.13230  0.58240  1.0000 -0.3758698738
N   N44       1.0  0.65470  0.36770  0.08240  1.0000 -0.3758698738
N   N45       1.0  0.84530  0.91340  0.96250  1.0000 -0.3900240919
N   N46       1.0  0.15470  0.58660  0.46250  1.0000 -0.3900240919
N   N47       1.0  0.34530  0.08660  0.53750  1.0000 -0.3900240919
N   N48       1.0  0.65470  0.41340  0.03750  1.0000 -0.3900240919
N   N49       1.0  0.58610  0.96270  0.10820  1.0000 -0.1790677374
N   N50       1.0  0.41390  0.53730  0.60820  1.0000 -0.1790677374
N   N51       1.0  0.08610  0.03730  0.39180  1.0000 -0.1790677374
N   N52       1.0  0.91390  0.46270  0.89180  1.0000 -0.1790677374
N   N53       1.0  0.60140  0.60880  0.10520  1.0000 -0.187566353
N   N54       1.0  0.39860  0.89120  0.60520  1.0000 -0.187566353
N   N55       1.0  0.10140  0.39120  0.39480  1.0000 -0.187566353
N   N56       1.0  0.89860  0.10880  0.89480  1.0000 -0.187566353
N   N57       1.0  0.40300  0.76510  0.28230  1.0000 -0.187566353
N   N58       1.0  0.59700  0.73490  0.78230  1.0000 -0.187566353
N   N59       1.0  0.90300  0.23490  0.21770  1.0000 -0.187566353
N   N60       1.0  0.09700  0.26510  0.71770  1.0000 -0.187566353
N   N61       1.0  0.55750  0.78500  0.13610  1.0000 -0.4071555903
N   N62       1.0  0.44250  0.71500  0.63610  1.0000 -0.4071555903
N   N63       1.0  0.05750  0.21500  0.36390  1.0000 -0.4071555903
N   N64       1.0  0.94250  0.28500  0.86390  1.0000 -0.4071555903
N   N65       1.0  0.52160  0.73910  0.17937  1.0000 -0.4179255129
N   N66       1.0  0.47840  0.76090  0.67937  1.0000 -0.4179255129
N   N67       1.0  0.02160  0.26090  0.32063  1.0000 -0.4179255129
N   N68       1.0  0.97840  0.23910  0.82063  1.0000 -0.4071555903
N   N69       1.0  0.51600  0.82560  0.18140  1.0000 -0.4179255129
N   N70       1.0  0.48400  0.67440  0.68140  1.0000 -0.4179255129
N   N71       1.0  0.01600  0.17440  0.31860  1.0000 -0.4179255129
N   N72       1.0  0.98400  0.32560  0.81860  1.0000 -0.4179255129
N   N73       1.0  0.91280  0.05220  0.95600  1.0000 -0.1965382136
N   N74       1.0  0.08720  0.44780  0.45600  1.0000 -0.1965382136
N   N75       1.0  0.41280  0.94780  0.54400  1.0000 -0.1965382136
N   N76       1.0  0.58720  0.55220  0.04400  1.0000 -0.1965382136
N   N77       1.0  0.90060  0.20910  0.14810  1.0000 -0.171219781
N   N78       1.0  0.09940  0.29090  0.64810  1.0000 -0.171219781
N   N79       1.0  0.40060  0.79090  0.35190  1.0000 -0.171219781
N   N80       1.0  0.59940  0.70910  0.85190  1.0000 -0.171219781
N   N81       1.0  0.49030  0.06050  0.07680  1.0000 -0.1605909637
N   N82       1.0  0.50970  0.43950  0.57680  1.0000 -0.1605909637
N   N83       1.0  0.99030  0.93950  0.42320  1.0000 -0.1605909637
N   N84       1.0  0.00970  0.56050  0.92320  1.0000 -0.1605909637
N   N85       1.0  0.00610  0.12250  0.05490  1.0000 -0.4071555903
N   N86       1.0  0.99390  0.37750  0.55490  1.0000 -0.4071555903
N   N87       1.0  0.50610  0.87750  0.44510  1.0000 -0.4071555903
N   N88       1.0  0.49390  0.62250  0.94510  1.0000 -0.4071555903
N   N89       1.0  0.15470  0.13230  0.08240  1.0000 -0.3758698738
N   N90       1.0  0.84530  0.36770  0.58240  1.0000 -0.3758698738
N   N91       1.0  0.65470  0.86770  0.41760  1.0000 -0.3758698738
N   N92       1.0  0.34530  0.63230  0.91760  1.0000 -0.3758698738
N   N93       1.0  0.15470  0.08660  0.03750  1.0000 -0.3900240919
N   N94       1.0  0.84530  0.41340  0.53750  1.0000 -0.3900240919
N   N95       1.0  0.65470  0.91340  0.46250  1.0000 -0.3900240919
N   N96       1.0  0.34530  0.58660  0.96250  1.0000 -0.3900240919
