# DDEC6 charges by PACMAN v1.1 (https://github.com/mtap-research/PACMAN-charge/)
data_2011[Cr][bpq]3[ASR]2
_chemical_formula_sum              "Cr4 H20 C32 O20"
_cell_length_a       14.8731
_cell_length_b       6.8365
_cell_length_c       15.2449
_cell_angle_alpha    90
_cell_angle_beta     90
_cell_angle_gamma    90

_symmetry_space_group_name_H-M    "P 1"
_symmetry_Int_Tables_number       1

loop_
  _symmetry_equiv_pos_as_xyz
  'x, y, z'

loop_
  _atom_site_type_symbol
  _atom_site_label
  _atom_site_symmetry_multiplicity
  _atom_site_fract_x
  _atom_site_fract_y
  _atom_site_fract_z
  _atom_site_occupancy
  _atom_site_charge
Cr  Cr1       1.0  0.00000  0.50000  0.50000  1.0000 1.5407676126
Cr  Cr2       1.0  0.50000  0.00000  0.00000  1.0000 1.5407676126
Cr  Cr3       1.0  0.00000  0.00000  0.50000  1.0000 1.5407676126
Cr  Cr4       1.0  0.50000  0.50000  0.00000  1.0000 1.5407676126
H   H1        1.0  0.19680  0.45230  0.69300  1.0000 0.1174861069
H   H2        1.0  0.50000  0.75000  0.11710  1.0000 0.41910437
H   H3        1.0  0.69680  0.95230  0.19300  1.0000 0.1174861069
H   H4        1.0  0.80320  0.04770  0.69300  1.0000 0.1174861069
H   H5        1.0  0.30320  0.54770  0.19300  1.0000 0.1174861069
H   H6        1.0  0.00000  0.25000  0.61710  1.0000 0.41910437
H   H7        1.0  0.80320  0.95230  0.30700  1.0000 0.1174861069
H   H8        1.0  0.50000  0.25000  0.88290  1.0000 0.41910437
H   H9        1.0  0.30320  0.45230  0.80700  1.0000 0.1174861069
H   H10       1.0  0.00000  0.75000  0.38290  1.0000 0.41910437
H   H11       1.0  0.19680  0.54770  0.30700  1.0000 0.1174861069
H   H12       1.0  0.69680  0.04770  0.80700  1.0000 0.1174861069
H   H13       1.0  0.80320  0.54770  0.30700  1.0000 0.1174861069
H   H14       1.0  0.30320  0.04770  0.80700  1.0000 0.1174861069
H   H15       1.0  0.19680  0.95230  0.30700  1.0000 0.1174861069
H   H16       1.0  0.69680  0.45230  0.80700  1.0000 0.1174861069
H   H17       1.0  0.19680  0.04770  0.69300  1.0000 0.1174861069
H   H18       1.0  0.69680  0.54770  0.19300  1.0000 0.1174861069
H   H19       1.0  0.80320  0.45230  0.69300  1.0000 0.1174861069
H   H20       1.0  0.30320  0.95230  0.19300  1.0000 0.1174861069
C   C1        1.0  0.21900  0.57650  0.71680  1.0000 -0.1090413809
C   C2        1.0  0.71900  0.07650  0.21680  1.0000 -0.1090413809
C   C3        1.0  0.78100  0.92350  0.71680  1.0000 -0.1090413809
C   C4        1.0  0.28100  0.42350  0.21680  1.0000 -0.1090413809
C   C5        1.0  0.78100  0.07650  0.28320  1.0000 -0.1090413809
C   C6        1.0  0.28100  0.57650  0.78320  1.0000 -0.1090413809
C   C7        1.0  0.21900  0.42350  0.28320  1.0000 -0.1090413809
C   C8        1.0  0.71900  0.92350  0.78320  1.0000 -0.1090413809
C   C9        1.0  0.78100  0.42350  0.28320  1.0000 -0.1090413809
C   C10       1.0  0.28100  0.92350  0.78320  1.0000 -0.1090413809
C   C11       1.0  0.21900  0.07650  0.28320  1.0000 -0.1090413809
C   C12       1.0  0.71900  0.57650  0.78320  1.0000 -0.1090413809
C   C13       1.0  0.21900  0.92350  0.71680  1.0000 -0.1090413809
C   C14       1.0  0.71900  0.42350  0.21680  1.0000 -0.1090413809
C   C15       1.0  0.78100  0.57650  0.71680  1.0000 -0.1090413809
C   C16       1.0  0.28100  0.07650  0.21680  1.0000 -0.1090413809
C   C17       1.0  0.18790  0.75000  0.68360  1.0000 -0.0371196226
C   C18       1.0  0.12130  0.75000  0.61230  1.0000 0.6094576593
C   C19       1.0  0.68790  0.25000  0.18360  1.0000 -0.0371196226
C   C20       1.0  0.62130  0.25000  0.11230  1.0000 0.6094576593
C   C21       1.0  0.81210  0.75000  0.68360  1.0000 -0.0371196226
C   C22       1.0  0.87870  0.75000  0.61230  1.0000 0.6094576593
C   C23       1.0  0.31210  0.25000  0.18360  1.0000 -0.0371196226
C   C24       1.0  0.37870  0.25000  0.11230  1.0000 0.6094576593
C   C25       1.0  0.81210  0.25000  0.31640  1.0000 -0.0371196226
C   C26       1.0  0.87870  0.25000  0.38770  1.0000 0.6094576593
C   C27       1.0  0.31210  0.75000  0.81640  1.0000 -0.0371196226
C   C28       1.0  0.37870  0.75000  0.88770  1.0000 0.6094576593
C   C29       1.0  0.18790  0.25000  0.31640  1.0000 -0.0371196226
C   C30       1.0  0.12130  0.25000  0.38770  1.0000 0.6094576593
C   C31       1.0  0.68790  0.75000  0.81640  1.0000 -0.0371196226
C   C32       1.0  0.62130  0.75000  0.88770  1.0000 0.6094576593
O   O1        1.0  0.09300  0.59180  0.58210  1.0000 -0.5609522362
O   O2        1.0  0.59300  0.09180  0.08210  1.0000 -0.5609522362
O   O3        1.0  0.90700  0.90820  0.58210  1.0000 -0.5609522362
O   O4        1.0  0.40700  0.40820  0.08210  1.0000 -0.5609522362
O   O5        1.0  0.90700  0.09180  0.41790  1.0000 -0.5609522362
O   O6        1.0  0.40700  0.59180  0.91790  1.0000 -0.5609522362
O   O7        1.0  0.09300  0.40820  0.41790  1.0000 -0.5609522362
O   O8        1.0  0.59300  0.90820  0.91790  1.0000 -0.5609522362
O   O9        1.0  0.90700  0.40820  0.41790  1.0000 -0.5609522362
O   O10       1.0  0.40700  0.90820  0.91790  1.0000 -0.5609522362
O   O11       1.0  0.09300  0.09180  0.41790  1.0000 -0.5609522362
O   O12       1.0  0.59300  0.59180  0.91790  1.0000 -0.5609522362
O   O13       1.0  0.09300  0.90820  0.58210  1.0000 -0.5609522362
O   O14       1.0  0.59300  0.40820  0.08210  1.0000 -0.5609522362
O   O15       1.0  0.90700  0.59180  0.58210  1.0000 -0.5609522362
O   O16       1.0  0.40700  0.09180  0.08210  1.0000 -0.5609522362
O   O17       1.0  0.00000  0.75000  0.44850  1.0000 -0.8952295457
O   O18       1.0  0.50000  0.25000  0.94850  1.0000 -0.8938064847
O   O19       1.0  0.00000  0.25000  0.55150  1.0000 -0.8952295457
O   O20       1.0  0.50000  0.75000  0.05150  1.0000 -0.8938064847
