# DDEC6 charges by PACMAN v1.1 (https://github.com/mtap-research/PACMAN-charge/)
data_2011[ZnNd][nan]3[ASR]1
_chemical_formula_sum              "Nd4 Zn4 H20 C52 N8 O32"
_cell_length_a       10.1806
_cell_length_b       9.5903
_cell_length_c       20.5841
_cell_angle_alpha    90
_cell_angle_beta     106.075
_cell_angle_gamma    90

_symmetry_space_group_name_H-M    "P 1"
_symmetry_Int_Tables_number       1

loop_
  _symmetry_equiv_pos_as_xyz
  'x, y, z'

loop_
  _atom_site_type_symbol
  _atom_site_label
  _atom_site_symmetry_multiplicity
  _atom_site_fract_x
  _atom_site_fract_y
  _atom_site_fract_z
  _atom_site_occupancy
  _atom_site_charge
Nd  Nd1       1.0  0.97086  0.43038  0.20201  1.0000 2.1239081782
Nd  Nd2       1.0  0.02914  0.93038  0.29799  1.0000 2.1239081782
Nd  Nd3       1.0  0.02914  0.56962  0.79799  1.0000 2.1239081782
Nd  Nd4       1.0  0.97086  0.06962  0.70201  1.0000 2.1239081782
Zn  Zn1       1.0  0.63757  0.86146  0.33658  1.0000 0.792081551
Zn  Zn2       1.0  0.36243  0.36146  0.16342  1.0000 0.792081551
Zn  Zn3       1.0  0.36243  0.13854  0.66342  1.0000 0.792081551
Zn  Zn4       1.0  0.63757  0.63854  0.83658  1.0000 0.792081551
H   H1        1.0  0.78820  0.00620  0.84740  1.0000 0.1070718591
H   H2        1.0  0.21180  0.50620  0.65260  1.0000 0.1070718591
H   H3        1.0  0.21180  0.99380  0.15260  1.0000 0.1070718591
H   H4        1.0  0.78820  0.49380  0.34740  1.0000 0.1070718591
H   H5        1.0  0.76490  0.90020  0.94410  1.0000 0.1189101264
H   H6        1.0  0.23510  0.40020  0.55590  1.0000 0.1189101264
H   H7        1.0  0.23510  0.09980  0.05590  1.0000 0.1189101264
H   H8        1.0  0.76490  0.59980  0.44410  1.0000 0.1189101264
H   H9        1.0  0.82410  0.01970  0.04550  1.0000 0.1189101264
H   H10       1.0  0.17590  0.51970  0.45450  1.0000 0.1189101264
H   H11       1.0  0.17590  0.98030  0.95450  1.0000 0.1189101264
H   H12       1.0  0.82410  0.48030  0.54550  1.0000 0.1189101264
H   H13       1.0  0.93520  0.34970  0.95320  1.0000 0.1369659466
H   H14       1.0  0.06480  0.84970  0.54680  1.0000 0.1369659466
H   H15       1.0  0.06480  0.65030  0.04680  1.0000 0.1369659466
H   H16       1.0  0.93520  0.15030  0.45320  1.0000 0.1369659466
H   H17       1.0  0.38320  0.62420  0.27900  1.0000 0.1189101264
H   H18       1.0  0.61680  0.12420  0.22100  1.0000 0.1189101264
H   H19       1.0  0.61680  0.37580  0.72100  1.0000 0.1189101264
H   H20       1.0  0.38320  0.87580  0.77900  1.0000 0.1189101264
C   C1        1.0  0.86280  0.18820  0.88990  1.0000 -0.0416019174
C   C2        1.0  0.13720  0.68820  0.61010  1.0000 -0.0416019174
C   C3        1.0  0.13720  0.81180  0.11010  1.0000 -0.0416019174
C   C4        1.0  0.86280  0.31180  0.38990  1.0000 -0.0416019174
C   C5        1.0  0.81270  0.05440  0.88820  1.0000 -0.0995220157
C   C6        1.0  0.18730  0.55440  0.61180  1.0000 -0.0995220157
C   C7        1.0  0.18730  0.94560  0.11180  1.0000 -0.0995220157
C   C8        1.0  0.81270  0.44560  0.38820  1.0000 -0.0995220157
C   C9        1.0  0.79840  0.99080  0.94600  1.0000 -0.0995220157
C   C10       1.0  0.20160  0.49080  0.55400  1.0000 -0.0995220157
C   C11       1.0  0.20160  0.00920  0.05400  1.0000 -0.0995220157
C   C12       1.0  0.79840  0.50920  0.44600  1.0000 -0.0995220157
C   C13       1.0  0.83400  0.06200  0.00650  1.0000 -0.0906551356
C   C14       1.0  0.16600  0.56200  0.49350  1.0000 -0.0906551356
C   C15       1.0  0.16600  0.93800  0.99350  1.0000 -0.0906551356
C   C16       1.0  0.83400  0.43800  0.50650  1.0000 -0.0906551356
C   C17       1.0  0.88430  0.19600  0.00922  1.0000 -0.0241988866
C   C18       1.0  0.11570  0.69600  0.49078  1.0000 -0.0241988866
C   C19       1.0  0.11570  0.80400  0.99078  1.0000 -0.0241988866
C   C20       1.0  0.88430  0.30400  0.50922  1.0000 -0.0241988866
C   C21       1.0  0.90000  0.25980  0.95111  1.0000 -0.0906551356
C   C22       1.0  0.10000  0.75980  0.54889  1.0000 -0.0906551356
C   C23       1.0  0.10000  0.74020  0.04889  1.0000 -0.0906551356
C   C24       1.0  0.90000  0.24020  0.45111  1.0000 -0.0906551356
C   C25       1.0  0.92020  0.27450  0.07474  1.0000 0.5686592025
C   C26       1.0  0.07980  0.77450  0.42526  1.0000 0.5686592025
C   C27       1.0  0.07980  0.72550  0.92526  1.0000 0.5686592025
C   C28       1.0  0.92020  0.22550  0.57474  1.0000 0.5686592025
C   C29       1.0  0.87680  0.25650  0.82588  1.0000 0.6475757522
C   C30       1.0  0.12320  0.75650  0.67412  1.0000 0.6475757522
C   C31       1.0  0.12320  0.74350  0.17412  1.0000 0.6475757522
C   C32       1.0  0.87680  0.24350  0.32588  1.0000 0.6475757522
C   C33       1.0  0.79400  0.70650  0.26107  1.0000 0.599620947
C   C34       1.0  0.20600  0.20650  0.23893  1.0000 0.599620947
C   C35       1.0  0.20600  0.29350  0.73893  1.0000 0.599620947
C   C36       1.0  0.79400  0.79350  0.76107  1.0000 0.599620947
C   C37       1.0  0.65860  0.64120  0.24684  1.0000 -0.0143930592
C   C38       1.0  0.34140  0.14120  0.25316  1.0000 -0.0143930592
C   C39       1.0  0.34140  0.35880  0.75316  1.0000 -0.0143930592
C   C40       1.0  0.65860  0.85880  0.74684  1.0000 -0.0143930592
C   C41       1.0  0.59060  0.53890  0.20376  1.0000 -0.0047229763
C   C42       1.0  0.40940  0.03890  0.29624  1.0000 -0.0047229763
C   C43       1.0  0.40940  0.46110  0.79624  1.0000 -0.0047229763
C   C44       1.0  0.59060  0.96110  0.70376  1.0000 -0.0047229763
C   C45       1.0  0.62450  0.45190  0.15145  1.0000 0.599620947
C   C46       1.0  0.37550  0.95190  0.34855  1.0000 0.599620947
C   C47       1.0  0.37550  0.54810  0.84855  1.0000 0.599620947
C   C48       1.0  0.62450  0.04810  0.65145  1.0000 0.599620947
C   C49       1.0  0.45850  0.61370  0.26220  1.0000 0.2025437963
C   C50       1.0  0.54150  0.11370  0.23780  1.0000 0.2025437963
C   C51       1.0  0.54150  0.38630  0.73780  1.0000 0.2025437963
C   C52       1.0  0.45850  0.88630  0.76220  1.0000 0.2025437963
N   N1        1.0  0.57320  0.68780  0.28376  1.0000 -0.3210784185
N   N2        1.0  0.42680  0.18780  0.21624  1.0000 -0.3210784185
N   N3        1.0  0.42680  0.31220  0.71624  1.0000 -0.3210784185
N   N4        1.0  0.57320  0.81220  0.78376  1.0000 -0.3210784185
N   N5        1.0  0.46350  0.52300  0.21396  1.0000 -0.3210784185
N   N6        1.0  0.53650  0.02300  0.28604  1.0000 -0.3210784185
N   N7        1.0  0.53650  0.47700  0.78604  1.0000 -0.3210784185
N   N8        1.0  0.46350  0.97700  0.71396  1.0000 -0.3210784185
O   O1        1.0  0.89900  0.21890  0.12672  1.0000 -0.6291699447
O   O2        1.0  0.10100  0.71890  0.37328  1.0000 -0.6291699447
O   O3        1.0  0.10100  0.78110  0.87328  1.0000 -0.6291699447
O   O4        1.0  0.89900  0.28110  0.62672  1.0000 -0.6291699447
O   O5        1.0  0.97010  0.39630  0.07798  1.0000 -0.6204263109
O   O6        1.0  0.02990  0.89630  0.42202  1.0000 -0.6204263109
O   O7        1.0  0.02990  0.60370  0.92202  1.0000 -0.6204263109
O   O8        1.0  0.97010  0.10370  0.57798  1.0000 -0.6204263109
O   O9        1.0  0.90700  0.38270  0.82889  1.0000 -0.6546739179
O   O10       1.0  0.09300  0.88270  0.67111  1.0000 -0.6546739179
O   O11       1.0  0.09300  0.61730  0.17111  1.0000 -0.6551105815
O   O12       1.0  0.90700  0.11730  0.32889  1.0000 -0.6551105815
O   O13       1.0  0.85580  0.18190  0.77331  1.0000 -0.7033067184
O   O14       1.0  0.14420  0.68190  0.72669  1.0000 -0.7033067184
O   O15       1.0  0.14420  0.81810  0.22669  1.0000 -0.7033067184
O   O16       1.0  0.85580  0.31810  0.27331  1.0000 -0.7033067184
O   O17       1.0  0.88900  0.65960  0.24058  1.0000 -0.6432895946
O   O18       1.0  0.11100  0.15960  0.25942  1.0000 -0.6432895946
O   O19       1.0  0.11100  0.34040  0.75942  1.0000 -0.6432895946
O   O20       1.0  0.88900  0.84040  0.74058  1.0000 -0.6432895946
O   O21       1.0  0.80770  0.81750  0.29717  1.0000 -0.6291699447
O   O22       1.0  0.19230  0.31750  0.20283  1.0000 -0.6291699447
O   O23       1.0  0.19230  0.18250  0.70283  1.0000 -0.6291699447
O   O24       1.0  0.80770  0.68250  0.79717  1.0000 -0.6291699447
O   O25       1.0  0.73630  0.47160  0.13704  1.0000 -0.6291699447
O   O26       1.0  0.26370  0.97160  0.36296  1.0000 -0.6291699447
O   O27       1.0  0.26370  0.52840  0.86296  1.0000 -0.6291699447
O   O28       1.0  0.73630  0.02840  0.63704  1.0000 -0.6291699447
O   O29       1.0  0.53660  0.36350  0.12224  1.0000 -0.5179258722
O   O30       1.0  0.46340  0.86350  0.37776  1.0000 -0.5179258722
O   O31       1.0  0.46340  0.63650  0.87776  1.0000 -0.5179258722
O   O32       1.0  0.53660  0.13650  0.62224  1.0000 -0.5179258722
