# DDEC6 charges by PACMAN v1.1 (https://github.com/mtap-research/PACMAN-charge/)
data_2011[Mg][nan]3[ASR]4
_chemical_formula_sum              "Mg6 H18 C42 N6 O24"
_cell_length_a       11.4799
_cell_length_b       11.4799
_cell_length_c       14.735
_cell_angle_alpha    90
_cell_angle_beta     90
_cell_angle_gamma    120

_symmetry_space_group_name_H-M    "P 1"
_symmetry_Int_Tables_number       1

loop_
  _symmetry_equiv_pos_as_xyz
  'x, y, z'

loop_
  _atom_site_type_symbol
  _atom_site_label
  _atom_site_symmetry_multiplicity
  _atom_site_fract_x
  _atom_site_fract_y
  _atom_site_fract_z
  _atom_site_occupancy
  _atom_site_charge
Mg  Mg1       1.0  0.19381  0.38761  0.25000  1.0000 1.3476883299
Mg  Mg2       1.0  0.80620  0.19381  0.41667  1.0000 1.3476883299
Mg  Mg3       1.0  0.61239  0.80619  0.58333  1.0000 1.3476883299
Mg  Mg4       1.0  0.80620  0.61239  0.75000  1.0000 1.3476883299
Mg  Mg5       1.0  0.19381  0.80619  0.91667  1.0000 1.3476883299
Mg  Mg6       1.0  0.38761  0.19381  0.08333  1.0000 1.3476883299
H   H1        1.0  0.49350  0.50650  0.91667  1.0000 0.131086968
H   H2        1.0  0.98700  0.49350  0.08333  1.0000 0.131086968
H   H3        1.0  0.49350  0.98700  0.25000  1.0000 0.131086968
H   H4        1.0  0.50650  0.49350  0.41667  1.0000 0.131086968
H   H5        1.0  0.01300  0.50650  0.58333  1.0000 0.131086968
H   H6        1.0  0.50650  0.01300  0.75000  1.0000 0.131086968
H   H7        1.0  0.20500  0.56750  0.01450  1.0000 0.100743361
H   H8        1.0  0.63750  0.20500  0.18117  1.0000 0.100743361
H   H9        1.0  0.43250  0.63750  0.34783  1.0000 0.100743361
H   H10       1.0  0.79500  0.43250  0.51450  1.0000 0.100743361
H   H11       1.0  0.36250  0.79500  0.68117  1.0000 0.100743361
H   H12       1.0  0.56750  0.36250  0.84783  1.0000 0.100743361
H   H13       1.0  0.43250  0.79500  0.81883  1.0000 0.100743361
H   H14       1.0  0.63750  0.43250  0.98550  1.0000 0.100743361
H   H15       1.0  0.20500  0.63750  0.15217  1.0000 0.100743361
H   H16       1.0  0.56750  0.20500  0.31883  1.0000 0.100743361
H   H17       1.0  0.36250  0.56750  0.48550  1.0000 0.100743361
H   H18       1.0  0.79500  0.36250  0.65217  1.0000 0.100743361
C   C1        1.0  0.31811  0.42051  0.05416  1.0000 0.6360668169
C   C2        1.0  0.89760  0.31811  0.22083  1.0000 0.6360668169
C   C3        1.0  0.57949  0.89760  0.38749  1.0000 0.6360668169
C   C4        1.0  0.68189  0.57949  0.55416  1.0000 0.6360668169
C   C5        1.0  0.10240  0.68189  0.72083  1.0000 0.6360668169
C   C6        1.0  0.42051  0.10240  0.88749  1.0000 0.6360668169
C   C7        1.0  0.57949  0.68189  0.77917  1.0000 0.6360668169
C   C8        1.0  0.89760  0.57949  0.94584  1.0000 0.6360668169
C   C9        1.0  0.31811  0.89760  0.11251  1.0000 0.6360668169
C   C10       1.0  0.42051  0.31811  0.27917  1.0000 0.6360668169
C   C11       1.0  0.10240  0.42051  0.44584  1.0000 0.6360668169
C   C12       1.0  0.68189  0.10240  0.61251  1.0000 0.6360668169
C   C13       1.0  0.34719  0.52351  0.98080  1.0000 -0.0721103032
C   C14       1.0  0.82368  0.34719  0.14747  1.0000 -0.0721103032
C   C15       1.0  0.47649  0.82368  0.31413  1.0000 -0.0721103032
C   C16       1.0  0.65281  0.47649  0.48080  1.0000 -0.0721103032
C   C17       1.0  0.17632  0.65281  0.64747  1.0000 -0.0721103032
C   C18       1.0  0.52351  0.17632  0.81413  1.0000 -0.0721103032
C   C19       1.0  0.47649  0.65281  0.85253  1.0000 -0.0721103032
C   C20       1.0  0.82368  0.47649  0.01920  1.0000 -0.0721103032
C   C21       1.0  0.34719  0.82368  0.18587  1.0000 -0.0721103032
C   C22       1.0  0.52351  0.34719  0.35253  1.0000 -0.0721103032
C   C23       1.0  0.17632  0.52351  0.51920  1.0000 -0.0721103032
C   C24       1.0  0.65281  0.17632  0.68587  1.0000 -0.0721103032
C   C25       1.0  0.44668  0.55332  0.91667  1.0000 -0.052522268
C   C26       1.0  0.89336  0.44668  0.08333  1.0000 -0.052522268
C   C27       1.0  0.44668  0.89336  0.25000  1.0000 -0.052522268
C   C28       1.0  0.55332  0.44668  0.41667  1.0000 -0.052522268
C   C29       1.0  0.10664  0.55332  0.58333  1.0000 -0.052522268
C   C30       1.0  0.55332  0.10664  0.75000  1.0000 -0.052522268
C   C31       1.0  0.27717  0.59236  0.97526  1.0000 0.0644223197
C   C32       1.0  0.68481  0.27717  0.14193  1.0000 0.0644223197
C   C33       1.0  0.40764  0.68481  0.30859  1.0000 0.0644223197
C   C34       1.0  0.72283  0.40764  0.47526  1.0000 0.0644223197
C   C35       1.0  0.31519  0.72283  0.64193  1.0000 0.0644223197
C   C36       1.0  0.59236  0.31519  0.80859  1.0000 0.0644223197
C   C37       1.0  0.40764  0.72283  0.85807  1.0000 0.0652627872
C   C38       1.0  0.68481  0.40764  0.02474  1.0000 0.0644223197
C   C39       1.0  0.27717  0.68481  0.19141  1.0000 0.0644223197
C   C40       1.0  0.59236  0.27717  0.35807  1.0000 0.0644223197
C   C41       1.0  0.31519  0.59236  0.52474  1.0000 0.0644223197
C   C42       1.0  0.72283  0.31519  0.69141  1.0000 0.0644223197
N   N1        1.0  0.30713  0.69287  0.91667  1.0000 -0.3004126671
N   N2        1.0  0.61426  0.30713  0.08333  1.0000 -0.3004126671
N   N3        1.0  0.30713  0.61426  0.25000  1.0000 -0.3004126671
N   N4        1.0  0.69287  0.30713  0.41667  1.0000 -0.3004126671
N   N5        1.0  0.38574  0.69287  0.58333  1.0000 -0.3004126671
N   N6        1.0  0.69287  0.38574  0.75000  1.0000 -0.3004126671
O   O1        1.0  0.22731  0.39936  0.10994  1.0000 -0.6498559935
O   O2        1.0  0.82795  0.22731  0.27661  1.0000 -0.6498559935
O   O3        1.0  0.60064  0.82795  0.44327  1.0000 -0.6498559935
O   O4        1.0  0.77269  0.60064  0.60994  1.0000 -0.6498559935
O   O5        1.0  0.17205  0.77269  0.77661  1.0000 -0.6498559935
O   O6        1.0  0.39936  0.17205  0.94327  1.0000 -0.6498559935
O   O7        1.0  0.60064  0.77269  0.72339  1.0000 -0.6498559935
O   O8        1.0  0.82795  0.60064  0.89006  1.0000 -0.6498559935
O   O9        1.0  0.22731  0.82795  0.05673  1.0000 -0.6498559935
O   O10       1.0  0.39936  0.22731  0.22339  1.0000 -0.6498559935
O   O11       1.0  0.17205  0.39936  0.39006  1.0000 -0.6498559935
O   O12       1.0  0.77269  0.17205  0.55673  1.0000 -0.6498559935
O   O13       1.0  0.38890  0.36650  0.05312  1.0000 -0.6422564212
O   O14       1.0  0.02240  0.38890  0.21979  1.0000 -0.6422564212
O   O15       1.0  0.63350  0.02240  0.38645  1.0000 -0.6422564212
O   O16       1.0  0.61110  0.63350  0.55312  1.0000 -0.6422564212
O   O17       1.0  0.97760  0.61110  0.71979  1.0000 -0.6422564212
O   O18       1.0  0.36650  0.97760  0.88645  1.0000 -0.6422564212
O   O19       1.0  0.63350  0.61110  0.78021  1.0000 -0.6422564212
O   O20       1.0  0.02240  0.63350  0.94688  1.0000 -0.6422564212
O   O21       1.0  0.38890  0.02240  0.11355  1.0000 -0.6422564212
O   O22       1.0  0.36650  0.38890  0.28021  1.0000 -0.6422564212
O   O23       1.0  0.97760  0.36650  0.44688  1.0000 -0.6422564212
O   O24       1.0  0.61110  0.97760  0.61355  1.0000 -0.6422564212
