# DDEC6 charges by PACMAN v1.1 (https://github.com/mtap-research/PACMAN-charge/)
data_2011[Cu][nan]3[ASR]10
_chemical_formula_sum              "Cu4 H32 C56 N8 O20"
_cell_length_a       8.4283
_cell_length_b       10.2553
_cell_length_c       17.8159
_cell_angle_alpha    90
_cell_angle_beta     104.408
_cell_angle_gamma    90

_symmetry_space_group_name_H-M    "P 1"
_symmetry_Int_Tables_number       1

loop_
  _symmetry_equiv_pos_as_xyz
  'x, y, z'

loop_
  _atom_site_type_symbol
  _atom_site_label
  _atom_site_symmetry_multiplicity
  _atom_site_fract_x
  _atom_site_fract_y
  _atom_site_fract_z
  _atom_site_occupancy
  _atom_site_charge
Cu  Cu1       1.0  0.60603  0.94224  0.43208  1.0000 0.7443349351
Cu  Cu2       1.0  0.60603  0.55776  0.93208  1.0000 0.7443349351
Cu  Cu3       1.0  0.39397  0.44224  0.06792  1.0000 0.7443349351
Cu  Cu4       1.0  0.39397  0.05776  0.56792  1.0000 0.7451747049
H   H1        1.0  0.23260  0.16170  0.09560  1.0000 0.2895492304
H   H2        1.0  0.23260  0.33830  0.59560  1.0000 0.2895492304
H   H3        1.0  0.63580  0.73090  0.16920  1.0000 0.1340667222
H   H4        1.0  0.63580  0.76910  0.66920  1.0000 0.1340667222
H   H5        1.0  0.38490  0.05020  0.19980  1.0000 0.146910716
H   H6        1.0  0.38490  0.44980  0.69980  1.0000 0.146910716
H   H7        1.0  0.34330  0.91230  0.98520  1.0000 0.1381924886
H   H8        1.0  0.34330  0.58770  0.48520  1.0000 0.1381924886
H   H9        1.0  0.96910  0.22760  0.86350  1.0000 0.146910716
H   H10       1.0  0.96910  0.27240  0.36350  1.0000 0.146910716
H   H11       1.0  0.77740  0.39210  0.84200  1.0000 0.1196157661
H   H12       1.0  0.77740  0.10790  0.34200  1.0000 0.1196157661
H   H13       1.0  0.02280  0.27340  0.09150  1.0000 0.146910716
H   H14       1.0  0.02280  0.22660  0.59150  1.0000 0.146910716
H   H15       1.0  0.83120  0.43590  0.06510  1.0000 0.1196157661
H   H16       1.0  0.83120  0.06410  0.56510  1.0000 0.1196157661
H   H17       1.0  0.76740  0.66170  0.40440  1.0000 0.2895492304
H   H18       1.0  0.76740  0.83830  0.90440  1.0000 0.2895492304
H   H19       1.0  0.36420  0.23090  0.33080  1.0000 0.1340667222
H   H20       1.0  0.36420  0.26910  0.83080  1.0000 0.1340667222
H   H21       1.0  0.61510  0.55020  0.30020  1.0000 0.146910716
H   H22       1.0  0.61510  0.94980  0.80020  1.0000 0.146910716
H   H23       1.0  0.65670  0.41230  0.51480  1.0000 0.1381924886
H   H24       1.0  0.65670  0.08770  0.01480  1.0000 0.1381924886
H   H25       1.0  0.03090  0.72760  0.63650  1.0000 0.146910716
H   H26       1.0  0.03090  0.77240  0.13650  1.0000 0.146910716
H   H27       1.0  0.22260  0.89210  0.65800  1.0000 0.1196157661
H   H28       1.0  0.22260  0.60790  0.15800  1.0000 0.1196157661
H   H29       1.0  0.97720  0.77340  0.40850  1.0000 0.146910716
H   H30       1.0  0.97720  0.72660  0.90850  1.0000 0.146910716
H   H31       1.0  0.16880  0.93590  0.43490  1.0000 0.1196157661
H   H32       1.0  0.16880  0.56410  0.93490  1.0000 0.1196157661
C   C1        1.0  0.53110  0.70630  0.01640  1.0000 0.5031642306
C   C2        1.0  0.53110  0.79370  0.51640  1.0000 0.5031642306
C   C3        1.0  0.49170  0.80590  0.06970  1.0000 -0.0100750368
C   C4        1.0  0.49170  0.69410  0.56970  1.0000 -0.0100750368
C   C5        1.0  0.56200  0.79710  0.14920  1.0000 -0.1284975272
C   C6        1.0  0.56200  0.70290  0.64920  1.0000 -0.1284975272
C   C7        1.0  0.51930  0.88930  0.19760  1.0000 -0.0100750368
C   C8        1.0  0.51930  0.61070  0.69760  1.0000 -0.0100750368
C   C9        1.0  0.41180  0.98820  0.16690  1.0000 -0.1736882154
C   C10       1.0  0.41180  0.51180  0.66690  1.0000 -0.1736882154
C   C11       1.0  0.34300  0.99670  0.08780  1.0000 0.2363507439
C   C12       1.0  0.34300  0.50330  0.58780  1.0000 0.2363507439
C   C13       1.0  0.38550  0.90600  0.03850  1.0000 -0.1756916691
C   C14       1.0  0.38550  0.59400  0.53850  1.0000 -0.1756916691
C   C15       1.0  0.58970  0.88060  0.28340  1.0000 0.5536931146
C   C16       1.0  0.58970  0.61940  0.78340  1.0000 0.5536931146
C   C17       1.0  0.13240  0.11660  0.99140  1.0000 0.4533765305
C   C18       1.0  0.13240  0.38340  0.49140  1.0000 0.4533765305
C   C19       1.0  0.01780  0.23210  0.98090  1.0000 0.0322045934
C   C20       1.0  0.01780  0.26790  0.48090  1.0000 0.0322045934
C   C21       1.0  0.94210  0.26870  0.90510  1.0000 -0.1428909387
C   C22       1.0  0.94210  0.23130  0.40510  1.0000 -0.1428909387
C   C23       1.0  0.82640  0.36680  0.89260  1.0000 0.0843979322
C   C24       1.0  0.82640  0.13320  0.39260  1.0000 0.0851655368
C   C25       1.0  0.97410  0.29570  0.04030  1.0000 -0.1491954785
C   C26       1.0  0.97410  0.20430  0.54030  1.0000 -0.1491954785
C   C27       1.0  0.85830  0.39250  0.02420  1.0000 0.0843979322
C   C28       1.0  0.85830  0.10750  0.52420  1.0000 0.0843979322
C   C29       1.0  0.46890  0.20630  0.48360  1.0000 0.5031642306
C   C30       1.0  0.46890  0.29370  0.98360  1.0000 0.5031642306
C   C31       1.0  0.50830  0.30590  0.43030  1.0000 -0.0100750368
C   C32       1.0  0.50830  0.19410  0.93030  1.0000 -0.0100750368
C   C33       1.0  0.43800  0.29710  0.35080  1.0000 -0.1284975272
C   C34       1.0  0.43800  0.20290  0.85080  1.0000 -0.1284975272
C   C35       1.0  0.48070  0.38930  0.30240  1.0000 -0.0100750368
C   C36       1.0  0.48070  0.11070  0.80240  1.0000 -0.0100750368
C   C37       1.0  0.58820  0.48820  0.33310  1.0000 -0.1736882154
C   C38       1.0  0.58820  0.01180  0.83310  1.0000 -0.1736882154
C   C39       1.0  0.65700  0.49670  0.41220  1.0000 0.2363507439
C   C40       1.0  0.65700  0.00330  0.91220  1.0000 0.2363507439
C   C41       1.0  0.61450  0.40600  0.46150  1.0000 -0.1756916691
C   C42       1.0  0.61450  0.09400  0.96150  1.0000 -0.1756916691
C   C43       1.0  0.41030  0.38060  0.21660  1.0000 0.5536931146
C   C44       1.0  0.41030  0.11940  0.71660  1.0000 0.5536931146
C   C45       1.0  0.86760  0.61660  0.50860  1.0000 0.4533765305
C   C46       1.0  0.86760  0.88340  0.00860  1.0000 0.4533765305
C   C47       1.0  0.98220  0.73210  0.51910  1.0000 0.0322045934
C   C48       1.0  0.98220  0.76790  0.01910  1.0000 0.0322045934
C   C49       1.0  0.05790  0.76870  0.59490  1.0000 -0.1428909387
C   C50       1.0  0.05790  0.73130  0.09490  1.0000 -0.1428909387
C   C51       1.0  0.17360  0.86680  0.60740  1.0000 0.0843979322
C   C52       1.0  0.17360  0.63320  0.10740  1.0000 0.0843979322
C   C53       1.0  0.02590  0.79570  0.45970  1.0000 -0.1491954785
C   C54       1.0  0.02590  0.70430  0.95970  1.0000 -0.1491954785
C   C55       1.0  0.14170  0.89250  0.47580  1.0000 0.0843979322
C   C56       1.0  0.14170  0.60750  0.97580  1.0000 0.0843979322
N   N1        1.0  0.23420  0.10130  0.06240  1.0000 -0.3597857889
N   N2        1.0  0.23420  0.39870  0.56240  1.0000 -0.3597857889
N   N3        1.0  0.78240  0.42680  0.95110  1.0000 -0.2496475924
N   N4        1.0  0.78240  0.07320  0.45110  1.0000 -0.2496475924
N   N5        1.0  0.76580  0.60130  0.43760  1.0000 -0.3597857889
N   N6        1.0  0.76580  0.89870  0.93760  1.0000 -0.3597857889
N   N7        1.0  0.21760  0.92680  0.54890  1.0000 -0.2496475924
N   N8        1.0  0.21760  0.57320  0.04890  1.0000 -0.2496475924
O   O1        1.0  0.47470  0.71500  0.94430  1.0000 -0.456099258
O   O2        1.0  0.47470  0.78500  0.44430  1.0000 -0.456099258
O   O3        1.0  0.62090  0.60870  0.04150  1.0000 -0.5357606422
O   O4        1.0  0.62090  0.89130  0.54150  1.0000 -0.5357606422
O   O5        1.0  0.69360  0.79940  0.31260  1.0000 -0.5625604402
O   O6        1.0  0.69360  0.70060  0.81260  1.0000 -0.5625604402
O   O7        1.0  0.53070  0.96370  0.32360  1.0000 -0.5318276595
O   O8        1.0  0.53070  0.53630  0.82360  1.0000 -0.5318276595
O   O9        1.0  0.12730  0.04150  0.93790  1.0000 -0.4482986938
O   O10       1.0  0.12730  0.45850  0.43790  1.0000 -0.4482986938
O   O11       1.0  0.52530  0.21500  0.55570  1.0000 -0.456099258
O   O12       1.0  0.52530  0.28500  0.05570  1.0000 -0.456099258
O   O13       1.0  0.37910  0.10870  0.45850  1.0000 -0.5357606422
O   O14       1.0  0.37910  0.39130  0.95850  1.0000 -0.5357606422
O   O15       1.0  0.30640  0.29940  0.18740  1.0000 -0.5625604402
O   O16       1.0  0.30640  0.20060  0.68740  1.0000 -0.5625604402
O   O17       1.0  0.46930  0.46370  0.17640  1.0000 -0.5318276595
O   O18       1.0  0.46930  0.03630  0.67640  1.0000 -0.5318276595
O   O19       1.0  0.87270  0.54150  0.56210  1.0000 -0.4482986938
O   O20       1.0  0.87270  0.95850  0.06210  1.0000 -0.4482986938
