# DDEC6 charges by PACMAN v1.1 (https://github.com/mtap-research/PACMAN-charge/)
data_2011[Cu][cds]3[ASR]1
_chemical_formula_sum              "Cu2 H64 C40 N24"
_cell_length_a       12.4369
_cell_length_b       12.8417
_cell_length_c       13.2691
_cell_angle_alpha    99.98
_cell_angle_beta     105.142
_cell_angle_gamma    111.649

_symmetry_space_group_name_H-M    "P 1"
_symmetry_Int_Tables_number       1

loop_
  _symmetry_equiv_pos_as_xyz
  'x, y, z'

loop_
  _atom_site_type_symbol
  _atom_site_label
  _atom_site_symmetry_multiplicity
  _atom_site_fract_x
  _atom_site_fract_y
  _atom_site_fract_z
  _atom_site_occupancy
  _atom_site_charge
Cu  Cu1       1.0  0.99690  0.50221  0.00463  1.0000 0.281435364
Cu  Cu2       1.0  0.50103  0.00049  0.50001  1.0000 0.281435364
H   H1        1.0  0.92407  0.45349  0.21980  1.0000 0.0880382642
H   H2        1.0  0.98995  0.74924  0.10388  1.0000 0.1006451419
H   H3        1.0  0.80678  0.77007  0.27238  1.0000 0.081131994
H   H4        1.0  0.92035  0.86043  0.22675  1.0000 0.0713921755
H   H5        1.0  0.08885  0.89934  0.40357  1.0000 0.081131994
H   H6        1.0  0.97566  0.80627  0.44753  1.0000 0.0880382642
H   H7        1.0  0.98515  0.03259  0.39253  1.0000 0.0713921755
H   H8        1.0  0.86345  0.93561  0.42469  1.0000 0.0631279106
H   H9        1.0  0.66917  0.87013  0.42739  1.0000 0.081131994
H   H10       1.0  0.61590  0.94619  0.72888  1.0000 0.1082115658
H   H11       1.0  0.82516  0.78500  0.74825  1.0000 0.0880382642
H   H12       1.0  0.71657  0.79942  0.80729  1.0000 0.081131994
H   H13       1.0  0.84122  0.02095  0.87382  1.0000 0.0713921755
H   H14       1.0  0.95257  0.00491  0.81831  1.0000 0.081131994
H   H15       1.0  0.87920  0.90347  0.99728  1.0000 0.081131994
H   H16       1.0  0.98543  0.87855  0.94035  1.0000 0.081131994
H   H17       1.0  0.02774  0.33500  0.16991  1.0000 0.081131994
H   H18       1.0  0.29375  0.59039  0.08895  1.0000 0.1082115658
H   H19       1.0  0.48655  0.62145  0.24087  1.0000 0.081131994
H   H20       1.0  0.44711  0.62517  0.36183  1.0000 0.0880382642
H   H21       1.0  0.47994  0.42171  0.23182  1.0000 0.081131994
H   H22       1.0  0.43153  0.42100  0.34672  1.0000 0.0880382642
H   H23       1.0  0.67951  0.59970  0.34806  1.0000 0.0713921755
H   H24       1.0  0.63219  0.59888  0.46301  1.0000 0.081131994
H   H25       1.0  0.65817  0.39535  0.32688  1.0000 0.0631279106
H   H26       1.0  0.61039  0.39126  0.44161  1.0000 0.0713921755
H   H27       1.0  0.81615  0.54783  0.56612  1.0000 0.0880382642
H   H28       1.0  0.86134  0.57239  0.45116  1.0000 0.0880382642
H   H29       1.0  0.83569  0.36345  0.39647  1.0000 0.0713921755
H   H30       1.0  0.94898  0.44239  0.53166  1.0000 0.081131994
H   H31       1.0  0.69611  0.23481  0.71253  1.0000 0.0880382642
H   H32       1.0  0.67012  0.16722  0.38146  1.0000 0.1082115658
H   H33       1.0  0.07790  0.54659  0.77900  1.0000 0.081131994
H   H34       1.0  0.01135  0.25231  0.89594  1.0000 0.1006451419
H   H35       1.0  0.19298  0.22930  0.72712  1.0000 0.081131994
H   H36       1.0  0.07933  0.13905  0.77288  1.0000 0.0713921755
H   H37       1.0  0.91112  0.10030  0.59617  1.0000 0.081131994
H   H38       1.0  0.02434  0.19342  0.55227  1.0000 0.0880382642
H   H39       1.0  0.01476  0.96705  0.60718  1.0000 0.0713921755
H   H40       1.0  0.13651  0.06407  0.57503  1.0000 0.0631279106
H   H41       1.0  0.32990  0.12907  0.57182  1.0000 0.081131994
H   H42       1.0  0.38434  0.05388  0.27095  1.0000 0.1006451419
H   H43       1.0  0.17446  0.21545  0.25179  1.0000 0.1006451419
H   H44       1.0  0.28340  0.20115  0.19206  1.0000 0.081131994
H   H45       1.0  0.15907  0.97960  0.12672  1.0000 0.0713921755
H   H46       1.0  0.04763  0.99584  0.18196  1.0000 0.081131994
H   H47       1.0  0.12083  0.09645  0.00257  1.0000 0.0713921755
H   H48       1.0  0.01442  0.12135  0.05935  1.0000 0.0713921755
H   H49       1.0  0.96994  0.65104  0.82165  1.0000 0.081131994
H   H50       1.0  0.70012  0.41245  0.91195  1.0000 0.1082115658
H   H51       1.0  0.31237  0.38708  0.64355  1.0000 0.0713921755
H   H52       1.0  0.32202  0.37620  0.51283  1.0000 0.081131994
H   H53       1.0  0.35992  0.59560  0.68052  1.0000 0.0631279106
H   H54       1.0  0.40261  0.60424  0.56262  1.0000 0.0713921755
H   H55       1.0  0.19198  0.45565  0.43912  1.0000 0.0880382642
H   H56       1.0  0.14844  0.43107  0.55428  1.0000 0.081131994
H   H57       1.0  0.16916  0.63880  0.60649  1.0000 0.081131994
H   H58       1.0  0.05783  0.55431  0.47182  1.0000 0.081131994
H   H59       1.0  0.30249  0.76627  0.28751  1.0000 0.081131994
H   H60       1.0  0.33159  0.83420  0.61949  1.0000 0.1082115658
H   H61       1.0  0.56300  0.58946  0.80195  1.0000 0.0880382642
H   H62       1.0  0.51397  0.44252  0.80830  1.0000 0.081131994
H   H63       1.0  0.55838  0.51484  0.60685  1.0000 0.0880382642
H   H64       1.0  0.50463  0.37068  0.61744  1.0000 0.081131994
C   C1        1.0  0.93179  0.53866  0.21096  1.0000 0.1238034899
C   C2        1.0  0.96635  0.68682  0.15008  1.0000 0.0323355394
C   C3        1.0  0.90515  0.80220  0.27952  1.0000 -0.0785334026
C   C4        1.0  0.99071  0.86733  0.39740  1.0000 -0.1782164575
C   C5        1.0  0.96382  0.96892  0.43952  1.0000 -0.139047058
C   C6        1.0  0.67529  0.87624  0.51222  1.0000 0.1082115658
C   C7        1.0  0.64516  0.91596  0.66276  1.0000 0.0129221445
C   C8        1.0  0.78613  0.84529  0.77257  1.0000 -0.0896206205
C   C9        1.0  0.88430  0.96158  0.85507  1.0000 -0.1782164575
C   C10       1.0  0.94821  0.94286  0.95962  1.0000 -0.139047058
C   C11       1.0  0.11602  0.39848  0.17103  1.0000 0.1006451419
C   C12       1.0  0.24694  0.52585  0.12624  1.0000 0.0378206978
C   C13       1.0  0.43776  0.56602  0.28519  1.0000 -0.0896206205
C   C14       1.0  0.48847  0.47924  0.30927  1.0000 -0.1704791104
C   C15       1.0  0.62273  0.54107  0.38547  1.0000 -0.139047058
C   C16       1.0  0.67011  0.45129  0.40699  1.0000 -0.139047058
C   C17       1.0  0.80505  0.50492  0.48158  1.0000 -0.1782164575
C   C18       1.0  0.85099  0.41001  0.48173  1.0000 -0.0896206205
C   C19       1.0  0.71229  0.24628  0.63717  1.0000 0.1006451419
C   C20       1.0  0.69690  0.20788  0.46909  1.0000 0.0195049835
C   C21       1.0  0.07027  0.46158  0.78821  1.0000 0.1315982545
C   C22       1.0  0.03507  0.31476  0.84972  1.0000 0.0631279106
C   C23       1.0  0.09467  0.19721  0.72006  1.0000 -0.0785334026
C   C24       1.0  0.00921  0.13219  0.60223  1.0000 -0.1782164575
C   C25       1.0  0.03611  0.03064  0.56011  1.0000 -0.1337922132
C   C26       1.0  0.32384  0.12302  0.48701  1.0000 0.1082115658
C   C27       1.0  0.35519  0.08463  0.33695  1.0000 0.0195049835
C   C28       1.0  0.21413  0.15573  0.22709  1.0000 -0.0896206205
C   C29       1.0  0.11584  0.03898  0.14505  1.0000 -0.1782164575
C   C30       1.0  0.05180  0.05711  0.04024  1.0000 -0.139047058
C   C31       1.0  0.88091  0.59721  0.82703  1.0000 0.1082115658
C   C32       1.0  0.74669  0.47607  0.87403  1.0000 0.0195049835
C   C33       1.0  0.36579  0.43609  0.59774  1.0000 -0.139047058
C   C34       1.0  0.34127  0.54402  0.59631  1.0000 -0.1337922132
C   C35       1.0  0.20514  0.49842  0.52432  1.0000 -0.1782164575
C   C36       1.0  0.15651  0.59126  0.52272  1.0000 -0.0896206205
C   C37       1.0  0.28746  0.75503  0.36340  1.0000 0.1006451419
C   C38       1.0  0.30465  0.79358  0.53183  1.0000 0.0195049835
C   C39       1.0  0.56138  0.50357  0.76734  1.0000 -0.0785334026
C   C40       1.0  0.50031  0.45541  0.64265  1.0000 -0.1782164575
N   N1        1.0  0.92434  0.70257  0.23320  1.0000 0.1370677337
N   N2        1.0  0.90003  0.60725  0.27362  1.0000 -0.2909945017
N   N3        1.0  0.97337  0.58314  0.13447  1.0000 -0.318288443
N   N4        1.0  0.72202  0.86262  0.67307  1.0000 0.1315982545
N   N5        1.0  0.74454  0.83734  0.57702  1.0000 -0.3004515758
N   N6        1.0  0.61278  0.92452  0.56044  1.0000 -0.318288443
N   N7        1.0  0.30679  0.50658  0.21690  1.0000 0.1482034857
N   N8        1.0  0.22450  0.42397  0.24713  1.0000 -0.2836722051
N   N9        1.0  0.12419  0.45764  0.09440  1.0000 -0.3134870743
N   N10       1.0  0.78087  0.32078  0.52377  1.0000 0.1370677337
N   N11       1.0  0.79187  0.34823  0.63243  1.0000 -0.2645231997
N   N12       1.0  0.65238  0.15772  0.53958  1.0000 -0.318288443
N   N13       1.0  0.07569  0.29718  0.76598  1.0000 0.1315982545
N   N14       1.0  0.10031  0.39186  0.72483  1.0000 -0.3004515758
N   N15       1.0  0.03065  0.41923  0.86607  1.0000 -0.3346418058
N   N16       1.0  0.27877  0.13852  0.32669  1.0000 0.1315982545
N   N17       1.0  0.25480  0.16214  0.42225  1.0000 -0.3004515758
N   N18       1.0  0.38676  0.07524  0.43884  1.0000 -0.318288443
N   N19       1.0  0.68944  0.51905  0.80183  1.0000 0.1370677337
N   N20       1.0  0.77477  0.59808  0.77076  1.0000 -0.2909945017
N   N21       1.0  0.86860  0.52382  0.89126  1.0000 -0.3004515758
N   N22       1.0  0.22247  0.68005  0.47819  1.0000 0.1315982545
N   N23       1.0  0.21009  0.65237  0.36916  1.0000 -0.2698816573
N   N24       1.0  0.34704  0.84411  0.46058  1.0000 -0.318288443
