# DDEC6 charges by PACMAN v1.1 (https://github.com/mtap-research/PACMAN-charge/)
data_2011[SmV][sqc]3[ASR]2
_chemical_formula_sum              "Sm2 V4 H48 C88 S8 N8 O26"
_cell_length_a       15.3904
_cell_length_b       15.3904
_cell_length_c       9.8586
_cell_angle_alpha    90
_cell_angle_beta     90
_cell_angle_gamma    90

_symmetry_space_group_name_H-M    "P 1"
_symmetry_Int_Tables_number       1

loop_
  _symmetry_equiv_pos_as_xyz
  'x, y, z'

loop_
  _atom_site_type_symbol
  _atom_site_label
  _atom_site_symmetry_multiplicity
  _atom_site_fract_x
  _atom_site_fract_y
  _atom_site_fract_z
  _atom_site_occupancy
  _atom_site_charge
Sm  Sm1       1.0  0.50000  0.50000  0.25000  1.0000 2.3078596068
Sm  Sm2       1.0  0.50000  0.50000  0.75000  1.0000 2.3078596068
V   V1        1.0  0.00000  0.00000  0.08800  1.0000 0.6230015429
V   V2        1.0  0.00000  0.00000  0.41200  1.0000 0.6230015429
V   V3        1.0  0.00000  0.00000  0.91200  1.0000 0.6258664799
V   V4        1.0  0.00000  0.00000  0.58800  1.0000 0.6230015429
H   H1        1.0  0.84810  0.29990  0.00000  1.0000 0.1661137954
H   H2        1.0  0.15190  0.70010  0.00000  1.0000 0.1661137954
H   H3        1.0  0.15190  0.29990  0.50000  1.0000 0.1661137954
H   H4        1.0  0.84810  0.70010  0.50000  1.0000 0.1661137954
H   H5        1.0  0.70010  0.15190  0.50000  1.0000 0.1661137954
H   H6        1.0  0.29990  0.84810  0.50000  1.0000 0.1661137954
H   H7        1.0  0.70010  0.84810  0.00000  1.0000 0.1661137954
H   H8        1.0  0.29990  0.15190  0.00000  1.0000 0.1661137954
H   H9        1.0  0.71270  0.17770  0.20490  1.0000 0.1274657918
H   H10       1.0  0.28730  0.82230  0.20490  1.0000 0.1274657918
H   H11       1.0  0.28730  0.17770  0.29510  1.0000 0.1274657918
H   H12       1.0  0.71270  0.82230  0.29510  1.0000 0.1274657918
H   H13       1.0  0.82230  0.28730  0.29510  1.0000 0.1274657918
H   H14       1.0  0.17770  0.71270  0.29510  1.0000 0.1274657918
H   H15       1.0  0.82230  0.71270  0.20490  1.0000 0.1274657918
H   H16       1.0  0.17770  0.28730  0.20490  1.0000 0.1274657918
H   H17       1.0  0.28730  0.82230  0.79510  1.0000 0.1274657918
H   H18       1.0  0.71270  0.17770  0.79510  1.0000 0.1274657918
H   H19       1.0  0.71270  0.82230  0.70490  1.0000 0.1274657918
H   H20       1.0  0.28730  0.17770  0.70490  1.0000 0.1274657918
H   H21       1.0  0.17770  0.71270  0.70490  1.0000 0.1274657918
H   H22       1.0  0.82230  0.28730  0.70490  1.0000 0.1274657918
H   H23       1.0  0.17770  0.28730  0.79510  1.0000 0.1274657918
H   H24       1.0  0.82230  0.71270  0.79510  1.0000 0.1274657918
H   H25       1.0  0.58770  0.26200  0.20310  1.0000 0.1421455962
H   H26       1.0  0.41230  0.73800  0.20310  1.0000 0.1421455962
H   H27       1.0  0.41230  0.26200  0.29690  1.0000 0.1421455962
H   H28       1.0  0.58770  0.73800  0.29690  1.0000 0.1421455962
H   H29       1.0  0.73800  0.41230  0.29690  1.0000 0.1421455962
H   H30       1.0  0.26200  0.58770  0.29690  1.0000 0.1421455962
H   H31       1.0  0.73800  0.58770  0.20310  1.0000 0.1421455962
H   H32       1.0  0.26200  0.41230  0.20310  1.0000 0.1421455962
H   H33       1.0  0.41230  0.73800  0.79690  1.0000 0.1421455962
H   H34       1.0  0.58770  0.26200  0.79690  1.0000 0.1421455962
H   H35       1.0  0.58770  0.73800  0.70310  1.0000 0.1421455962
H   H36       1.0  0.41230  0.26200  0.70310  1.0000 0.1421455962
H   H37       1.0  0.26200  0.58770  0.70310  1.0000 0.1421455962
H   H38       1.0  0.73800  0.41230  0.70310  1.0000 0.1421455962
H   H39       1.0  0.26200  0.41230  0.79690  1.0000 0.1421455962
H   H40       1.0  0.73800  0.58770  0.79690  1.0000 0.1421455962
H   H41       1.0  0.00470  0.33390  0.00000  1.0000 0.1421455962
H   H42       1.0  0.99530  0.66610  0.00000  1.0000 0.1421455962
H   H43       1.0  0.99530  0.33390  0.50000  1.0000 0.1421455962
H   H44       1.0  0.00470  0.66610  0.50000  1.0000 0.1421455962
H   H45       1.0  0.66610  0.99530  0.50000  1.0000 0.1421455962
H   H46       1.0  0.33390  0.00470  0.50000  1.0000 0.1421455962
H   H47       1.0  0.66610  0.00470  0.00000  1.0000 0.1421455962
H   H48       1.0  0.33390  0.99530  0.00000  1.0000 0.1421455962
C   C1        1.0  0.57550  0.26840  0.00000  1.0000 -0.0923170981
C   C2        1.0  0.42450  0.73160  0.00000  1.0000 -0.0923170981
C   C3        1.0  0.42450  0.26840  0.50000  1.0000 -0.0923170981
C   C4        1.0  0.57550  0.73160  0.50000  1.0000 -0.0923170981
C   C5        1.0  0.73160  0.42450  0.50000  1.0000 -0.0923170981
C   C6        1.0  0.26840  0.57550  0.50000  1.0000 -0.0923170981
C   C7        1.0  0.73160  0.57550  0.00000  1.0000 -0.0923170981
C   C8        1.0  0.26840  0.42450  0.00000  1.0000 -0.0923170981
C   C9        1.0  0.72710  0.16970  0.00000  1.0000 0.1021706459
C   C10       1.0  0.27290  0.83030  0.00000  1.0000 0.1021706459
C   C11       1.0  0.27290  0.16970  0.50000  1.0000 0.1021706459
C   C12       1.0  0.72710  0.83030  0.50000  1.0000 0.1021706459
C   C13       1.0  0.83030  0.27290  0.50000  1.0000 0.1021706459
C   C14       1.0  0.16970  0.72710  0.50000  1.0000 0.1021706459
C   C15       1.0  0.83030  0.72710  0.00000  1.0000 0.1021706459
C   C16       1.0  0.16970  0.27290  0.00000  1.0000 0.1021706459
C   C17       1.0  0.89450  0.25910  0.00000  1.0000 -0.1603662896
C   C18       1.0  0.10550  0.74090  0.00000  1.0000 -0.1603662896
C   C19       1.0  0.10550  0.25910  0.50000  1.0000 -0.1603662896
C   C20       1.0  0.89450  0.74090  0.50000  1.0000 -0.1603662896
C   C21       1.0  0.74090  0.10550  0.50000  1.0000 -0.1603662896
C   C22       1.0  0.25910  0.89450  0.50000  1.0000 -0.1603662896
C   C23       1.0  0.74090  0.89450  0.00000  1.0000 -0.1603662896
C   C24       1.0  0.25910  0.10550  0.00000  1.0000 -0.1603662896
C   C25       1.0  0.68790  0.19480  0.12080  1.0000 -0.1275158005
C   C26       1.0  0.31210  0.80520  0.12080  1.0000 -0.1275158005
C   C27       1.0  0.31210  0.19480  0.37920  1.0000 -0.1275158005
C   C28       1.0  0.68790  0.80520  0.37920  1.0000 -0.1275158005
C   C29       1.0  0.80520  0.31210  0.37920  1.0000 -0.1275158005
C   C30       1.0  0.19480  0.68790  0.37920  1.0000 -0.1275158005
C   C31       1.0  0.80520  0.68790  0.12080  1.0000 -0.1275158005
C   C32       1.0  0.19480  0.31210  0.12080  1.0000 -0.1275158005
C   C33       1.0  0.31210  0.80520  0.87920  1.0000 -0.1275158005
C   C34       1.0  0.68790  0.19480  0.87920  1.0000 -0.1275158005
C   C35       1.0  0.68790  0.80520  0.62080  1.0000 -0.1275158005
C   C36       1.0  0.31210  0.19480  0.62080  1.0000 -0.1275158005
C   C37       1.0  0.19480  0.68790  0.62080  1.0000 -0.1275158005
C   C38       1.0  0.80520  0.31210  0.62080  1.0000 -0.1275158005
C   C39       1.0  0.19480  0.31210  0.87920  1.0000 -0.1275158005
C   C40       1.0  0.80520  0.68790  0.87920  1.0000 -0.1275158005
C   C41       1.0  0.61320  0.24440  0.11970  1.0000 -0.0677980187
C   C42       1.0  0.38680  0.75560  0.11970  1.0000 -0.0677980187
C   C43       1.0  0.38680  0.24440  0.38030  1.0000 -0.0677980187
C   C44       1.0  0.61320  0.75560  0.38030  1.0000 -0.0677980187
C   C45       1.0  0.75560  0.38680  0.38030  1.0000 -0.0677980187
C   C46       1.0  0.24440  0.61320  0.38030  1.0000 -0.0677980187
C   C47       1.0  0.75560  0.61320  0.11970  1.0000 -0.0677980187
C   C48       1.0  0.24440  0.38680  0.11970  1.0000 -0.0677980187
C   C49       1.0  0.38680  0.75560  0.88030  1.0000 -0.0677980187
C   C50       1.0  0.61320  0.24440  0.88030  1.0000 -0.0677980187
C   C51       1.0  0.61320  0.75560  0.61970  1.0000 -0.0677980187
C   C52       1.0  0.38680  0.24440  0.61970  1.0000 -0.0677980187
C   C53       1.0  0.24440  0.61320  0.61970  1.0000 -0.0677980187
C   C54       1.0  0.75560  0.38680  0.61970  1.0000 -0.0677980187
C   C55       1.0  0.24440  0.38680  0.88030  1.0000 -0.0677980187
C   C56       1.0  0.75560  0.61320  0.88030  1.0000 -0.0677980187
C   C57       1.0  0.80900  0.11710  0.00000  1.0000 -0.0923170981
C   C58       1.0  0.19100  0.88290  0.00000  1.0000 -0.0923170981
C   C59       1.0  0.19100  0.11710  0.50000  1.0000 -0.0923170981
C   C60       1.0  0.80900  0.88290  0.50000  1.0000 -0.0923170981
C   C61       1.0  0.88290  0.19100  0.50000  1.0000 -0.0923170981
C   C62       1.0  0.11710  0.80900  0.50000  1.0000 -0.0923170981
C   C63       1.0  0.88290  0.80900  0.00000  1.0000 -0.0923170981
C   C64       1.0  0.11710  0.19100  0.00000  1.0000 -0.0923170981
C   C65       1.0  0.88670  0.16350  0.00000  1.0000 0.1961035241
C   C66       1.0  0.11330  0.83650  0.00000  1.0000 0.1961035241
C   C67       1.0  0.11330  0.16350  0.50000  1.0000 0.1961035241
C   C68       1.0  0.88670  0.83650  0.50000  1.0000 0.1961035241
C   C69       1.0  0.83650  0.11330  0.50000  1.0000 0.1961035241
C   C70       1.0  0.16350  0.88670  0.50000  1.0000 0.1961035241
C   C71       1.0  0.83650  0.88670  0.00000  1.0000 0.1961035241
C   C72       1.0  0.16350  0.11330  0.00000  1.0000 0.1961035241
C   C73       1.0  0.80370  0.02740  0.00000  1.0000 0.2172095382
C   C74       1.0  0.19630  0.97260  0.00000  1.0000 0.2172095382
C   C75       1.0  0.19630  0.02740  0.50000  1.0000 0.2172095382
C   C76       1.0  0.80370  0.97260  0.50000  1.0000 0.2172095382
C   C77       1.0  0.97260  0.19630  0.50000  1.0000 0.2172095382
C   C78       1.0  0.02740  0.80370  0.50000  1.0000 0.2172095382
C   C79       1.0  0.97260  0.80370  0.00000  1.0000 0.2172095382
C   C80       1.0  0.02740  0.19630  0.00000  1.0000 0.2172095382
C   C81       1.0  0.97990  0.27740  0.00000  1.0000 -0.1757135915
C   C82       1.0  0.02010  0.72260  0.00000  1.0000 -0.1757135915
C   C83       1.0  0.02010  0.27740  0.50000  1.0000 -0.1757135915
C   C84       1.0  0.97990  0.72260  0.50000  1.0000 -0.1757135915
C   C85       1.0  0.72260  0.02010  0.50000  1.0000 -0.1757135915
C   C86       1.0  0.27740  0.97990  0.50000  1.0000 -0.1757135915
C   C87       1.0  0.72260  0.97990  0.00000  1.0000 -0.1757135915
C   C88       1.0  0.27740  0.02010  0.00000  1.0000 -0.1757135915
S   S1        1.0  0.47399  0.32117  0.00000  1.0000 1.2742508722
S   S2        1.0  0.52601  0.67883  0.00000  1.0000 1.2742508722
S   S3        1.0  0.52601  0.32117  0.50000  1.0000 1.2742508722
S   S4        1.0  0.47399  0.67883  0.50000  1.0000 1.2742508722
S   S5        1.0  0.67883  0.52601  0.50000  1.0000 1.2742508722
S   S6        1.0  0.32117  0.47399  0.50000  1.0000 1.2742508722
S   S7        1.0  0.67883  0.47399  0.00000  1.0000 1.2742508722
S   S8        1.0  0.32117  0.52601  0.00000  1.0000 1.2742508722
N   N1        1.0  0.97000  0.13040  0.00000  1.0000 -0.4808781969
N   N2        1.0  0.03000  0.86960  0.00000  1.0000 -0.4808781969
N   N3        1.0  0.03000  0.13040  0.50000  1.0000 -0.4808781969
N   N4        1.0  0.97000  0.86960  0.50000  1.0000 -0.4808781969
N   N5        1.0  0.86960  0.03000  0.50000  1.0000 -0.4808781969
N   N6        1.0  0.13040  0.97000  0.50000  1.0000 -0.4808781969
N   N7        1.0  0.86960  0.97000  0.00000  1.0000 -0.4808781969
N   N8        1.0  0.13040  0.03000  0.00000  1.0000 -0.4808781969
O   O1        1.0  0.41040  0.25300  0.00000  1.0000 -0.5526556897
O   O2        1.0  0.58960  0.74700  0.00000  1.0000 -0.5526556897
O   O3        1.0  0.58960  0.25300  0.50000  1.0000 -0.5526556897
O   O4        1.0  0.41040  0.74700  0.50000  1.0000 -0.5526556897
O   O5        1.0  0.74700  0.58960  0.50000  1.0000 -0.5526556897
O   O6        1.0  0.25300  0.41040  0.50000  1.0000 -0.5526556897
O   O7        1.0  0.74700  0.41040  0.00000  1.0000 -0.5526556897
O   O8        1.0  0.25300  0.58960  0.00000  1.0000 -0.5526556897
O   O9        1.0  0.46940  0.37360  0.12230  1.0000 -0.7309137064
O   O10       1.0  0.53060  0.62640  0.12230  1.0000 -0.7309137064
O   O11       1.0  0.53060  0.37360  0.37770  1.0000 -0.7309137064
O   O12       1.0  0.46940  0.62640  0.37770  1.0000 -0.7309137064
O   O13       1.0  0.62640  0.53060  0.37770  1.0000 -0.7309137064
O   O14       1.0  0.37360  0.46940  0.37770  1.0000 -0.7309137064
O   O15       1.0  0.62640  0.46940  0.12230  1.0000 -0.7309137064
O   O16       1.0  0.37360  0.53060  0.12230  1.0000 -0.7309137064
O   O17       1.0  0.53060  0.62640  0.87770  1.0000 -0.7309137064
O   O18       1.0  0.46940  0.37360  0.87770  1.0000 -0.7309137064
O   O19       1.0  0.46940  0.62640  0.62230  1.0000 -0.7309137064
O   O20       1.0  0.53060  0.37360  0.62230  1.0000 -0.7309137064
O   O21       1.0  0.37360  0.46940  0.62230  1.0000 -0.7309137064
O   O22       1.0  0.62640  0.53060  0.62230  1.0000 -0.7309137064
O   O23       1.0  0.37360  0.53060  0.87770  1.0000 -0.7309137064
O   O24       1.0  0.62640  0.46940  0.87770  1.0000 -0.7309137064
O   O25       1.0  0.00000  0.00000  0.25000  1.0000 -0.4738219904
O   O26       1.0  0.00000  0.00000  0.75000  1.0000 -0.4808781969
