# DDEC6 charges by PACMAN v1.1 (https://github.com/mtap-research/PACMAN-charge/)
data_2012[Ni][nan]3[ASR]3
_chemical_formula_sum              "Ni6 H6 C24 O18"
_cell_length_a       15.0947
_cell_length_b       15.0947
_cell_length_c       15.0947
_cell_angle_alpha    117.843
_cell_angle_beta     117.843
_cell_angle_gamma    117.843

_symmetry_space_group_name_H-M    "P 1"
_symmetry_Int_Tables_number       1

loop_
  _symmetry_equiv_pos_as_xyz
  'x, y, z'

loop_
  _atom_site_type_symbol
  _atom_site_label
  _atom_site_symmetry_multiplicity
  _atom_site_fract_x
  _atom_site_fract_y
  _atom_site_fract_z
  _atom_site_occupancy
  _atom_site_charge
Ni  Ni1       1.0  0.10963  0.52830  0.79566  1.0000 0.8897948238
Ni  Ni2       1.0  0.52830  0.79566  0.10963  1.0000 0.8897948238
Ni  Ni3       1.0  0.79566  0.10963  0.52830  1.0000 0.8897948238
Ni  Ni4       1.0  0.89037  0.47170  0.20434  1.0000 0.8897948238
Ni  Ni5       1.0  0.47170  0.20434  0.89037  1.0000 0.8897948238
Ni  Ni6       1.0  0.20434  0.89037  0.47170  1.0000 0.8897948238
H   H1        1.0  0.64310  0.16521  0.61902  1.0000 0.1358850918
H   H2        1.0  0.16521  0.61902  0.64310  1.0000 0.1358850918
H   H3        1.0  0.61902  0.64310  0.16521  1.0000 0.1358850918
H   H4        1.0  0.35690  0.83479  0.38098  1.0000 0.1358850918
H   H5        1.0  0.83479  0.38098  0.35690  1.0000 0.1358850918
H   H6        1.0  0.38098  0.35690  0.83479  1.0000 0.1358850918
C   C1        1.0  0.16897  0.61102  0.08332  1.0000 -0.1281139382
C   C2        1.0  0.61102  0.08332  0.16897  1.0000 -0.1281139382
C   C3        1.0  0.08332  0.16897  0.61102  1.0000 -0.1281139382
C   C4        1.0  0.83103  0.38898  0.91668  1.0000 -0.1281139382
C   C5        1.0  0.38898  0.91668  0.83103  1.0000 -0.1281139382
C   C6        1.0  0.91668  0.83103  0.38898  1.0000 -0.1281139382
C   C7        1.0  0.96808  0.42259  0.86889  1.0000 0.2734986566
C   C8        1.0  0.42259  0.86889  0.96808  1.0000 0.2734986566
C   C9        1.0  0.86889  0.96808  0.42259  1.0000 0.2734986566
C   C10       1.0  0.03192  0.57741  0.13111  1.0000 0.2734986566
C   C11       1.0  0.57741  0.13111  0.03192  1.0000 0.2734986566
C   C12       1.0  0.13111  0.03192  0.57741  1.0000 0.2734986566
C   C13       1.0  0.79912  0.31157  0.78557  1.0000 -0.1843872446
C   C14       1.0  0.31157  0.78557  0.79912  1.0000 -0.1843872446
C   C15       1.0  0.78557  0.79912  0.31157  1.0000 -0.1843872446
C   C16       1.0  0.20088  0.68843  0.21443  1.0000 -0.1843872446
C   C17       1.0  0.68843  0.21443  0.20088  1.0000 -0.1843872446
C   C18       1.0  0.21443  0.20088  0.68843  1.0000 -0.1843872446
C   C19       1.0  0.35068  0.73042  0.17293  1.0000 0.6342183821
C   C20       1.0  0.73042  0.17293  0.35068  1.0000 0.6342183821
C   C21       1.0  0.17293  0.35068  0.73042  1.0000 0.6342183821
C   C22       1.0  0.64932  0.26958  0.82707  1.0000 0.6342183821
C   C23       1.0  0.26958  0.82707  0.64932  1.0000 0.6342183821
C   C24       1.0  0.82707  0.64932  0.26958  1.0000 0.6342183821
O   O1        1.0  0.32195  0.66068  0.05477  1.0000 -0.5455390581
O   O2        1.0  0.66068  0.05477  0.32195  1.0000 -0.5455390581
O   O3        1.0  0.05477  0.32195  0.66068  1.0000 -0.5455390581
O   O4        1.0  0.67805  0.33932  0.94523  1.0000 -0.5455390581
O   O5        1.0  0.33932  0.94523  0.67805  1.0000 -0.5455390581
O   O6        1.0  0.94523  0.67805  0.33932  1.0000 -0.5443468817
O   O7        1.0  0.53180  0.90032  0.36626  1.0000 -0.5052917965
O   O8        1.0  0.90032  0.36626  0.53180  1.0000 -0.5052917965
O   O9        1.0  0.36626  0.53180  0.90032  1.0000 -0.5052917965
O   O10       1.0  0.46820  0.09968  0.63374  1.0000 -0.504451228
O   O11       1.0  0.09968  0.63374  0.46820  1.0000 -0.5052917965
O   O12       1.0  0.63374  0.46820  0.09968  1.0000 -0.5052917965
O   O13       1.0  0.93717  0.34762  0.74191  1.0000 -0.5704037078
O   O14       1.0  0.34762  0.74191  0.93717  1.0000 -0.5704037078
O   O15       1.0  0.74191  0.93717  0.34762  1.0000 -0.5704037078
O   O16       1.0  0.06283  0.65238  0.25809  1.0000 -0.5704037078
O   O17       1.0  0.65238  0.25809  0.06283  1.0000 -0.5704037078
O   O18       1.0  0.25809  0.06283  0.65238  1.0000 -0.5704037078
