# DDEC6 charges by PACMAN v1.1 (https://github.com/mtap-research/PACMAN-charge/)
data_2012[Cu][nts]3[ASR]1
_chemical_formula_sum              "Cu24 H144 C264 O120"
_cell_length_a       29.3304
_cell_length_b       29.3304
_cell_length_c       29.3304
_cell_angle_alpha    60
_cell_angle_beta     60
_cell_angle_gamma    60

_symmetry_space_group_name_H-M    "P 1"
_symmetry_Int_Tables_number       1

loop_
  _symmetry_equiv_pos_as_xyz
  'x, y, z'

loop_
  _atom_site_type_symbol
  _atom_site_label
  _atom_site_symmetry_multiplicity
  _atom_site_fract_x
  _atom_site_fract_y
  _atom_site_fract_z
  _atom_site_occupancy
  _atom_site_charge
Cu  Cu1       1.0  0.99873  0.63951  0.00127  1.0000 0.8803947484
Cu  Cu2       1.0  0.63951  0.99873  0.36049  1.0000 0.8803947484
Cu  Cu3       1.0  0.00127  0.36049  0.99873  1.0000 0.8803947484
Cu  Cu4       1.0  0.36049  0.00127  0.63951  1.0000 0.8803947484
Cu  Cu5       1.0  0.00127  0.99873  0.63951  1.0000 0.8803947484
Cu  Cu6       1.0  0.36049  0.63951  0.99873  1.0000 0.8803947484
Cu  Cu7       1.0  0.99873  0.00127  0.36049  1.0000 0.8803947484
Cu  Cu8       1.0  0.63951  0.36049  0.00127  1.0000 0.8803947484
Cu  Cu9       1.0  0.63951  0.00127  0.99873  1.0000 0.8803947484
Cu  Cu10      1.0  0.99873  0.36049  0.63951  1.0000 0.8803947484
Cu  Cu11      1.0  0.36049  0.99873  0.00127  1.0000 0.8803947484
Cu  Cu12      1.0  0.00127  0.63951  0.36049  1.0000 0.8803947484
Cu  Cu13      1.0  0.99948  0.72948  0.00052  1.0000 0.874175727
Cu  Cu14      1.0  0.72948  0.99948  0.27052  1.0000 0.8803947484
Cu  Cu15      1.0  0.00052  0.27052  0.99948  1.0000 0.874175727
Cu  Cu16      1.0  0.27052  0.00052  0.72948  1.0000 0.874175727
Cu  Cu17      1.0  0.00052  0.99948  0.72948  1.0000 0.874175727
Cu  Cu18      1.0  0.27052  0.72948  0.99948  1.0000 0.874175727
Cu  Cu19      1.0  0.99948  0.00052  0.27052  1.0000 0.8803947484
Cu  Cu20      1.0  0.72948  0.27052  0.00052  1.0000 0.874175727
Cu  Cu21      1.0  0.72948  0.00052  0.99948  1.0000 0.8803947484
Cu  Cu22      1.0  0.99948  0.27052  0.72948  1.0000 0.874175727
Cu  Cu23      1.0  0.27052  0.99948  0.00052  1.0000 0.874175727
Cu  Cu24      1.0  0.00052  0.72948  0.27052  1.0000 0.874175727
H   H1        1.0  0.01320  0.82880  0.83320  1.0000 0.1447050617
H   H2        1.0  0.82880  0.01320  0.32480  1.0000 0.1447050617
H   H3        1.0  0.83320  0.32480  0.01320  1.0000 0.1447050617
H   H4        1.0  0.32480  0.83320  0.82880  1.0000 0.1447050617
H   H5        1.0  0.83320  0.01320  0.82880  1.0000 0.1512682438
H   H6        1.0  0.32480  0.82880  0.01320  1.0000 0.1447050617
H   H7        1.0  0.01320  0.83320  0.32480  1.0000 0.1447050617
H   H8        1.0  0.82880  0.32480  0.83320  1.0000 0.1512682438
H   H9        1.0  0.82880  0.83320  0.01320  1.0000 0.1447050617
H   H10       1.0  0.01320  0.32480  0.82880  1.0000 0.1447050617
H   H11       1.0  0.32480  0.01320  0.83320  1.0000 0.1512682438
H   H12       1.0  0.83320  0.82880  0.32480  1.0000 0.1447050617
H   H13       1.0  0.98680  0.17120  0.16680  1.0000 0.1447050617
H   H14       1.0  0.17120  0.98680  0.67520  1.0000 0.1447050617
H   H15       1.0  0.16680  0.67520  0.98680  1.0000 0.1447050617
H   H16       1.0  0.67520  0.16680  0.17120  1.0000 0.1447050617
H   H17       1.0  0.16680  0.98680  0.17120  1.0000 0.1512682438
H   H18       1.0  0.67520  0.17120  0.98680  1.0000 0.1447050617
H   H19       1.0  0.98680  0.16680  0.67520  1.0000 0.1447050617
H   H20       1.0  0.17120  0.67520  0.16680  1.0000 0.1512682438
H   H21       1.0  0.17120  0.16680  0.98680  1.0000 0.1447050617
H   H22       1.0  0.98680  0.67520  0.17120  1.0000 0.1447050617
H   H23       1.0  0.67520  0.98680  0.16680  1.0000 0.1447050617
H   H24       1.0  0.16680  0.17120  0.67520  1.0000 0.1447050617
H   H25       1.0  0.02930  0.82170  0.69130  1.0000 0.1294963853
H   H26       1.0  0.82170  0.02930  0.45770  1.0000 0.1294963853
H   H27       1.0  0.69130  0.45770  0.02930  1.0000 0.1294963853
H   H28       1.0  0.45770  0.69130  0.82170  1.0000 0.1294963853
H   H29       1.0  0.69130  0.02930  0.82170  1.0000 0.1294963853
H   H30       1.0  0.45770  0.82170  0.02930  1.0000 0.1294963853
H   H31       1.0  0.02930  0.69130  0.45770  1.0000 0.1294963853
H   H32       1.0  0.82170  0.45770  0.69130  1.0000 0.1294963853
H   H33       1.0  0.82170  0.69130  0.02930  1.0000 0.1294963853
H   H34       1.0  0.02930  0.45770  0.82170  1.0000 0.1294963853
H   H35       1.0  0.45770  0.02930  0.69130  1.0000 0.1294963853
H   H36       1.0  0.69130  0.82170  0.45770  1.0000 0.1294963853
H   H37       1.0  0.97070  0.17830  0.30870  1.0000 0.1294963853
H   H38       1.0  0.17830  0.97070  0.54230  1.0000 0.1294963853
H   H39       1.0  0.30870  0.54230  0.97070  1.0000 0.1294963853
H   H40       1.0  0.54230  0.30870  0.17830  1.0000 0.1294963853
H   H41       1.0  0.30870  0.97070  0.17830  1.0000 0.1294963853
H   H42       1.0  0.54230  0.17830  0.97070  1.0000 0.1294963853
H   H43       1.0  0.97070  0.30870  0.54230  1.0000 0.1294963853
H   H44       1.0  0.17830  0.54230  0.30870  1.0000 0.1294963853
H   H45       1.0  0.17830  0.30870  0.97070  1.0000 0.1294963853
H   H46       1.0  0.97070  0.54230  0.17830  1.0000 0.1294963853
H   H47       1.0  0.54230  0.97070  0.30870  1.0000 0.1294963853
H   H48       1.0  0.30870  0.17830  0.54230  1.0000 0.1294963853
H   H49       1.0  0.04690  0.67930  0.82650  1.0000 0.1512682438
H   H50       1.0  0.67930  0.04690  0.44730  1.0000 0.1512682438
H   H51       1.0  0.82650  0.44730  0.04690  1.0000 0.1512682438
H   H52       1.0  0.44730  0.82650  0.67930  1.0000 0.1512682438
H   H53       1.0  0.82650  0.04690  0.67930  1.0000 0.1512682438
H   H54       1.0  0.44730  0.67930  0.04690  1.0000 0.1512682438
H   H55       1.0  0.04690  0.82650  0.44730  1.0000 0.1512682438
H   H56       1.0  0.67930  0.44730  0.82650  1.0000 0.1512682438
H   H57       1.0  0.67930  0.82650  0.04690  1.0000 0.1512682438
H   H58       1.0  0.04690  0.44730  0.67930  1.0000 0.1512682438
H   H59       1.0  0.44730  0.04690  0.82650  1.0000 0.1512682438
H   H60       1.0  0.82650  0.67930  0.44730  1.0000 0.1512682438
H   H61       1.0  0.95310  0.32070  0.17350  1.0000 0.1512682438
H   H62       1.0  0.32070  0.95310  0.55270  1.0000 0.1512682438
H   H63       1.0  0.17350  0.55270  0.95310  1.0000 0.1512682438
H   H64       1.0  0.55270  0.17350  0.32070  1.0000 0.1512682438
H   H65       1.0  0.17350  0.95310  0.32070  1.0000 0.1512682438
H   H66       1.0  0.55270  0.32070  0.95310  1.0000 0.1512682438
H   H67       1.0  0.95310  0.17350  0.55270  1.0000 0.1512682438
H   H68       1.0  0.32070  0.55270  0.17350  1.0000 0.1512682438
H   H69       1.0  0.32070  0.17350  0.95310  1.0000 0.1512682438
H   H70       1.0  0.95310  0.55270  0.32070  1.0000 0.1512682438
H   H71       1.0  0.55270  0.95310  0.17350  1.0000 0.1512682438
H   H72       1.0  0.17350  0.32070  0.55270  1.0000 0.1512682438
H   H73       1.0  0.08630  0.74070  0.65350  1.0000 0.1199387973
H   H74       1.0  0.74070  0.08630  0.51950  1.0000 0.1199387973
H   H75       1.0  0.65350  0.51950  0.08630  1.0000 0.1199387973
H   H76       1.0  0.51950  0.65350  0.74070  1.0000 0.1199387973
H   H77       1.0  0.65350  0.08630  0.74070  1.0000 0.1199387973
H   H78       1.0  0.51950  0.74070  0.08630  1.0000 0.1115444053
H   H79       1.0  0.08630  0.65350  0.51950  1.0000 0.1199387973
H   H80       1.0  0.74070  0.51950  0.65350  1.0000 0.1115444053
H   H81       1.0  0.74070  0.65350  0.08630  1.0000 0.1115444053
H   H82       1.0  0.08630  0.51950  0.74070  1.0000 0.1199387973
H   H83       1.0  0.51950  0.08630  0.65350  1.0000 0.1199387973
H   H84       1.0  0.65350  0.74070  0.51950  1.0000 0.1199387973
H   H85       1.0  0.91370  0.25930  0.34650  1.0000 0.1115444053
H   H86       1.0  0.25930  0.91370  0.48050  1.0000 0.1115444053
H   H87       1.0  0.34650  0.48050  0.91370  1.0000 0.1199387973
H   H88       1.0  0.48050  0.34650  0.25930  1.0000 0.1115444053
H   H89       1.0  0.34650  0.91370  0.25930  1.0000 0.1199387973
H   H90       1.0  0.48050  0.25930  0.91370  1.0000 0.1199387973
H   H91       1.0  0.91370  0.34650  0.48050  1.0000 0.1115444053
H   H92       1.0  0.25930  0.48050  0.34650  1.0000 0.1115444053
H   H93       1.0  0.25930  0.34650  0.91370  1.0000 0.1199387973
H   H94       1.0  0.91370  0.48050  0.25930  1.0000 0.1115444053
H   H95       1.0  0.48050  0.91370  0.34650  1.0000 0.1199387973
H   H96       1.0  0.34650  0.25930  0.48050  1.0000 0.1199387973
H   H97       1.0  0.01940  0.76700  0.66880  1.0000 0.1115444053
H   H98       1.0  0.76700  0.01940  0.54480  1.0000 0.1115444053
H   H99       1.0  0.66880  0.54480  0.01940  1.0000 0.1115444053
H   H100      1.0  0.54480  0.66880  0.76700  1.0000 0.1115444053
H   H101      1.0  0.66880  0.01940  0.76700  1.0000 0.1115444053
H   H102      1.0  0.54480  0.76700  0.01940  1.0000 0.1115444053
H   H103      1.0  0.01940  0.66880  0.54480  1.0000 0.1115444053
H   H104      1.0  0.76700  0.54480  0.66880  1.0000 0.1115444053
H   H105      1.0  0.76700  0.66880  0.01940  1.0000 0.1115444053
H   H106      1.0  0.01940  0.54480  0.76700  1.0000 0.1115444053
H   H107      1.0  0.54480  0.01940  0.66880  1.0000 0.1115444053
H   H108      1.0  0.66880  0.76700  0.54480  1.0000 0.1115444053
H   H109      1.0  0.98060  0.23300  0.33120  1.0000 0.1115444053
H   H110      1.0  0.23300  0.98060  0.45520  1.0000 0.1115444053
H   H111      1.0  0.33120  0.45520  0.98060  1.0000 0.1115444053
H   H112      1.0  0.45520  0.33120  0.23300  1.0000 0.1115444053
H   H113      1.0  0.33120  0.98060  0.23300  1.0000 0.1115444053
H   H114      1.0  0.45520  0.23300  0.98060  1.0000 0.1115444053
H   H115      1.0  0.98060  0.33120  0.45520  1.0000 0.1115444053
H   H116      1.0  0.23300  0.45520  0.33120  1.0000 0.1115444053
H   H117      1.0  0.23300  0.33120  0.98060  1.0000 0.1115444053
H   H118      1.0  0.98060  0.45520  0.23300  1.0000 0.1115444053
H   H119      1.0  0.45520  0.98060  0.33120  1.0000 0.1115444053
H   H120      1.0  0.33120  0.23300  0.45520  1.0000 0.1115444053
H   H121      1.0  0.05260  0.74000  0.58520  1.0000 0.1199387973
H   H122      1.0  0.74000  0.05260  0.62220  1.0000 0.1199387973
H   H123      1.0  0.58520  0.62220  0.05260  1.0000 0.1199387973
H   H124      1.0  0.62220  0.58520  0.74000  1.0000 0.1199387973
H   H125      1.0  0.58520  0.05260  0.74000  1.0000 0.1199387973
H   H126      1.0  0.62220  0.74000  0.05260  1.0000 0.1199387973
H   H127      1.0  0.05260  0.58520  0.62220  1.0000 0.1199387973
H   H128      1.0  0.74000  0.62220  0.58520  1.0000 0.1199387973
H   H129      1.0  0.74000  0.58520  0.05260  1.0000 0.1199387973
H   H130      1.0  0.05260  0.62220  0.74000  1.0000 0.1199387973
H   H131      1.0  0.62220  0.05260  0.58520  1.0000 0.1199387973
H   H132      1.0  0.58520  0.74000  0.62220  1.0000 0.1199387973
H   H133      1.0  0.94740  0.26000  0.41480  1.0000 0.1199387973
H   H134      1.0  0.26000  0.94740  0.37780  1.0000 0.1199387973
H   H135      1.0  0.41480  0.37780  0.94740  1.0000 0.1199387973
H   H136      1.0  0.37780  0.41480  0.26000  1.0000 0.1199387973
H   H137      1.0  0.41480  0.94740  0.26000  1.0000 0.1199387973
H   H138      1.0  0.37780  0.26000  0.94740  1.0000 0.1199387973
H   H139      1.0  0.94740  0.41480  0.37780  1.0000 0.1199387973
H   H140      1.0  0.26000  0.37780  0.41480  1.0000 0.1199387973
H   H141      1.0  0.26000  0.41480  0.94740  1.0000 0.1199387973
H   H142      1.0  0.94740  0.37780  0.26000  1.0000 0.1199387973
H   H143      1.0  0.37780  0.94740  0.41480  1.0000 0.1199387973
H   H144      1.0  0.41480  0.26000  0.37780  1.0000 0.1199387973
C   C1        1.0  0.02610  0.75270  0.83670  1.0000 0.0034230777
C   C2        1.0  0.75270  0.02610  0.38450  1.0000 0.0034230777
C   C3        1.0  0.83670  0.38450  0.02610  1.0000 0.0034230777
C   C4        1.0  0.38450  0.83670  0.75270  1.0000 0.0034230777
C   C5        1.0  0.83670  0.02610  0.75270  1.0000 0.0034230777
C   C6        1.0  0.38450  0.75270  0.02610  1.0000 0.0034230777
C   C7        1.0  0.02610  0.83670  0.38450  1.0000 0.0034230777
C   C8        1.0  0.75270  0.38450  0.83670  1.0000 0.0034230777
C   C9        1.0  0.75270  0.83670  0.02610  1.0000 0.0034230777
C   C10       1.0  0.02610  0.38450  0.75270  1.0000 0.0034230777
C   C11       1.0  0.38450  0.02610  0.83670  1.0000 0.0034230777
C   C12       1.0  0.83670  0.75270  0.38450  1.0000 0.0034230777
C   C13       1.0  0.97390  0.24730  0.16330  1.0000 0.0034230777
C   C14       1.0  0.24730  0.97390  0.61550  1.0000 0.0034230777
C   C15       1.0  0.16330  0.61550  0.97390  1.0000 0.0034230777
C   C16       1.0  0.61550  0.16330  0.24730  1.0000 0.0034230777
C   C17       1.0  0.16330  0.97390  0.24730  1.0000 0.0034230777
C   C18       1.0  0.61550  0.24730  0.97390  1.0000 0.0034230777
C   C19       1.0  0.97390  0.16330  0.61550  1.0000 0.0034230777
C   C20       1.0  0.24730  0.61550  0.16330  1.0000 0.0034230777
C   C21       1.0  0.24730  0.16330  0.97390  1.0000 0.0034230777
C   C22       1.0  0.97390  0.61550  0.24730  1.0000 0.0034230777
C   C23       1.0  0.61550  0.97390  0.16330  1.0000 0.0034230777
C   C24       1.0  0.16330  0.24730  0.61550  1.0000 0.0034230777
C   C25       1.0  0.01972  0.80854  0.81224  1.0000 -0.1442891542
C   C26       1.0  0.80854  0.01972  0.35950  1.0000 -0.1442891542
C   C27       1.0  0.81224  0.35950  0.01972  1.0000 -0.1454984947
C   C28       1.0  0.35950  0.81224  0.80854  1.0000 -0.1442891542
C   C29       1.0  0.81224  0.01972  0.80854  1.0000 -0.1442891542
C   C30       1.0  0.35950  0.80854  0.01972  1.0000 -0.1454984947
C   C31       1.0  0.01972  0.81224  0.35950  1.0000 -0.1442891542
C   C32       1.0  0.80854  0.35950  0.81224  1.0000 -0.1442891542
C   C33       1.0  0.80854  0.81224  0.01972  1.0000 -0.1454984947
C   C34       1.0  0.01972  0.35950  0.80854  1.0000 -0.1442891542
C   C35       1.0  0.35950  0.01972  0.81224  1.0000 -0.1442891542
C   C36       1.0  0.81224  0.80854  0.35950  1.0000 -0.1454984947
C   C37       1.0  0.98028  0.19146  0.18776  1.0000 -0.1454984947
C   C38       1.0  0.19146  0.98028  0.64050  1.0000 -0.1454984947
C   C39       1.0  0.18776  0.64050  0.98028  1.0000 -0.1442891542
C   C40       1.0  0.64050  0.18776  0.19146  1.0000 -0.1454984947
C   C41       1.0  0.18776  0.98028  0.19146  1.0000 -0.1454984947
C   C42       1.0  0.64050  0.19146  0.98028  1.0000 -0.1442891542
C   C43       1.0  0.98028  0.18776  0.64050  1.0000 -0.1442891542
C   C44       1.0  0.19146  0.64050  0.18776  1.0000 -0.1454984947
C   C45       1.0  0.19146  0.18776  0.98028  1.0000 -0.1442891542
C   C46       1.0  0.98028  0.64050  0.19146  1.0000 -0.1454984947
C   C47       1.0  0.64050  0.98028  0.18776  1.0000 -0.1454984947
C   C48       1.0  0.18776  0.19146  0.64050  1.0000 -0.1442891542
C   C49       1.0  0.02280  0.83520  0.75680  1.0000 0.0091004461
C   C50       1.0  0.83520  0.02280  0.38520  1.0000 0.0091004461
C   C51       1.0  0.75680  0.38520  0.02280  1.0000 0.0091004461
C   C52       1.0  0.38520  0.75680  0.83520  1.0000 0.0091004461
C   C53       1.0  0.75680  0.02280  0.83520  1.0000 0.0091004461
C   C54       1.0  0.38520  0.83520  0.02280  1.0000 0.0091004461
C   C55       1.0  0.02280  0.75680  0.38520  1.0000 0.0091004461
C   C56       1.0  0.83520  0.38520  0.75680  1.0000 0.0091004461
C   C57       1.0  0.83520  0.75680  0.02280  1.0000 0.0091004461
C   C58       1.0  0.02280  0.38520  0.83520  1.0000 0.0091004461
C   C59       1.0  0.38520  0.02280  0.75680  1.0000 0.0091004461
C   C60       1.0  0.75680  0.83520  0.38520  1.0000 0.0091004461
C   C61       1.0  0.97720  0.16480  0.24320  1.0000 0.0091004461
C   C62       1.0  0.16480  0.97720  0.61480  1.0000 0.0091004461
C   C63       1.0  0.24320  0.61480  0.97720  1.0000 0.0091004461
C   C64       1.0  0.61480  0.24320  0.16480  1.0000 0.0091004461
C   C65       1.0  0.24320  0.97720  0.16480  1.0000 0.0091004461
C   C66       1.0  0.61480  0.16480  0.97720  1.0000 0.0091004461
C   C67       1.0  0.97720  0.24320  0.61480  1.0000 0.0091004461
C   C68       1.0  0.16480  0.61480  0.24320  1.0000 0.0091004461
C   C69       1.0  0.16480  0.24320  0.97720  1.0000 0.0091004461
C   C70       1.0  0.97720  0.61480  0.16480  1.0000 0.0091004461
C   C71       1.0  0.61480  0.97720  0.24320  1.0000 0.0091004461
C   C72       1.0  0.24320  0.16480  0.61480  1.0000 0.0091004461
C   C73       1.0  0.02980  0.80400  0.72840  1.0000 -0.251245427
C   C74       1.0  0.80400  0.02980  0.43780  1.0000 -0.251245427
C   C75       1.0  0.72840  0.43780  0.02980  1.0000 -0.251245427
C   C76       1.0  0.43780  0.72840  0.80400  1.0000 -0.251245427
C   C77       1.0  0.72840  0.02980  0.80400  1.0000 -0.251245427
C   C78       1.0  0.43780  0.80400  0.02980  1.0000 -0.251245427
C   C79       1.0  0.02980  0.72840  0.43780  1.0000 -0.251245427
C   C80       1.0  0.80400  0.43780  0.72840  1.0000 -0.251245427
C   C81       1.0  0.80400  0.72840  0.02980  1.0000 -0.251245427
C   C82       1.0  0.02980  0.43780  0.80400  1.0000 -0.251245427
C   C83       1.0  0.43780  0.02980  0.72840  1.0000 -0.251245427
C   C84       1.0  0.72840  0.80400  0.43780  1.0000 -0.251245427
C   C85       1.0  0.97020  0.19600  0.27160  1.0000 -0.251245427
C   C86       1.0  0.19600  0.97020  0.56220  1.0000 -0.251245427
C   C87       1.0  0.27160  0.56220  0.97020  1.0000 -0.251245427
C   C88       1.0  0.56220  0.27160  0.19600  1.0000 -0.251245427
C   C89       1.0  0.27160  0.97020  0.19600  1.0000 -0.251245427
C   C90       1.0  0.56220  0.19600  0.97020  1.0000 -0.251245427
C   C91       1.0  0.97020  0.27160  0.56220  1.0000 -0.251245427
C   C92       1.0  0.19600  0.56220  0.27160  1.0000 -0.251245427
C   C93       1.0  0.19600  0.27160  0.97020  1.0000 -0.251245427
C   C94       1.0  0.97020  0.56220  0.19600  1.0000 -0.251245427
C   C95       1.0  0.56220  0.97020  0.27160  1.0000 -0.251245427
C   C96       1.0  0.27160  0.19600  0.56220  1.0000 -0.251245427
C   C97       1.0  0.03750  0.74710  0.75470  1.0000 0.2410553529
C   C98       1.0  0.74710  0.03750  0.46070  1.0000 0.2410553529
C   C99       1.0  0.75470  0.46070  0.03750  1.0000 0.2410553529
C   C100      1.0  0.46070  0.75470  0.74710  1.0000 0.2410553529
C   C101      1.0  0.75470  0.03750  0.74710  1.0000 0.2410553529
C   C102      1.0  0.46070  0.74710  0.03750  1.0000 0.2410553529
C   C103      1.0  0.03750  0.75470  0.46070  1.0000 0.2410553529
C   C104      1.0  0.74710  0.46070  0.75470  1.0000 0.2410553529
C   C105      1.0  0.74710  0.75470  0.03750  1.0000 0.2410553529
C   C106      1.0  0.03750  0.46070  0.74710  1.0000 0.2410553529
C   C107      1.0  0.46070  0.03750  0.75470  1.0000 0.2410553529
C   C108      1.0  0.75470  0.74710  0.46070  1.0000 0.2410553529
C   C109      1.0  0.96250  0.25290  0.24530  1.0000 0.2410553529
C   C110      1.0  0.25290  0.96250  0.53930  1.0000 0.2410553529
C   C111      1.0  0.24530  0.53930  0.96250  1.0000 0.2410553529
C   C112      1.0  0.53930  0.24530  0.25290  1.0000 0.2410553529
C   C113      1.0  0.24530  0.96250  0.25290  1.0000 0.2410553529
C   C114      1.0  0.53930  0.25290  0.96250  1.0000 0.2410553529
C   C115      1.0  0.96250  0.24530  0.53930  1.0000 0.2410553529
C   C116      1.0  0.25290  0.53930  0.24530  1.0000 0.2410553529
C   C117      1.0  0.25290  0.24530  0.96250  1.0000 0.2410553529
C   C118      1.0  0.96250  0.53930  0.25290  1.0000 0.2410553529
C   C119      1.0  0.53930  0.96250  0.24530  1.0000 0.2410553529
C   C120      1.0  0.24530  0.25290  0.53930  1.0000 0.2410553529
C   C121      1.0  0.03850  0.71850  0.80950  1.0000 -0.2271068131
C   C122      1.0  0.71850  0.03850  0.43350  1.0000 -0.2271068131
C   C123      1.0  0.80950  0.43350  0.03850  1.0000 -0.2271068131
C   C124      1.0  0.43350  0.80950  0.71850  1.0000 -0.2271068131
C   C125      1.0  0.80950  0.03850  0.71850  1.0000 -0.2271068131
C   C126      1.0  0.43350  0.71850  0.03850  1.0000 -0.2271068131
C   C127      1.0  0.03850  0.80950  0.43350  1.0000 -0.2271068131
C   C128      1.0  0.71850  0.43350  0.80950  1.0000 -0.2271068131
C   C129      1.0  0.71850  0.80950  0.03850  1.0000 -0.2271068131
C   C130      1.0  0.03850  0.43350  0.71850  1.0000 -0.2271068131
C   C131      1.0  0.43350  0.03850  0.80950  1.0000 -0.2271068131
C   C132      1.0  0.80950  0.71850  0.43350  1.0000 -0.2271068131
C   C133      1.0  0.96150  0.28150  0.19050  1.0000 -0.2271068131
C   C134      1.0  0.28150  0.96150  0.56650  1.0000 -0.2271068131
C   C135      1.0  0.19050  0.56650  0.96150  1.0000 -0.2271068131
C   C136      1.0  0.56650  0.19050  0.28150  1.0000 -0.2271068131
C   C137      1.0  0.19050  0.96150  0.28150  1.0000 -0.2271068131
C   C138      1.0  0.56650  0.28150  0.96150  1.0000 -0.2271068131
C   C139      1.0  0.96150  0.19050  0.56650  1.0000 -0.2271068131
C   C140      1.0  0.28150  0.56650  0.19050  1.0000 -0.2271068131
C   C141      1.0  0.28150  0.19050  0.96150  1.0000 -0.2271068131
C   C142      1.0  0.96150  0.56650  0.28150  1.0000 -0.2271068131
C   C143      1.0  0.56650  0.96150  0.19050  1.0000 -0.2271068131
C   C144      1.0  0.19050  0.28150  0.56650  1.0000 -0.2271068131
C   C145      1.0  0.01290  0.89730  0.73190  1.0000 0.577693195
C   C146      1.0  0.89730  0.01290  0.35790  1.0000 0.577693195
C   C147      1.0  0.73190  0.35790  0.01290  1.0000 0.577693195
C   C148      1.0  0.35790  0.73190  0.89730  1.0000 0.577693195
C   C149      1.0  0.73190  0.01290  0.89730  1.0000 0.577693195
C   C150      1.0  0.35790  0.89730  0.01290  1.0000 0.577693195
C   C151      1.0  0.01290  0.73190  0.35790  1.0000 0.577693195
C   C152      1.0  0.89730  0.35790  0.73190  1.0000 0.577693195
C   C153      1.0  0.89730  0.73190  0.01290  1.0000 0.577693195
C   C154      1.0  0.01290  0.35790  0.89730  1.0000 0.577693195
C   C155      1.0  0.35790  0.01290  0.73190  1.0000 0.577693195
C   C156      1.0  0.73190  0.89730  0.35790  1.0000 0.577693195
C   C157      1.0  0.98710  0.10270  0.26810  1.0000 0.577693195
C   C158      1.0  0.10270  0.98710  0.64210  1.0000 0.577693195
C   C159      1.0  0.26810  0.64210  0.98710  1.0000 0.577693195
C   C160      1.0  0.64210  0.26810  0.10270  1.0000 0.577693195
C   C161      1.0  0.26810  0.98710  0.10270  1.0000 0.577693195
C   C162      1.0  0.64210  0.10270  0.98710  1.0000 0.577693195
C   C163      1.0  0.98710  0.26810  0.64210  1.0000 0.577693195
C   C164      1.0  0.10270  0.64210  0.26810  1.0000 0.577693195
C   C165      1.0  0.10270  0.26810  0.98710  1.0000 0.577693195
C   C166      1.0  0.98710  0.64210  0.10270  1.0000 0.577693195
C   C167      1.0  0.64210  0.98710  0.26810  1.0000 0.577693195
C   C168      1.0  0.26810  0.10270  0.64210  1.0000 0.577693195
C   C169      1.0  0.02320  0.72120  0.89660  1.0000 0.577693195
C   C170      1.0  0.72120  0.02320  0.35900  1.0000 0.577693195
C   C171      1.0  0.89660  0.35900  0.02320  1.0000 0.577693195
C   C172      1.0  0.35900  0.89660  0.72120  1.0000 0.577693195
C   C173      1.0  0.89660  0.02320  0.72120  1.0000 0.577693195
C   C174      1.0  0.35900  0.72120  0.02320  1.0000 0.577693195
C   C175      1.0  0.02320  0.89660  0.35900  1.0000 0.577693195
C   C176      1.0  0.72120  0.35900  0.89660  1.0000 0.577693195
C   C177      1.0  0.72120  0.89660  0.02320  1.0000 0.577693195
C   C178      1.0  0.02320  0.35900  0.72120  1.0000 0.577693195
C   C179      1.0  0.35900  0.02320  0.89660  1.0000 0.577693195
C   C180      1.0  0.89660  0.72120  0.35900  1.0000 0.577693195
C   C181      1.0  0.97680  0.27880  0.10340  1.0000 0.577693195
C   C182      1.0  0.27880  0.97680  0.64100  1.0000 0.577693195
C   C183      1.0  0.10340  0.64100  0.97680  1.0000 0.577693195
C   C184      1.0  0.64100  0.10340  0.27880  1.0000 0.577693195
C   C185      1.0  0.10340  0.97680  0.27880  1.0000 0.577693195
C   C186      1.0  0.64100  0.27880  0.97680  1.0000 0.577693195
C   C187      1.0  0.97680  0.10340  0.64100  1.0000 0.577693195
C   C188      1.0  0.27880  0.64100  0.10340  1.0000 0.577693195
C   C189      1.0  0.27880  0.10340  0.97680  1.0000 0.577693195
C   C190      1.0  0.97680  0.64100  0.27880  1.0000 0.577693195
C   C191      1.0  0.64100  0.97680  0.10340  1.0000 0.577693195
C   C192      1.0  0.10340  0.27880  0.64100  1.0000 0.577693195
C   C193      1.0  0.05090  0.73230  0.67670  1.0000 -0.0371917956
C   C194      1.0  0.73230  0.05090  0.54010  1.0000 -0.0371917956
C   C195      1.0  0.67670  0.54010  0.05090  1.0000 -0.0371917956
C   C196      1.0  0.54010  0.67670  0.73230  1.0000 -0.0371917956
C   C197      1.0  0.67670  0.05090  0.73230  1.0000 -0.0371917956
C   C198      1.0  0.54010  0.73230  0.05090  1.0000 -0.0371917956
C   C199      1.0  0.05090  0.67670  0.54010  1.0000 -0.0371917956
C   C200      1.0  0.73230  0.54010  0.67670  1.0000 -0.0371917956
C   C201      1.0  0.73230  0.67670  0.05090  1.0000 -0.0371917956
C   C202      1.0  0.05090  0.54010  0.73230  1.0000 -0.0371917956
C   C203      1.0  0.54010  0.05090  0.67670  1.0000 -0.0371917956
C   C204      1.0  0.67670  0.73230  0.54010  1.0000 -0.0371917956
C   C205      1.0  0.94910  0.26770  0.32330  1.0000 -0.0371917956
C   C206      1.0  0.26770  0.94910  0.45990  1.0000 -0.0371917956
C   C207      1.0  0.32330  0.45990  0.94910  1.0000 -0.0371917956
C   C208      1.0  0.45990  0.32330  0.26770  1.0000 -0.0371917956
C   C209      1.0  0.32330  0.94910  0.26770  1.0000 -0.0371917956
C   C210      1.0  0.45990  0.26770  0.94910  1.0000 -0.0371917956
C   C211      1.0  0.94910  0.32330  0.45990  1.0000 -0.0371917956
C   C212      1.0  0.26770  0.45990  0.32330  1.0000 -0.0371917956
C   C213      1.0  0.26770  0.32330  0.94910  1.0000 -0.0371917956
C   C214      1.0  0.94910  0.45990  0.26770  1.0000 -0.0371917956
C   C215      1.0  0.45990  0.94910  0.32330  1.0000 -0.0371917956
C   C216      1.0  0.32330  0.26770  0.45990  1.0000 -0.0371917956
C   C217      1.0  0.05160  0.68620  0.66480  1.0000 0.0091004461
C   C218      1.0  0.68620  0.05160  0.59740  1.0000 0.0091004461
C   C219      1.0  0.66480  0.59740  0.05160  1.0000 0.0091004461
C   C220      1.0  0.59740  0.66480  0.68620  1.0000 0.0091004461
C   C221      1.0  0.66480  0.05160  0.68620  1.0000 0.0091004461
C   C222      1.0  0.59740  0.68620  0.05160  1.0000 0.0034230777
C   C223      1.0  0.05160  0.66480  0.59740  1.0000 0.0091004461
C   C224      1.0  0.68620  0.59740  0.66480  1.0000 0.0091004461
C   C225      1.0  0.68620  0.66480  0.05160  1.0000 0.0091004461
C   C226      1.0  0.05160  0.59740  0.68620  1.0000 0.0091004461
C   C227      1.0  0.59740  0.05160  0.66480  1.0000 0.0091004461
C   C228      1.0  0.66480  0.68620  0.59740  1.0000 0.0091004461
C   C229      1.0  0.94840  0.31380  0.33520  1.0000 0.0034230777
C   C230      1.0  0.31380  0.94840  0.40260  1.0000 0.0034230777
C   C231      1.0  0.33520  0.40260  0.94840  1.0000 0.0091004461
C   C232      1.0  0.40260  0.33520  0.31380  1.0000 0.0091004461
C   C233      1.0  0.33520  0.94840  0.31380  1.0000 0.0091004461
C   C234      1.0  0.40260  0.31380  0.94840  1.0000 0.0091004461
C   C235      1.0  0.94840  0.33520  0.40260  1.0000 0.0091004461
C   C236      1.0  0.31380  0.40260  0.33520  1.0000 0.0091004461
C   C237      1.0  0.31380  0.33520  0.94840  1.0000 0.0091004461
C   C238      1.0  0.94840  0.40260  0.31380  1.0000 0.0091004461
C   C239      1.0  0.40260  0.94840  0.33520  1.0000 0.0091004461
C   C240      1.0  0.33520  0.31380  0.40260  1.0000 0.0034230777
C   C241      1.0  0.05210  0.70370  0.61110  1.0000 -0.2159125361
C   C242      1.0  0.70370  0.05210  0.63310  1.0000 -0.2131364473
C   C243      1.0  0.61110  0.63310  0.05210  1.0000 -0.2131364473
C   C244      1.0  0.63310  0.61110  0.70370  1.0000 -0.2131364473
C   C245      1.0  0.61110  0.05210  0.70370  1.0000 -0.2159125361
C   C246      1.0  0.63310  0.70370  0.05210  1.0000 -0.2159125361
C   C247      1.0  0.05210  0.61110  0.63310  1.0000 -0.2159125361
C   C248      1.0  0.70370  0.63310  0.61110  1.0000 -0.2131364473
C   C249      1.0  0.70370  0.61110  0.05210  1.0000 -0.2159125361
C   C250      1.0  0.05210  0.63310  0.70370  1.0000 -0.2159125361
C   C251      1.0  0.63310  0.05210  0.61110  1.0000 -0.2159125361
C   C252      1.0  0.61110  0.70370  0.63310  1.0000 -0.2159125361
C   C253      1.0  0.94790  0.29630  0.38890  1.0000 -0.2131364473
C   C254      1.0  0.29630  0.94790  0.36690  1.0000 -0.2131364473
C   C255      1.0  0.38890  0.36690  0.94790  1.0000 -0.2131364473
C   C256      1.0  0.36690  0.38890  0.29630  1.0000 -0.2131364473
C   C257      1.0  0.38890  0.94790  0.29630  1.0000 -0.2159125361
C   C258      1.0  0.36690  0.29630  0.94790  1.0000 -0.2159125361
C   C259      1.0  0.94790  0.38890  0.36690  1.0000 -0.2131364473
C   C260      1.0  0.29630  0.36690  0.38890  1.0000 -0.2159125361
C   C261      1.0  0.29630  0.38890  0.94790  1.0000 -0.2159125361
C   C262      1.0  0.94790  0.36690  0.29630  1.0000 -0.2131364473
C   C263      1.0  0.36690  0.94790  0.38890  1.0000 -0.2131364473
C   C264      1.0  0.38890  0.29630  0.36690  1.0000 -0.2131364473
O   O1        1.0  0.01210  0.75570  0.92150  1.0000 -0.567053755
O   O2        1.0  0.75570  0.01210  0.31070  1.0000 -0.567053755
O   O3        1.0  0.92150  0.31070  0.01210  1.0000 -0.567053755
O   O4        1.0  0.31070  0.92150  0.75570  1.0000 -0.567053755
O   O5        1.0  0.92150  0.01210  0.75570  1.0000 -0.564409758
O   O6        1.0  0.31070  0.75570  0.01210  1.0000 -0.564409758
O   O7        1.0  0.01210  0.92150  0.31070  1.0000 -0.567053755
O   O8        1.0  0.75570  0.31070  0.92150  1.0000 -0.567053755
O   O9        1.0  0.75570  0.92150  0.01210  1.0000 -0.567053755
O   O10       1.0  0.01210  0.31070  0.75570  1.0000 -0.567053755
O   O11       1.0  0.31070  0.01210  0.92150  1.0000 -0.567053755
O   O12       1.0  0.92150  0.75570  0.31070  1.0000 -0.567053755
O   O13       1.0  0.98790  0.24430  0.07850  1.0000 -0.567053755
O   O14       1.0  0.24430  0.98790  0.68930  1.0000 -0.567053755
O   O15       1.0  0.07850  0.68930  0.98790  1.0000 -0.567053755
O   O16       1.0  0.68930  0.07850  0.24430  1.0000 -0.567053755
O   O17       1.0  0.07850  0.98790  0.24430  1.0000 -0.567053755
O   O18       1.0  0.68930  0.24430  0.98790  1.0000 -0.567053755
O   O19       1.0  0.98790  0.07850  0.68930  1.0000 -0.567053755
O   O20       1.0  0.24430  0.68930  0.07850  1.0000 -0.564409758
O   O21       1.0  0.24430  0.07850  0.98790  1.0000 -0.567053755
O   O22       1.0  0.98790  0.68930  0.24430  1.0000 -0.564409758
O   O23       1.0  0.68930  0.98790  0.07850  1.0000 -0.567053755
O   O24       1.0  0.07850  0.24430  0.68930  1.0000 -0.567053755
O   O25       1.0  0.01669  0.67569  0.92291  1.0000 -0.4633026762
O   O26       1.0  0.67569  0.01669  0.38471  1.0000 -0.4633026762
O   O27       1.0  0.92291  0.38471  0.01669  1.0000 -0.4633026762
O   O28       1.0  0.38471  0.92291  0.67569  1.0000 -0.4633026762
O   O29       1.0  0.92291  0.01669  0.67569  1.0000 -0.4653809472
O   O30       1.0  0.38471  0.67569  0.01669  1.0000 -0.4633026762
O   O31       1.0  0.01669  0.92291  0.38471  1.0000 -0.4633026762
O   O32       1.0  0.67569  0.38471  0.92291  1.0000 -0.4633026762
O   O33       1.0  0.67569  0.92291  0.01669  1.0000 -0.4653809472
O   O34       1.0  0.01669  0.38471  0.67569  1.0000 -0.4653809472
O   O35       1.0  0.38471  0.01669  0.92291  1.0000 -0.4633026762
O   O36       1.0  0.92291  0.67569  0.38471  1.0000 -0.4633026762
O   O37       1.0  0.98331  0.32431  0.07709  1.0000 -0.4633026762
O   O38       1.0  0.32431  0.98331  0.61529  1.0000 -0.4633026762
O   O39       1.0  0.07709  0.61529  0.98331  1.0000 -0.4633026762
O   O40       1.0  0.61529  0.07709  0.32431  1.0000 -0.4633026762
O   O41       1.0  0.07709  0.98331  0.32431  1.0000 -0.4633026762
O   O42       1.0  0.61529  0.32431  0.98331  1.0000 -0.4633026762
O   O43       1.0  0.98331  0.07709  0.61529  1.0000 -0.4653809472
O   O44       1.0  0.32431  0.61529  0.07709  1.0000 -0.4633026762
O   O45       1.0  0.32431  0.07709  0.98331  1.0000 -0.4633026762
O   O46       1.0  0.98331  0.61529  0.32431  1.0000 -0.4633026762
O   O47       1.0  0.61529  0.98331  0.07709  1.0000 -0.4633026762
O   O48       1.0  0.07709  0.32431  0.61529  1.0000 -0.4633026762
O   O49       1.0  0.01332  0.92048  0.75448  1.0000 -0.4225199624
O   O50       1.0  0.92048  0.01332  0.31172  1.0000 -0.4260855494
O   O51       1.0  0.75448  0.31172  0.01332  1.0000 -0.4225199624
O   O52       1.0  0.31172  0.75448  0.92048  1.0000 -0.4225199624
O   O53       1.0  0.75448  0.01332  0.92048  1.0000 -0.4225199624
O   O54       1.0  0.31172  0.92048  0.01332  1.0000 -0.4260855494
O   O55       1.0  0.01332  0.75448  0.31172  1.0000 -0.4225199624
O   O56       1.0  0.92048  0.31172  0.75448  1.0000 -0.4225199624
O   O57       1.0  0.92048  0.75448  0.01332  1.0000 -0.4225199624
O   O58       1.0  0.01332  0.31172  0.92048  1.0000 -0.4225199624
O   O59       1.0  0.31172  0.01332  0.75448  1.0000 -0.4225199624
O   O60       1.0  0.75448  0.92048  0.31172  1.0000 -0.4225199624
O   O61       1.0  0.98668  0.07952  0.24552  1.0000 -0.4225199624
O   O62       1.0  0.07952  0.98668  0.68828  1.0000 -0.4260855494
O   O63       1.0  0.24552  0.68828  0.98668  1.0000 -0.4225199624
O   O64       1.0  0.68828  0.24552  0.07952  1.0000 -0.4225199624
O   O65       1.0  0.24552  0.98668  0.07952  1.0000 -0.4225199624
O   O66       1.0  0.68828  0.07952  0.98668  1.0000 -0.4225199624
O   O67       1.0  0.98668  0.24552  0.68828  1.0000 -0.4225199624
O   O68       1.0  0.07952  0.68828  0.24552  1.0000 -0.4260855494
O   O69       1.0  0.07952  0.24552  0.98668  1.0000 -0.4225199624
O   O70       1.0  0.98668  0.68828  0.07952  1.0000 -0.4225199624
O   O71       1.0  0.68828  0.98668  0.24552  1.0000 -0.4225199624
O   O72       1.0  0.24552  0.07952  0.68828  1.0000 -0.4225199624
O   O73       1.0  0.01340  0.92040  0.67840  1.0000 -0.567053755
O   O74       1.0  0.92040  0.01340  0.38780  1.0000 -0.567053755
O   O75       1.0  0.67840  0.38780  0.01340  1.0000 -0.567053755
O   O76       1.0  0.38780  0.67840  0.92040  1.0000 -0.567053755
O   O77       1.0  0.67840  0.01340  0.92040  1.0000 -0.567053755
O   O78       1.0  0.38780  0.92040  0.01340  1.0000 -0.567053755
O   O79       1.0  0.01340  0.67840  0.38780  1.0000 -0.567053755
O   O80       1.0  0.92040  0.38780  0.67840  1.0000 -0.567053755
O   O81       1.0  0.92040  0.67840  0.01340  1.0000 -0.567053755
O   O82       1.0  0.01340  0.38780  0.92040  1.0000 -0.567053755
O   O83       1.0  0.38780  0.01340  0.67840  1.0000 -0.567053755
O   O84       1.0  0.67840  0.92040  0.38780  1.0000 -0.567053755
O   O85       1.0  0.98660  0.07960  0.32160  1.0000 -0.567053755
O   O86       1.0  0.07960  0.98660  0.61220  1.0000 -0.567053755
O   O87       1.0  0.32160  0.61220  0.98660  1.0000 -0.567053755
O   O88       1.0  0.61220  0.32160  0.07960  1.0000 -0.567053755
O   O89       1.0  0.32160  0.98660  0.07960  1.0000 -0.567053755
O   O90       1.0  0.61220  0.07960  0.98660  1.0000 -0.567053755
O   O91       1.0  0.98660  0.32160  0.61220  1.0000 -0.567053755
O   O92       1.0  0.07960  0.61220  0.32160  1.0000 -0.567053755
O   O93       1.0  0.07960  0.32160  0.98660  1.0000 -0.567053755
O   O94       1.0  0.98660  0.61220  0.07960  1.0000 -0.567053755
O   O95       1.0  0.61220  0.98660  0.32160  1.0000 -0.567053755
O   O96       1.0  0.32160  0.07960  0.61220  1.0000 -0.567053755
O   O97       1.0  0.04470  0.71090  0.73110  1.0000 -0.1753738179
O   O98       1.0  0.71090  0.04470  0.51330  1.0000 -0.1753738179
O   O99       1.0  0.73110  0.51330  0.04470  1.0000 -0.1753738179
O   O100      1.0  0.51330  0.73110  0.71090  1.0000 -0.1753738179
O   O101      1.0  0.73110  0.04470  0.71090  1.0000 -0.1744516013
O   O102      1.0  0.51330  0.71090  0.04470  1.0000 -0.1744516013
O   O103      1.0  0.04470  0.73110  0.51330  1.0000 -0.1744516013
O   O104      1.0  0.71090  0.51330  0.73110  1.0000 -0.1753738179
O   O105      1.0  0.71090  0.73110  0.04470  1.0000 -0.1744516013
O   O106      1.0  0.04470  0.51330  0.71090  1.0000 -0.1753738179
O   O107      1.0  0.51330  0.04470  0.73110  1.0000 -0.1753738179
O   O108      1.0  0.73110  0.71090  0.51330  1.0000 -0.1744516013
O   O109      1.0  0.95530  0.28910  0.26890  1.0000 -0.1744516013
O   O110      1.0  0.28910  0.95530  0.48670  1.0000 -0.1753738179
O   O111      1.0  0.26890  0.48670  0.95530  1.0000 -0.1753738179
O   O112      1.0  0.48670  0.26890  0.28910  1.0000 -0.1744516013
O   O113      1.0  0.26890  0.95530  0.28910  1.0000 -0.1753738179
O   O114      1.0  0.48670  0.28910  0.95530  1.0000 -0.1744516013
O   O115      1.0  0.95530  0.26890  0.48670  1.0000 -0.1753738179
O   O116      1.0  0.28910  0.48670  0.26890  1.0000 -0.1744516013
O   O117      1.0  0.28910  0.26890  0.95530  1.0000 -0.1744516013
O   O118      1.0  0.95530  0.48670  0.28910  1.0000 -0.1744516013
O   O119      1.0  0.48670  0.95530  0.26890  1.0000 -0.1753738179
O   O120      1.0  0.26890  0.28910  0.48670  1.0000 -0.1753738179
