# DDEC6 charges by PACMAN v1.1 (https://github.com/mtap-research/PACMAN-charge/)
data_2012[Zn][dmp]3[ASR]1
_chemical_formula_sum              "Zn4 H32 C44 N24 O8"
_cell_length_a       8.7992
_cell_length_b       10.2696
_cell_length_c       18.6244
_cell_angle_alpha    90
_cell_angle_beta     90
_cell_angle_gamma    90

_symmetry_space_group_name_H-M    "P 1"
_symmetry_Int_Tables_number       1

loop_
  _symmetry_equiv_pos_as_xyz
  'x, y, z'

loop_
  _atom_site_type_symbol
  _atom_site_label
  _atom_site_symmetry_multiplicity
  _atom_site_fract_x
  _atom_site_fract_y
  _atom_site_fract_z
  _atom_site_occupancy
  _atom_site_charge
Zn  Zn1       1.0  0.86689  0.97357  0.40083  1.0000 0.6943875336
Zn  Zn2       1.0  0.36689  0.02643  0.59917  1.0000 0.6951679372
Zn  Zn3       1.0  0.86689  0.52643  0.90083  1.0000 0.6943875336
Zn  Zn4       1.0  0.36689  0.47357  0.09917  1.0000 0.6951679372
H   H1        1.0  0.16720  0.03710  0.47200  1.0000 0.1045990874
H   H2        1.0  0.66720  0.96290  0.52800  1.0000 0.1045990874
H   H3        1.0  0.16720  0.46290  0.97200  1.0000 0.1045990874
H   H4        1.0  0.66720  0.53710  0.02800  1.0000 0.1045990874
H   H5        1.0  0.76410  0.62900  0.61210  1.0000 0.0857140729
H   H6        1.0  0.26410  0.37100  0.38790  1.0000 0.0857140729
H   H7        1.0  0.76410  0.87100  0.11210  1.0000 0.0857140729
H   H8        1.0  0.26410  0.12900  0.88790  1.0000 0.0857140729
H   H9        1.0  0.17490  0.70350  0.73380  1.0000 0.3144252681
H   H10       1.0  0.67490  0.29650  0.26620  1.0000 0.3144252681
H   H11       1.0  0.17490  0.79650  0.23380  1.0000 0.3144252681
H   H12       1.0  0.67490  0.20350  0.76620  1.0000 0.3144252681
H   H13       1.0  0.26230  0.80480  0.69410  1.0000 0.3001626813
H   H14       1.0  0.76230  0.19520  0.30590  1.0000 0.3001626813
H   H15       1.0  0.26230  0.69520  0.19410  1.0000 0.3001626813
H   H16       1.0  0.76230  0.30480  0.80590  1.0000 0.3001626813
H   H17       1.0  0.04240  0.31090  0.29240  1.0000 0.1374405668
H   H18       1.0  0.54240  0.68910  0.70760  1.0000 0.1374405668
H   H19       1.0  0.04240  0.18910  0.79240  1.0000 0.1374405668
H   H20       1.0  0.54240  0.81090  0.20760  1.0000 0.1374405668
H   H21       1.0  0.15360  0.45750  0.21540  1.0000 0.1061463514
H   H22       1.0  0.65360  0.54250  0.78460  1.0000 0.1061463514
H   H23       1.0  0.15360  0.04250  0.71540  1.0000 0.1061463514
H   H24       1.0  0.65360  0.95750  0.28460  1.0000 0.1061463514
H   H25       1.0  0.39280  0.18150  0.12510  1.0000 0.1187665545
H   H26       1.0  0.89280  0.81850  0.87490  1.0000 0.1187665545
H   H27       1.0  0.39280  0.31850  0.62510  1.0000 0.1187665545
H   H28       1.0  0.89280  0.68150  0.37490  1.0000 0.1187665545
H   H29       1.0  0.29190  0.02950  0.20170  1.0000 0.1374405668
H   H30       1.0  0.79190  0.97050  0.79830  1.0000 0.1374405668
H   H31       1.0  0.29190  0.47050  0.70170  1.0000 0.1374405668
H   H32       1.0  0.79190  0.52950  0.29830  1.0000 0.1374405668
C   C1        1.0  0.12190  0.97360  0.50050  1.0000 0.1969096856
C   C2        1.0  0.62190  0.02640  0.49950  1.0000 0.1969096856
C   C3        1.0  0.12190  0.52640  0.00050  1.0000 0.1969096856
C   C4        1.0  0.62190  0.47360  0.99950  1.0000 0.1969096856
C   C5        1.0  0.84680  0.68340  0.60393  1.0000 0.1969096856
C   C6        1.0  0.34680  0.31660  0.39607  1.0000 0.1969096856
C   C7        1.0  0.84680  0.81660  0.10393  1.0000 0.1969096856
C   C8        1.0  0.34680  0.18340  0.89607  1.0000 0.1969096856
C   C9        1.0  0.07660  0.75760  0.64678  1.0000 0.378351041
C   C10       1.0  0.57660  0.24240  0.35322  1.0000 0.378351041
C   C11       1.0  0.07660  0.74240  0.14678  1.0000 0.378351041
C   C12       1.0  0.57660  0.25760  0.85322  1.0000 0.378351041
C   C13       1.0  0.08100  0.83990  0.58632  1.0000 -0.0606560065
C   C14       1.0  0.58100  0.16010  0.41368  1.0000 -0.0606560065
C   C15       1.0  0.08100  0.66010  0.08632  1.0000 -0.0606560065
C   C16       1.0  0.58100  0.33990  0.91368  1.0000 -0.0606560065
C   C17       1.0  0.96200  0.83260  0.53781  1.0000 0.2865926185
C   C18       1.0  0.46200  0.16740  0.46219  1.0000 0.2865926185
C   C19       1.0  0.96200  0.66740  0.03781  1.0000 0.2865926185
C   C20       1.0  0.46200  0.33260  0.96219  1.0000 0.2865926185
C   C21       1.0  0.08660  0.05580  0.30689  1.0000 0.5424716258
C   C22       1.0  0.58660  0.94420  0.69311  1.0000 0.5424716258
C   C23       1.0  0.08660  0.44420  0.80689  1.0000 0.5424716258
C   C24       1.0  0.58660  0.55580  0.19311  1.0000 0.5424716258
C   C25       1.0  0.11390  0.28290  0.25906  1.0000 -0.1621058873
C   C26       1.0  0.61390  0.71710  0.74094  1.0000 -0.1621058873
C   C27       1.0  0.11390  0.21710  0.75906  1.0000 -0.1621058873
C   C28       1.0  0.61390  0.78290  0.24094  1.0000 -0.1621058873
C   C29       1.0  0.15520  0.15300  0.25562  1.0000 0.0386450523
C   C30       1.0  0.65520  0.84700  0.74438  1.0000 0.0386450523
C   C31       1.0  0.15520  0.34700  0.75562  1.0000 0.0386450523
C   C32       1.0  0.65520  0.65300  0.24438  1.0000 0.0386450523
C   C33       1.0  0.18010  0.37000  0.21234  1.0000 0.0793570177
C   C34       1.0  0.68010  0.63000  0.78766  1.0000 0.0793570177
C   C35       1.0  0.18010  0.13000  0.71234  1.0000 0.0793570177
C   C36       1.0  0.68010  0.87000  0.28766  1.0000 0.0793570177
C   C37       1.0  0.32180  0.20730  0.15930  1.0000 0.0736305424
C   C38       1.0  0.82180  0.79270  0.84070  1.0000 0.0736305424
C   C39       1.0  0.32180  0.29270  0.65930  1.0000 0.0736305424
C   C40       1.0  0.82180  0.70730  0.34070  1.0000 0.0736305424
C   C41       1.0  0.26150  0.11610  0.20490  1.0000 -0.1497061319
C   C42       1.0  0.76150  0.88390  0.79510  1.0000 -0.1497061319
C   C43       1.0  0.26150  0.38390  0.70490  1.0000 -0.1497061319
C   C44       1.0  0.76150  0.61610  0.29510  1.0000 -0.1497061319
N   N1        1.0  0.98980  0.91820  0.48295  1.0000 -0.3756105891
N   N2        1.0  0.48980  0.08180  0.51705  1.0000 -0.3756105891
N   N3        1.0  0.98980  0.58180  0.98295  1.0000 -0.3756105891
N   N4        1.0  0.48980  0.41820  0.01705  1.0000 -0.3756105891
N   N5        1.0  0.83930  0.75470  0.54425  1.0000 -0.4294492631
N   N6        1.0  0.33930  0.24530  0.45575  1.0000 -0.4294492631
N   N7        1.0  0.83930  0.74530  0.04425  1.0000 -0.4294492631
N   N8        1.0  0.33930  0.25470  0.95575  1.0000 -0.4294492631
N   N9        1.0  0.18450  0.93200  0.56143  1.0000 -0.3341304577
N   N10       1.0  0.68450  0.06800  0.43857  1.0000 -0.3341304577
N   N11       1.0  0.18450  0.56800  0.06143  1.0000 -0.3341304577
N   N12       1.0  0.68450  0.43200  0.93857  1.0000 -0.3341304577
N   N13       1.0  0.95560  0.67870  0.65372  1.0000 -0.4294492631
N   N14       1.0  0.45560  0.32130  0.34628  1.0000 -0.4294492631
N   N15       1.0  0.95560  0.82130  0.15372  1.0000 -0.4294492631
N   N16       1.0  0.45560  0.17870  0.84628  1.0000 -0.4294492631
N   N17       1.0  0.18410  0.75500  0.69760  1.0000 -0.5718771434
N   N18       1.0  0.68410  0.24500  0.30240  1.0000 -0.5718771434
N   N19       1.0  0.18410  0.74500  0.19760  1.0000 -0.5718771434
N   N20       1.0  0.68410  0.25500  0.80240  1.0000 -0.5718771434
N   N21       1.0  0.28060  0.33350  0.16297  1.0000 -0.2025340712
N   N22       1.0  0.78060  0.66650  0.83703  1.0000 -0.2025340712
N   N23       1.0  0.28060  0.16650  0.66297  1.0000 -0.2025340712
N   N24       1.0  0.78060  0.83350  0.33703  1.0000 -0.2025340712
O   O1        1.0  0.96730  0.09810  0.33923  1.0000 -0.5559831775
O   O2        1.0  0.46730  0.90190  0.66077  1.0000 -0.5559831775
O   O3        1.0  0.96730  0.40190  0.83923  1.0000 -0.5559831775
O   O4        1.0  0.46730  0.59810  0.16077  1.0000 -0.5559831775
O   O5        1.0  0.14300  0.94860  0.31494  1.0000 -0.5208381629
O   O6        1.0  0.64300  0.05140  0.68506  1.0000 -0.5208381629
O   O7        1.0  0.14300  0.55140  0.81494  1.0000 -0.5208381629
O   O8        1.0  0.64300  0.44860  0.18506  1.0000 -0.5208381629
