# DDEC6 charges by PACMAN v1.1 (https://github.com/mtap-research/PACMAN-charge/)
data_2012[Co][dia]3[ASR]1
_chemical_formula_sum              "Co16 H256 C384 N32 O64"
_cell_length_a       25.9201
_cell_length_b       25.9201
_cell_length_c       25.9201
_cell_angle_alpha    103.815
_cell_angle_beta     103.815
_cell_angle_gamma    121.495

_symmetry_space_group_name_H-M    "P 1"
_symmetry_Int_Tables_number       1

loop_
  _symmetry_equiv_pos_as_xyz
  'x, y, z'

loop_
  _atom_site_type_symbol
  _atom_site_label
  _atom_site_symmetry_multiplicity
  _atom_site_fract_x
  _atom_site_fract_y
  _atom_site_fract_z
  _atom_site_occupancy
  _atom_site_charge
Co  Co1       1.0  0.17096  0.39943  0.73945  1.0000 0.8090248456
Co  Co2       1.0  0.65998  0.43151  0.26055  1.0000 0.8090248456
Co  Co3       1.0  0.66627  0.89637  0.73320  1.0000 0.8005758873
Co  Co4       1.0  0.16317  0.93307  0.26680  1.0000 0.8005758873
Co  Co5       1.0  0.14959  0.42006  0.23701  1.0000 0.6846481314
Co  Co6       1.0  0.18305  0.91258  0.76299  1.0000 0.6846481314
Co  Co7       1.0  0.68706  0.41599  0.76277  1.0000 0.6893624893
Co  Co8       1.0  0.65322  0.92429  0.23723  1.0000 0.6893624893
Co  Co9       1.0  0.39943  0.65998  0.22847  1.0000 0.8090248456
Co  Co10      1.0  0.43151  0.17096  0.77153  1.0000 0.8090248456
Co  Co11      1.0  0.89637  0.16317  0.23010  1.0000 0.8005758873
Co  Co12      1.0  0.93307  0.66627  0.76990  1.0000 0.8005758873
Co  Co13      1.0  0.42006  0.18305  0.27047  1.0000 0.6846481314
Co  Co14      1.0  0.91258  0.14959  0.72953  1.0000 0.6893624893
Co  Co15      1.0  0.41599  0.65322  0.72893  1.0000 0.6893624893
Co  Co16      1.0  0.92429  0.68706  0.27107  1.0000 0.6893624893
H   H1        1.0  0.27410  0.14650  0.78680  1.0000 0.1454478106
H   H2        1.0  0.35970  0.48730  0.21320  1.0000 0.1454478106
H   H3        1.0  0.90390  0.50880  0.80550  1.0000 0.1298587125
H   H4        1.0  0.70330  0.09840  0.19450  1.0000 0.1298587125
H   H5        1.0  0.06990  0.17530  0.68340  1.0000 0.1094149123
H   H6        1.0  0.49190  0.38650  0.31660  1.0000 0.1094149123
H   H7        1.0  0.57600  0.50250  0.66770  1.0000 0.1298587125
H   H8        1.0  0.83480  0.90830  0.33230  1.0000 0.1298587125
H   H9        1.0  0.58150  0.42790  0.69220  1.0000 0.102249826
H   H10       1.0  0.73570  0.88930  0.30780  1.0000 0.102249826
H   H11       1.0  0.57390  0.58860  0.69330  1.0000 0.1094149123
H   H12       1.0  0.89530  0.88060  0.30670  1.0000 0.1094149123
H   H13       1.0  0.30530  0.04760  0.30870  1.0000 0.1094149123
H   H14       1.0  0.73890  0.99660  0.69130  1.0000 0.1094149123
H   H15       1.0  0.94280  0.30860  0.73300  1.0000 0.1409335941
H   H16       1.0  0.57560  0.20980  0.26700  1.0000 0.1409335941
H   H17       1.0  0.56650  0.67260  0.68250  1.0000 0.1094149123
H   H18       1.0  0.99010  0.88400  0.31750  1.0000 0.1094149123
H   H19       1.0  0.08230  0.00640  0.66970  1.0000 0.1298587125
H   H20       1.0  0.33670  0.41260  0.33030  1.0000 0.1298587125
H   H21       1.0  0.09010  0.72160  0.28690  1.0000 0.1409335941
H   H22       1.0  0.43470  0.80320  0.71310  1.0000 0.1409335941
H   H23       1.0  0.40480  0.12790  0.39530  1.0000 0.1298587125
H   H24       1.0  0.73260  0.00950  0.60470  1.0000 0.1298587125
H   H25       1.0  0.07900  0.09140  0.69740  1.0000 0.102249826
H   H26       1.0  0.39400  0.38160  0.30260  1.0000 0.102249826
H   H27       1.0  0.08740  0.32110  0.35510  1.0000 0.1198483343
H   H28       1.0  0.96600  0.73230  0.64490  1.0000 0.1198483343
H   H29       1.0  0.17590  0.84260  0.18590  1.0000 0.1094149123
H   H30       1.0  0.65670  0.99000  0.81410  1.0000 0.1094149123
H   H31       1.0  0.08400  0.51150  0.83390  1.0000 0.1198483343
H   H32       1.0  0.67760  0.25010  0.16610  1.0000 0.1198483343
H   H33       1.0  0.46180  0.68150  0.10270  1.0000 0.1409335941
H   H34       1.0  0.57880  0.35910  0.89730  1.0000 0.1409335941
H   H35       1.0  0.99760  0.51660  0.81580  1.0000 0.1198483343
H   H36       1.0  0.70080  0.18180  0.18420  1.0000 0.1198483343
H   H37       1.0  0.23210  0.50520  0.69510  1.0000 0.102249826
H   H38       1.0  0.81010  0.53700  0.30490  1.0000 0.102249826
H   H39       1.0  0.21710  0.52390  0.44540  1.0000 0.1198483343
H   H40       1.0  0.07850  0.77170  0.55460  1.0000 0.1198483343
H   H41       1.0  0.19120  0.67600  0.18280  1.0000 0.1094149123
H   H42       1.0  0.49320  0.00840  0.81720  1.0000 0.1094149123
H   H43       1.0  0.19770  0.59500  0.19410  1.0000 0.1298587125
H   H44       1.0  0.40090  0.00360  0.80590  1.0000 0.1298587125
H   H45       1.0  0.84600  0.11750  0.85950  1.0000 0.1198483343
H   H46       1.0  0.25800  0.98650  0.14050  1.0000 0.1198483343
H   H47       1.0  0.21560  0.95040  0.39260  1.0000 0.1094149123
H   H48       1.0  0.55780  0.82300  0.60740  1.0000 0.1094149123
H   H49       1.0  0.44640  0.70970  0.94330  1.0000 0.1094149123
H   H50       1.0  0.76640  0.50310  0.05670  1.0000 0.1094149123
H   H51       1.0  0.04540  0.52440  0.23960  1.0000 0.1298587125
H   H52       1.0  0.28480  0.80580  0.76040  1.0000 0.1298587125
H   H53       1.0  0.27610  0.06110  0.80500  1.0000 0.1198483343
H   H54       1.0  0.25610  0.47110  0.19500  1.0000 0.1198483343
H   H55       1.0  0.77660  0.56290  0.79490  1.0000 0.1198483343
H   H56       1.0  0.76800  0.98170  0.20510  1.0000 0.1198483343
H   H57       1.0  0.08040  0.92990  0.69570  1.0000 0.102249826
H   H58       1.0  0.23420  0.38470  0.30430  1.0000 0.102249826
H   H59       1.0  0.16860  0.74480  0.16660  1.0000 0.1198483343
H   H60       1.0  0.57820  0.00200  0.83340  1.0000 0.1198483343
H   H61       1.0  0.16440  0.50230  0.81430  1.0000 0.102249826
H   H62       1.0  0.68800  0.35010  0.18570  1.0000 0.102249826
H   H63       1.0  0.03830  0.60530  0.23040  1.0000 0.1198483343
H   H64       1.0  0.37490  0.80790  0.76960  1.0000 0.1198483343
H   H65       1.0  0.76070  0.78260  0.70550  1.0000 0.1094149123
H   H66       1.0  0.07710  0.05520  0.29450  1.0000 0.1094149123
H   H67       1.0  0.26770  0.28950  0.72120  1.0000 0.1094149123
H   H68       1.0  0.56830  0.54650  0.27880  1.0000 0.1094149123
H   H69       1.0  0.21520  0.52030  0.53570  1.0000 0.1198483343
H   H70       1.0  0.98460  0.67950  0.46430  1.0000 0.1198483343
H   H71       1.0  0.82680  0.99470  0.93630  1.0000 0.1198483343
H   H72       1.0  0.05840  0.89050  0.06370  1.0000 0.1198483343
H   H73       1.0  0.80410  0.32230  0.79360  1.0000 0.1198483343
H   H74       1.0  0.52870  0.01050  0.20640  1.0000 0.1198483343
H   H75       1.0  0.76530  0.69630  0.72180  1.0000 0.1094149123
H   H76       1.0  0.97450  0.04350  0.27820  1.0000 0.1094149123
H   H77       1.0  0.55170  0.77870  0.01900  1.0000 0.1298587125
H   H78       1.0  0.75970  0.53270  0.98100  1.0000 0.1298587125
H   H79       1.0  0.46920  0.24070  0.64370  1.0000 0.1198483343
H   H80       1.0  0.59700  0.82550  0.35630  1.0000 0.1198483343
H   H81       1.0  0.41530  0.59320  0.02770  1.0000 0.1298587125
H   H82       1.0  0.56550  0.38760  0.97230  1.0000 0.1298587125
H   H83       1.0  0.27340  0.20440  0.73660  1.0000 0.1198483343
H   H84       1.0  0.46780  0.53680  0.26340  1.0000 0.1198483343
H   H85       1.0  0.90690  0.09210  0.02440  1.0000 0.1298587125
H   H86       1.0  0.06770  0.88250  0.97560  1.0000 0.1298587125
H   H87       1.0  0.09190  0.31630  0.44840  1.0000 0.1094149123
H   H88       1.0  0.86790  0.64350  0.55160  1.0000 0.1094149123
H   H89       1.0  0.31330  0.01790  0.47900  1.0000 0.1298587125
H   H90       1.0  0.53890  0.83430  0.52100  1.0000 0.1298587125
H   H91       1.0  0.10130  0.81470  0.29800  1.0000 0.1198483343
H   H92       1.0  0.51670  0.80330  0.70200  1.0000 0.1198483343
H   H93       1.0  0.32860  0.49580  0.93820  1.0000 0.1198483343
H   H94       1.0  0.55760  0.39040  0.06180  1.0000 0.1198483343
H   H95       1.0  0.93660  0.21130  0.94330  1.0000 0.1094149123
H   H96       1.0  0.26800  0.99330  0.05670  1.0000 0.1094149123
H   H97       1.0  0.03970  0.27590  0.18940  1.0000 0.1094149123
H   H98       1.0  0.08650  0.85030  0.81060  1.0000 0.1094149123
H   H99       1.0  0.11920  0.37860  0.10540  1.0000 0.102249826
H   H100      1.0  0.27320  0.01380  0.89460  1.0000 0.102249826
H   H101      1.0  0.37700  0.13990  0.55490  1.0000 0.1094149123
H   H102      1.0  0.58500  0.82210  0.44510  1.0000 0.1094149123
H   H103      1.0  0.07840  0.30960  0.60460  1.0000 0.102249826
H   H104      1.0  0.70500  0.47380  0.39540  1.0000 0.102249826
H   H105      1.0  0.95410  0.17850  0.10280  1.0000 0.1454478106
H   H106      1.0  0.07570  0.85130  0.89720  1.0000 0.1409335941
H   H107      1.0  0.03060  0.28080  0.01500  1.0000 0.1198483343
H   H108      1.0  0.26580  0.01560  0.98500  1.0000 0.1198483343
H   H109      1.0  0.08570  0.31150  0.51900  1.0000 0.1094149123
H   H110      1.0  0.79250  0.56670  0.48100  1.0000 0.1094149123
H   H111      1.0  0.53660  0.78620  0.19180  1.0000 0.1094149123
H   H112      1.0  0.59440  0.34480  0.80820  1.0000 0.1094149123
H   H113      1.0  0.63430  0.87330  0.10580  1.0000 0.1094149123
H   H114      1.0  0.76750  0.52850  0.89420  1.0000 0.1094149123
H   H115      1.0  0.58540  0.25030  0.55870  1.0000 0.1298587125
H   H116      1.0  0.69160  0.02670  0.44130  1.0000 0.1298587125
H   H117      1.0  0.36300  0.61440  0.85560  1.0000 0.1198483343
H   H118      1.0  0.75880  0.50740  0.14440  1.0000 0.1198483343
H   H119      1.0  0.77310  0.64580  0.77470  1.0000 0.1409335941
H   H120      1.0  0.87110  0.99840  0.22530  1.0000 0.1409335941
H   H121      1.0  0.89230  0.32150  0.79500  1.0000 0.1198483343
H   H122      1.0  0.52650  0.09730  0.20500  1.0000 0.1198483343
H   H123      1.0  0.49730  0.16130  0.47800  1.0000 0.1198483343
H   H124      1.0  0.68330  0.01930  0.52200  1.0000 0.1198483343
H   H125      1.0  0.02330  0.30520  0.72050  1.0000 0.1094149123
H   H126      1.0  0.58470  0.30280  0.27950  1.0000 0.1094149123
H   H127      1.0  0.22890  0.50930  0.60780  1.0000 0.1298587125
H   H128      1.0  0.90150  0.62110  0.39220  1.0000 0.1298587125
H   H129      1.0  0.14650  0.35970  0.87240  1.0000 0.1454478106
H   H130      1.0  0.48730  0.27410  0.12760  1.0000 0.1454478106
H   H131      1.0  0.50880  0.70330  0.60490  1.0000 0.1298587125
H   H132      1.0  0.09840  0.90390  0.39510  1.0000 0.1298587125
H   H133      1.0  0.17530  0.49190  0.10540  1.0000 0.1094149123
H   H134      1.0  0.38650  0.06990  0.89460  1.0000 0.1094149123
H   H135      1.0  0.50250  0.83480  0.92650  1.0000 0.1298587125
H   H136      1.0  0.90830  0.57600  0.07350  1.0000 0.1298587125
H   H137      1.0  0.42790  0.73570  0.84640  1.0000 0.102249826
H   H138      1.0  0.88930  0.58150  0.15360  1.0000 0.102249826
H   H139      1.0  0.58860  0.89530  0.01470  1.0000 0.1094149123
H   H140      1.0  0.88060  0.57390  0.98530  1.0000 0.1094149123
H   H141      1.0  0.04760  0.73890  0.74230  1.0000 0.1094149123
H   H142      1.0  0.99660  0.30530  0.25770  1.0000 0.1094149123
H   H143      1.0  0.30860  0.57560  0.36580  1.0000 0.1409335941
H   H144      1.0  0.20980  0.94280  0.63420  1.0000 0.1409335941
H   H145      1.0  0.67260  0.99010  0.10610  1.0000 0.1094149123
H   H146      1.0  0.88400  0.56650  0.89390  1.0000 0.1094149123
H   H147      1.0  0.00640  0.33670  0.92410  1.0000 0.1298587125
H   H148      1.0  0.41260  0.08230  0.07590  1.0000 0.1298587125
H   H149      1.0  0.72160  0.43470  0.63150  1.0000 0.1409335941
H   H150      1.0  0.80320  0.09010  0.36850  1.0000 0.1409335941
H   H151      1.0  0.12790  0.73260  0.72310  1.0000 0.1298587125
H   H152      1.0  0.00950  0.40480  0.27690  1.0000 0.1298587125
H   H153      1.0  0.09140  0.39400  0.01240  1.0000 0.102249826
H   H154      1.0  0.38160  0.07900  0.98760  1.0000 0.102249826
H   H155      1.0  0.32110  0.96600  0.23370  1.0000 0.1198483343
H   H156      1.0  0.73230  0.08740  0.76630  1.0000 0.1198483343
H   H157      1.0  0.84260  0.65670  0.66667  1.0000 0.1094149123
H   H158      1.0  0.99000  0.17590  0.33333  1.0000 0.1094149123
H   H159      1.0  0.51150  0.67760  0.42750  1.0000 0.1198483343
H   H160      1.0  0.25010  0.08400  0.57250  1.0000 0.1198483343
H   H161      1.0  0.68150  0.57880  0.21970  1.0000 0.1409335941
H   H162      1.0  0.35910  0.46180  0.78030  1.0000 0.1409335941
H   H163      1.0  0.51660  0.70080  0.51900  1.0000 0.1198483343
H   H164      1.0  0.18180  0.99760  0.48100  1.0000 0.1198483343
H   H165      1.0  0.50520  0.81010  0.27310  1.0000 0.102249826
H   H166      1.0  0.53700  0.23210  0.72690  1.0000 0.102249826
H   H167      1.0  0.52390  0.07850  0.30680  1.0000 0.1198483343
H   H168      1.0  0.77170  0.21710  0.69320  1.0000 0.1198483343
H   H169      1.0  0.67600  0.49320  0.48480  1.0000 0.1094149123
H   H170      1.0  0.00840  0.19120  0.51520  1.0000 0.1094149123
H   H171      1.0  0.59500  0.40090  0.39730  1.0000 0.1298587125
H   H172      1.0  0.00360  0.19770  0.60270  1.0000 0.1298587125
H   H173      1.0  0.11750  0.25800  0.27150  1.0000 0.1198483343
H   H174      1.0  0.98650  0.84600  0.72850  1.0000 0.1198483343
H   H175      1.0  0.95040  0.55780  0.73480  1.0000 0.1094149123
H   H176      1.0  0.82300  0.21560  0.26520  1.0000 0.1094149123
H   H177      1.0  0.70970  0.76640  0.26330  1.0000 0.1094149123
H   H178      1.0  0.50310  0.44640  0.73670  1.0000 0.1094149123
H   H179      1.0  0.52440  0.28480  0.47900  1.0000 0.1298587125
H   H180      1.0  0.80580  0.04540  0.52100  1.0000 0.1298587125
H   H181      1.0  0.06110  0.25610  0.78500  1.0000 0.1198483343
H   H182      1.0  0.47110  0.27610  0.21500  1.0000 0.1198483343
H   H183      1.0  0.56290  0.76800  0.78630  1.0000 0.1198483343
H   H184      1.0  0.98170  0.77660  0.21370  1.0000 0.1198483343
H   H185      1.0  0.92990  0.23420  0.84950  1.0000 0.102249826
H   H186      1.0  0.38470  0.08040  0.15050  1.0000 0.102249826
H   H187      1.0  0.74480  0.57820  0.57620  1.0000 0.1198483343
H   H188      1.0  0.00200  0.16860  0.42380  1.0000 0.1198483343
H   H189      1.0  0.50230  0.68800  0.33790  1.0000 0.102249826
H   H190      1.0  0.35010  0.16440  0.66210  1.0000 0.102249826
H   H191      1.0  0.60530  0.37490  0.56700  1.0000 0.1198483343
H   H192      1.0  0.80790  0.03830  0.43300  1.0000 0.1198483343
H   H193      1.0  0.78260  0.07710  0.02190  1.0000 0.1094149123
H   H194      1.0  0.05520  0.76070  0.97810  1.0000 0.1094149123
H   H195      1.0  0.28950  0.56830  0.02180  1.0000 0.1094149123
H   H196      1.0  0.54650  0.26770  0.97820  1.0000 0.1094149123
H   H197      1.0  0.52030  0.98460  0.30510  1.0000 0.1198483343
H   H198      1.0  0.67950  0.21520  0.69490  1.0000 0.1198483343
H   H199      1.0  0.99470  0.05840  0.16790  1.0000 0.1198483343
H   H200      1.0  0.89050  0.82680  0.83210  1.0000 0.1198483343
H   H201      1.0  0.32230  0.52870  0.51820  1.0000 0.1198483343
H   H202      1.0  0.01050  0.80410  0.48180  1.0000 0.1198483343
H   H203      1.0  0.69630  0.97450  0.93100  1.0000 0.1094149123
H   H204      1.0  0.04350  0.76530  0.06900  1.0000 0.1094149123
H   H205      1.0  0.77870  0.75970  0.22700  1.0000 0.1298587125
H   H206      1.0  0.53270  0.55170  0.77300  1.0000 0.1298587125
H   H207      1.0  0.24070  0.59700  0.77150  1.0000 0.1198483343
H   H208      1.0  0.82550  0.46920  0.22850  1.0000 0.1198483343
H   H209      1.0  0.59320  0.56550  0.17790  1.0000 0.1298587125
H   H210      1.0  0.38760  0.41530  0.82210  1.0000 0.1298587125
H   H211      1.0  0.20440  0.46780  0.93100  1.0000 0.1198483343
H   H212      1.0  0.53680  0.27340  0.06900  1.0000 0.1198483343
H   H213      1.0  0.09210  0.06770  0.18520  1.0000 0.1298587125
H   H214      1.0  0.88250  0.90690  0.81480  1.0000 0.1298587125
H   H215      1.0  0.31630  0.86790  0.22440  1.0000 0.1094149123
H   H216      1.0  0.64350  0.09190  0.77560  1.0000 0.1094149123
H   H217      1.0  0.01790  0.53890  0.70460  1.0000 0.1298587125
H   H218      1.0  0.83430  0.31330  0.29540  1.0000 0.1298587125
H   H219      1.0  0.81470  0.51670  0.71340  1.0000 0.1198483343
H   H220      1.0  0.80330  0.10130  0.28660  1.0000 0.1198483343
H   H221      1.0  0.49580  0.55760  0.16720  1.0000 0.1198483343
H   H222      1.0  0.39040  0.32860  0.83280  1.0000 0.1198483343
H   H223      1.0  0.21130  0.26800  0.27470  1.0000 0.1094149123
H   H224      1.0  0.99330  0.93660  0.72530  1.0000 0.1094149123
H   H225      1.0  0.27590  0.08650  0.23620  1.0000 0.1094149123
H   H226      1.0  0.85030  0.03970  0.76380  1.0000 0.1094149123
H   H227      1.0  0.37860  0.27320  0.25940  1.0000 0.102249826
H   H228      1.0  0.01380  0.11920  0.74060  1.0000 0.102249826
H   H229      1.0  0.13990  0.58500  0.76290  1.0000 0.1094149123
H   H230      1.0  0.82210  0.37700  0.23710  1.0000 0.1094149123
H   H231      1.0  0.30960  0.70500  0.23120  1.0000 0.102249826
H   H232      1.0  0.47380  0.07840  0.76880  1.0000 0.102249826
H   H233      1.0  0.17850  0.07570  0.22440  1.0000 0.1454478106
H   H234      1.0  0.85130  0.95410  0.77560  1.0000 0.1454478106
H   H235      1.0  0.28080  0.26580  0.25020  1.0000 0.1198483343
H   H236      1.0  0.01560  0.03060  0.74980  1.0000 0.1198483343
H   H237      1.0  0.31150  0.79250  0.22580  1.0000 0.1094149123
H   H238      1.0  0.56670  0.08570  0.77420  1.0000 0.1094149123
H   H239      1.0  0.78620  0.59440  0.24960  1.0000 0.1094149123
H   H240      1.0  0.34480  0.53660  0.75040  1.0000 0.1094149123
H   H241      1.0  0.87330  0.76750  0.23900  1.0000 0.1094149123
H   H242      1.0  0.52850  0.63430  0.76100  1.0000 0.1094149123
H   H243      1.0  0.25030  0.69160  0.66490  1.0000 0.1298587125
H   H244      1.0  0.02670  0.58540  0.33510  1.0000 0.1298587125
H   H245      1.0  0.61440  0.75880  0.25140  1.0000 0.1198483343
H   H246      1.0  0.50740  0.36300  0.74860  1.0000 0.1198483343
H   H247      1.0  0.64580  0.87110  0.87270  1.0000 0.1409335941
H   H248      1.0  0.99840  0.77310  0.12730  1.0000 0.1409335941
H   H249      1.0  0.32150  0.52650  0.42920  1.0000 0.1198483343
H   H250      1.0  0.09730  0.89230  0.57080  1.0000 0.1198483343
H   H251      1.0  0.16130  0.68330  0.66400  1.0000 0.1198483343
H   H252      1.0  0.01930  0.49730  0.33600  1.0000 0.1198483343
H   H253      1.0  0.30520  0.58470  0.28190  1.0000 0.1094149123
H   H254      1.0  0.30280  0.02330  0.71810  1.0000 0.1094149123
H   H255      1.0  0.50930  0.90150  0.28040  1.0000 0.1298587125
H   H256      1.0  0.62110  0.22890  0.71960  1.0000 0.1298587125
C   C1        1.0  0.14940  0.42392  0.39212  1.0000 -0.0037994925
C   C2        1.0  0.03180  0.75728  0.60788  1.0000 -0.0037994925
C   C3        1.0  0.15460  0.42500  0.33400  1.0000 0.5028553656
C   C4        1.0  0.09100  0.82060  0.66600  1.0000 0.5028553656
C   C5        1.0  0.76700  0.98790  0.83490  1.0000 0.4777406207
C   C6        1.0  0.15300  0.93210  0.16510  1.0000 0.4777406207
C   C7        1.0  0.17190  0.24440  0.70910  1.0000 -0.0599562922
C   C8        1.0  0.53530  0.46280  0.29090  1.0000 -0.0599562922
C   C9        1.0  0.33180  0.55090  0.88990  1.0000 -0.0338098589
C   C10       1.0  0.66100  0.44190  0.11010  1.0000 -0.0338098589
C   C11       1.0  0.23500  0.10080  0.76520  1.0000 -0.1683012395
C   C12       1.0  0.33560  0.46980  0.23480  1.0000 -0.1683012395
C   C13       1.0  0.59620  0.31750  0.67130  1.0000 0.4880677736
C   C14       1.0  0.64620  0.92490  0.32870  1.0000 0.4880677736
C   C15       1.0  0.90260  0.47120  0.80400  1.0000 -0.1083847401
C   C16       1.0  0.66720  0.09860  0.19600  1.0000 -0.1083847401
C   C17       1.0  0.36960  0.08960  0.45320  1.0000 0.102249826
C   C18       1.0  0.63640  0.91640  0.54680  1.0000 0.102249826
C   C19       1.0  0.27110  0.49060  0.83730  1.0000 0.5245587579
C   C20       1.0  0.65330  0.43380  0.16270  1.0000 0.5245587579
C   C21       1.0  0.49710  0.72240  0.05450  1.0000 0.1094149123
C   C22       1.0  0.66790  0.44260  0.94550  1.0000 0.1094149123
C   C23       1.0  0.53790  0.25360  0.60990  1.0000 0.0106483812
C   C24       1.0  0.64370  0.92800  0.39010  1.0000 0.0106483812
C   C25       1.0  0.11180  0.18290  0.69570  1.0000 -0.0794335246
C   C26       1.0  0.48720  0.41610  0.30430  1.0000 -0.0794335246
C   C27       1.0  0.66650  0.74090  0.70000  1.0000 -0.0664088526
C   C28       1.0  0.04090  0.96650  0.30000  1.0000 -0.0664088526
C   C29       1.0  0.82240  0.04400  0.88620  1.0000 -0.0794335246
C   C30       1.0  0.15780  0.93620  0.11380  1.0000 -0.0794335246
C   C31       1.0  0.61800  0.51610  0.69370  1.0000 -0.207100883
C   C32       1.0  0.82240  0.92430  0.30630  1.0000 -0.207100883
C   C33       1.0  0.84490  0.41590  0.79960  1.0000 0.0106483812
C   C34       1.0  0.61630  0.04530  0.20040  1.0000 0.0106483812
C   C35       1.0  0.62240  0.47200  0.70720  1.0000 0.0809985926
C   C36       1.0  0.76480  0.91520  0.29280  1.0000 0.0809985926
C   C37       1.0  0.00450  0.41310  0.78700  1.0000 0.1094149123
C   C38       1.0  0.62610  0.21750  0.21300  1.0000 0.1094149123
C   C39       1.0  0.61220  0.62790  0.69610  1.0000 -0.1683012395
C   C40       1.0  0.93180  0.91610  0.30390  1.0000 -0.1683012395
C   C41       1.0  0.78350  0.41400  0.79090  1.0000 0.5100660076
C   C42       1.0  0.62310  0.99260  0.20910  1.0000 0.5100660076
C   C43       1.0  0.66870  0.63240  0.70450  1.0000 0.0809985926
C   C44       1.0  0.92790  0.96420  0.29550  1.0000 0.0809985926
C   C45       1.0  0.30580  0.04340  0.34420  1.0000 0.0809985926
C   C46       1.0  0.69920  0.96160  0.65580  1.0000 0.0809985926
C   C47       1.0  0.98750  0.34910  0.75000  1.0000 -0.1889655167
C   C48       1.0  0.59910  0.23750  0.25000  1.0000 -0.1889655167
C   C49       1.0  0.60790  0.67920  0.69130  1.0000 -0.0794335246
C   C50       1.0  0.98790  0.91660  0.30870  1.0000 -0.0794335246
C   C51       1.0  0.98470  0.22020  0.05050  1.0000 0.1198483343
C   C52       1.0  0.16970  0.93420  0.94950  1.0000 0.1198483343
C   C53       1.0  0.67510  0.58250  0.71780  1.0000 0.1198483343
C   C54       1.0  0.86470  0.95730  0.28220  1.0000 0.1198483343
C   C55       1.0  0.12260  0.01900  0.69820  1.0000 -0.207100883
C   C56       1.0  0.32080  0.42440  0.30180  1.0000 -0.207100883
C   C57       1.0  0.10980  0.74570  0.26610  1.0000 -0.1889655167
C   C58       1.0  0.47960  0.84370  0.73390  1.0000 -0.1889655167
C   C59       1.0  0.36640  0.09280  0.39660  1.0000 -0.1815004621
C   C60       1.0  0.69620  0.96980  0.60340  1.0000 -0.1815004621
C   C61       1.0  0.11730  0.13200  0.70190  1.0000 -0.1683012395
C   C62       1.0  0.43010  0.41540  0.29810  1.0000 -0.1683012395
C   C63       1.0  0.12660  0.66120  0.21900  1.0000 0.0598949636
C   C64       1.0  0.44220  0.90760  0.78100  1.0000 0.0598949636
C   C65       1.0  0.11250  0.36100  0.39090  1.0000 -0.1083847401
C   C66       1.0  0.97010  0.72160  0.60910  1.0000 -0.1083847401
C   C67       1.0  0.17530  0.30230  0.71480  1.0000 0.5326380482
C   C68       1.0  0.58750  0.46050  0.28520  1.0000 0.5326380482
C   C69       1.0  0.16180  0.81860  0.20840  1.0000 0.0259023718
C   C70       1.0  0.61020  0.95340  0.79160  1.0000 0.0259023718
C   C71       1.0  0.07020  0.46880  0.80920  1.0000 -0.2018587514
C   C72       1.0  0.65960  0.26100  0.19080  1.0000 -0.2018587514
C   C73       1.0  0.14720  0.40980  0.55200  1.0000 0.102249826
C   C74       1.0  0.85780  0.59520  0.44800  1.0000 0.102249826
C   C75       1.0  0.92800  0.15680  0.99160  1.0000 0.0809985926
C   C76       1.0  0.16520  0.93640  0.00840  1.0000 0.0809985926
C   C77       1.0  0.49440  0.72200  0.10220  1.0000 -0.1490412471
C   C78       1.0  0.61980  0.39220  0.89780  1.0000 -0.1490412471
C   C79       1.0  0.44130  0.65800  0.99390  1.0000 0.088302188
C   C80       1.0  0.66410  0.44740  0.00610  1.0000 0.088302188
C   C81       1.0  0.17690  0.14070  0.71400  1.0000 0.0809985926
C   C82       1.0  0.42670  0.46290  0.28600  1.0000 0.0809985926
C   C83       1.0  0.95650  0.47530  0.80640  1.0000 -0.1400606184
C   C84       1.0  0.66890  0.15010  0.19360  1.0000 -0.1400606184
C   C85       1.0  0.19910  0.46480  0.65970  1.0000 0.0598949636
C   C86       1.0  0.80510  0.53940  0.34030  1.0000 0.0598949636
C   C87       1.0  0.18870  0.48150  0.44540  1.0000 -0.1083847401
C   C88       1.0  0.03610  0.74330  0.55460  1.0000 -0.1083847401
C   C89       1.0  0.16480  0.64870  0.19850  1.0000 -0.1295449435
C   C90       1.0  0.45020  0.96630  0.80150  1.0000 -0.1295449435
C   C91       1.0  0.16460  0.59780  0.20080  1.0000 -0.1083847401
C   C92       1.0  0.39700  0.96380  0.79920  1.0000 -0.1083847401
C   C93       1.0  0.85980  0.11150  0.89350  1.0000 -0.1003596062
C   C94       1.0  0.21800  0.96630  0.10650  1.0000 -0.1003596062
C   C95       1.0  0.25460  0.98630  0.39270  1.0000 0.0598949636
C   C96       1.0  0.59360  0.86190  0.60730  1.0000 0.0598949636
C   C97       1.0  0.67060  0.79830  0.70370  1.0000 0.5100660076
C   C98       1.0  0.09460  0.96690  0.29630  1.0000 0.5100660076
C   C99       1.0  0.42310  0.66640  0.94250  1.0000 -0.1620961948
C   C100      1.0  0.72390  0.48060  0.05750  1.0000 -0.1620961948
C   C101      1.0  0.07460  0.55540  0.22800  1.0000 -0.0892000843
C   C102      1.0  0.32740  0.84660  0.77200  1.0000 -0.0892000843
C   C103      1.0  0.23650  0.05000  0.77690  1.0000 0.0697427269
C   C104      1.0  0.27310  0.45960  0.22310  1.0000 0.0697427269
C   C105      1.0  0.73560  0.55040  0.76760  1.0000 0.0697427269
C   C106      1.0  0.78280  0.96800  0.23240  1.0000 0.0697427269
C   C107      1.0  0.12230  0.97320  0.71130  1.0000 0.0809985926
C   C108      1.0  0.26190  0.41100  0.28870  1.0000 0.0809985926
C   C109      1.0  0.94980  0.41630  0.79410  1.0000 0.0598949636
C   C110      1.0  0.62220  0.15570  0.20590  1.0000 0.0598949636
C   C111      1.0  0.15570  0.75860  0.19510  1.0000 -0.2018587514
C   C112      1.0  0.56350  0.96060  0.80490  1.0000 -0.2018587514
C   C113      1.0  0.11850  0.46380  0.79590  1.0000 0.0480874548
C   C114      1.0  0.66790  0.32260  0.20410  1.0000 0.0480874548
C   C115      1.0  0.13020  0.72010  0.22530  1.0000 0.1094149123
C   C116      1.0  0.49480  0.90490  0.77470  1.0000 0.1094149123
C   C117      1.0  0.07380  0.60520  0.22660  1.0000 -0.1219810321
C   C118      1.0  0.37860  0.84720  0.77340  1.0000 -0.1219810321
C   C119      1.0  0.42700  0.14240  0.50780  1.0000 0.0480874548
C   C120      1.0  0.63460  0.91920  0.49220  1.0000 0.0480874548
C   C121      1.0  0.72320  0.74530  0.70570  1.0000 -0.0794335246
C   C122      1.0  0.03960  0.01750  0.29430  1.0000 -0.0794335246
C   C123      1.0  0.22920  0.25040  0.71860  1.0000 -0.0794335246
C   C124      1.0  0.53180  0.51060  0.28140  1.0000 -0.0794335246
C   C125      1.0  0.18860  0.48050  0.49970  1.0000 -0.1490412471
C   C126      1.0  0.98080  0.68890  0.50030  1.0000 -0.1490412471
C   C127      1.0  0.84520  0.03780  0.93700  1.0000 -0.0794335246
C   C128      1.0  0.10080  0.90820  0.06300  1.0000 -0.0794335246
C   C129      1.0  0.84300  0.36060  0.79580  1.0000 -0.0892000843
C   C130      1.0  0.56480  0.04720  0.20420  1.0000 -0.0892000843
C   C131      1.0  0.72440  0.69050  0.71210  1.0000 -0.1490412471
C   C132      1.0  0.97840  0.01230  0.28790  1.0000 -0.1490412471
C   C133      1.0  0.54940  0.77930  0.05510  1.0000 -0.2190613249
C   C134      1.0  0.72420  0.49430  0.94490  1.0000 -0.2190613249
C   C135      1.0  0.47530  0.22380  0.61070  1.0000 -0.1219810321
C   C136      1.0  0.61310  0.86460  0.38930  1.0000 -0.1219810321
C   C137      1.0  0.40470  0.59760  0.99210  1.0000 -0.1400606184
C   C138      1.0  0.60550  0.41260  0.00790  1.0000 -0.1400606184
C   C139      1.0  0.23190  0.19760  0.72470  1.0000 -0.1400606184
C   C140      1.0  0.47290  0.50720  0.27530  1.0000 -0.1400606184
C   C141      1.0  0.89550  0.09630  0.98880  1.0000 -0.1295449435
C   C142      1.0  0.10750  0.90670  0.01120  1.0000 -0.1295449435
C   C143      1.0  0.11380  0.35850  0.44690  1.0000 -0.1490412471
C   C144      1.0  0.91160  0.66690  0.55310  1.0000 -0.1490412471
C   C145      1.0  0.17970  0.08520  0.72450  1.0000 0.1198483343
C   C146      1.0  0.36070  0.45520  0.27550  1.0000 0.1198483343
C   C147      1.0  0.31250  0.02930  0.44680  1.0000 -0.207100883
C   C148      1.0  0.58250  0.86570  0.55320  1.0000 -0.207100883
C   C149      1.0  0.11890  0.80260  0.27350  1.0000 0.088302188
C   C150      1.0  0.52910  0.84540  0.72650  1.0000 0.088302188
C   C151      1.0  0.35080  0.53960  0.94000  1.0000 -0.1003596062
C   C152      1.0  0.59960  0.41080  0.06000  1.0000 -0.1003596062
C   C153      1.0  0.91250  0.16800  0.94250  1.0000 -0.1490412471
C   C154      1.0  0.22550  0.97000  0.05750  1.0000 -0.1490412471
C   C155      1.0  0.03820  0.27690  0.15270  1.0000 0.102249826
C   C156      1.0  0.12420  0.88550  0.84730  1.0000 0.102249826
C   C157      1.0  0.42080  0.16480  0.55640  1.0000 -0.1490412471
C   C158      1.0  0.60840  0.86440  0.44360  1.0000 -0.1490412471
C   C159      1.0  0.11200  0.35180  0.60700  1.0000 0.0372606194
C   C160      1.0  0.74480  0.50500  0.39300  1.0000 0.0372606194
C   C161      1.0  0.98680  0.21840  0.10140  1.0000 -0.1620961948
C   C162      1.0  0.11700  0.88540  0.89860  1.0000 -0.1620961948
C   C163      1.0  0.03180  0.27870  0.05130  1.0000 -0.2018587514
C   C164      1.0  0.22740  0.98050  0.94870  1.0000 -0.2018587514
C   C165      1.0  0.11160  0.35240  0.55380  1.0000 -0.1815004621
C   C166      1.0  0.79860  0.55780  0.44620  1.0000 -0.1815004621
C   C167      1.0  0.54150  0.78380  0.15630  1.0000 0.1198483343
C   C168      1.0  0.62750  0.38520  0.84370  1.0000 0.1198483343
C   C169      1.0  0.59720  0.83530  0.10550  1.0000 0.0697427269
C   C170      1.0  0.72980  0.49170  0.89450  1.0000 0.0697427269
C   C171      1.0  0.54240  0.22820  0.55860  1.0000 -0.1003596062
C   C172      1.0  0.66960  0.98380  0.44140  1.0000 -0.1003596062
C   C173      1.0  0.14520  0.41480  0.49600  1.0000 0.0809985926
C   C174      1.0  0.91880  0.64920  0.50400  1.0000 0.0809985926
C   C175      1.0  0.37110  0.61020  0.89150  1.0000 -0.0892000843
C   C176      1.0  0.71870  0.47960  0.10850  1.0000 -0.0892000843
C   C177      1.0  0.73360  0.60030  0.75590  1.0000 -0.1620961948
C   C178      1.0  0.84440  0.97770  0.24410  1.0000 -0.1620961948
C   C179      1.0  0.89330  0.35870  0.79500  1.0000 -0.1295449435
C   C180      1.0  0.56370  0.09830  0.20500  1.0000 -0.1295449435
C   C181      1.0  0.49110  0.17660  0.51150  1.0000 -0.1219810321
C   C182      1.0  0.66510  0.97960  0.48850  1.0000 -0.1219810321
C   C183      1.0  0.03490  0.34820  0.74030  1.0000 0.0809985926
C   C184      1.0  0.60790  0.29460  0.25970  1.0000 0.0809985926
C   C185      1.0  0.19690  0.46790  0.60740  1.0000 -0.1815004621
C   C186      1.0  0.86050  0.58950  0.39260  1.0000 -0.1815004621
C   C187      1.0  0.11810  0.54920  0.21250  1.0000 0.0106483812
C   C188      1.0  0.33670  0.90560  0.78750  1.0000 0.0106483812
C   C189      1.0  0.12430  0.49180  0.21490  1.0000 0.5028553656
C   C190      1.0  0.27690  0.90940  0.78510  1.0000 0.5028553656
C   C191      1.0  0.08200  0.33560  0.10420  1.0000 0.0809985926
C   C192      1.0  0.23140  0.97780  0.89580  1.0000 0.0809985926
C   C193      1.0  0.42392  0.03180  0.27452  1.0000 -0.0037994925
C   C194      1.0  0.75728  0.14940  0.72548  1.0000 -0.0037994925
C   C195      1.0  0.42500  0.09100  0.27040  1.0000 0.5028553656
C   C196      1.0  0.82060  0.15460  0.72960  1.0000 0.5028553656
C   C197      1.0  0.98790  0.15300  0.22090  1.0000 0.4777406207
C   C198      1.0  0.93210  0.76700  0.77910  1.0000 0.4777406207
C   C199      1.0  0.24440  0.53530  0.07250  1.0000 -0.0599562922
C   C200      1.0  0.46280  0.17190  0.92750  1.0000 -0.0599562922
C   C201      1.0  0.55090  0.66100  0.21910  1.0000 -0.0338098589
C   C202      1.0  0.44190  0.33180  0.78090  1.0000 -0.0338098589
C   C203      1.0  0.10080  0.33560  0.86580  1.0000 -0.1683012395
C   C204      1.0  0.46980  0.23500  0.13420  1.0000 -0.1683012395
C   C205      1.0  0.31750  0.64620  0.72130  1.0000 0.4880677736
C   C206      1.0  0.92490  0.59620  0.27870  1.0000 0.4880677736
C   C207      1.0  0.47120  0.66720  0.56860  1.0000 -0.1083847401
C   C208      1.0  0.09860  0.90260  0.43140  1.0000 -0.1083847401
C   C209      1.0  0.08960  0.63640  0.72000  1.0000 0.102249826
C   C210      1.0  0.91640  0.36960  0.28000  1.0000 0.102249826
C   C211      1.0  0.49060  0.65330  0.21950  1.0000 0.5245587579
C   C212      1.0  0.43380  0.27110  0.78050  1.0000 0.5245587579
C   C213      1.0  0.72240  0.66790  0.22530  1.0000 0.1094149123
C   C214      1.0  0.44260  0.49710  0.77470  1.0000 0.1094149123
C   C215      1.0  0.25360  0.64370  0.71570  1.0000 0.0106483812
C   C216      1.0  0.92800  0.53790  0.28430  1.0000 0.0106483812
C   C217      1.0  0.18290  0.48720  0.07110  1.0000 -0.0794335246
C   C218      1.0  0.41610  0.11180  0.92890  1.0000 -0.0794335246
C   C219      1.0  0.74090  0.04090  0.07440  1.0000 -0.0664088526
C   C220      1.0  0.96650  0.66650  0.92560  1.0000 -0.0664088526
C   C221      1.0  0.04400  0.15780  0.22160  1.0000 -0.0794335246
C   C222      1.0  0.93620  0.82240  0.77840  1.0000 -0.0794335246
C   C223      1.0  0.51610  0.82240  0.89810  1.0000 -0.207100883
C   C224      1.0  0.92430  0.61800  0.10190  1.0000 -0.207100883
C   C225      1.0  0.41590  0.61630  0.57100  1.0000 0.0106483812
C   C226      1.0  0.04530  0.84490  0.42900  1.0000 0.0106483812
C   C227      1.0  0.47200  0.76480  0.84960  1.0000 0.0809985926
C   C228      1.0  0.91520  0.62240  0.15040  1.0000 0.0809985926
C   C229      1.0  0.41310  0.62610  0.40860  1.0000 0.1094149123
C   C230      1.0  0.21750  0.00450  0.59140  1.0000 0.1094149123
C   C231      1.0  0.62790  0.93180  0.01570  1.0000 -0.1683012395
C   C232      1.0  0.91610  0.61220  0.98430  1.0000 -0.1683012395
C   C233      1.0  0.41400  0.62310  0.63050  1.0000 0.5100660076
C   C234      1.0  0.99260  0.78350  0.36950  1.0000 0.5100660076
C   C235      1.0  0.63240  0.92790  0.96370  1.0000 0.0809985926
C   C236      1.0  0.96420  0.66870  0.03630  1.0000 0.0809985926
C   C237      1.0  0.04340  0.69920  0.73760  1.0000 0.0809985926
C   C238      1.0  0.96160  0.30580  0.26240  1.0000 0.0809985926
C   C239      1.0  0.34910  0.59910  0.36160  1.0000 -0.1889655167
C   C240      1.0  0.23750  0.98750  0.63840  1.0000 -0.1889655167
C   C241      1.0  0.67920  0.98790  0.07130  1.0000 -0.0794335246
C   C242      1.0  0.91660  0.60790  0.92870  1.0000 -0.0794335246
C   C243      1.0  0.22020  0.16970  0.23550  1.0000 0.1198483343
C   C244      1.0  0.93420  0.98470  0.76450  1.0000 0.1198483343
C   C245      1.0  0.58250  0.86470  0.90740  1.0000 0.1198483343
C   C246      1.0  0.95730  0.67510  0.09260  1.0000 0.1198483343
C   C247      1.0  0.01900  0.32080  0.89640  1.0000 -0.207100883
C   C248      1.0  0.42440  0.12260  0.10360  1.0000 -0.207100883
C   C249      1.0  0.74570  0.47960  0.63590  1.0000 -0.1889655167
C   C250      1.0  0.84370  0.10980  0.36410  1.0000 -0.1889655167
C   C251      1.0  0.09280  0.69620  0.72640  1.0000 -0.1815004621
C   C252      1.0  0.96980  0.36640  0.27360  1.0000 -0.1815004621
C   C253      1.0  0.13200  0.43010  0.01470  1.0000 -0.1683012395
C   C254      1.0  0.41540  0.11730  0.98530  1.0000 -0.1683012395
C   C255      1.0  0.66120  0.44220  0.53460  1.0000 0.0598949636
C   C256      1.0  0.90760  0.12660  0.46540  1.0000 0.0598949636
C   C257      1.0  0.36100  0.97010  0.24850  1.0000 -0.1083847401
C   C258      1.0  0.72160  0.11250  0.75150  1.0000 -0.1083847401
C   C259      1.0  0.30230  0.58750  0.12700  1.0000 0.5326380482
C   C260      1.0  0.46050  0.17530  0.87300  1.0000 0.5326380482
C   C261      1.0  0.81860  0.61020  0.65680  1.0000 0.0259023718
C   C262      1.0  0.95340  0.16180  0.34320  1.0000 0.0259023718
C   C263      1.0  0.46880  0.65960  0.39860  1.0000 -0.2018587514
C   C264      1.0  0.26100  0.07020  0.60140  1.0000 -0.2018587514
C   C265      1.0  0.40980  0.85780  0.26260  1.0000 0.102249826
C   C266      1.0  0.59520  0.14720  0.73740  1.0000 0.102249826
C   C267      1.0  0.15680  0.16520  0.22880  1.0000 0.0809985926
C   C268      1.0  0.93640  0.92800  0.77120  1.0000 0.0809985926
C   C269      1.0  0.72200  0.61980  0.22760  1.0000 -0.1490412471
C   C270      1.0  0.39220  0.49440  0.77240  1.0000 -0.1490412471
C   C271      1.0  0.65800  0.66410  0.21670  1.0000 0.088302188
C   C272      1.0  0.44740  0.44130  0.78330  1.0000 0.088302188
C   C273      1.0  0.14070  0.42670  0.96380  1.0000 0.0809985926
C   C274      1.0  0.46290  0.17690  0.03620  1.0000 0.0809985926
C   C275      1.0  0.47530  0.66890  0.51880  1.0000 -0.1400606184
C   C276      1.0  0.15010  0.95650  0.48120  1.0000 -0.1400606184
C   C277      1.0  0.46480  0.80510  0.26570  1.0000 0.0598949636
C   C278      1.0  0.53940  0.19910  0.73430  1.0000 0.0598949636
C   C279      1.0  0.48150  0.03610  0.29280  1.0000 -0.1083847401
C   C280      1.0  0.74330  0.18870  0.70720  1.0000 -0.1083847401
C   C281      1.0  0.64870  0.45020  0.48390  1.0000 -0.1295449435
C   C282      1.0  0.96630  0.16480  0.51610  1.0000 -0.1295449435
C   C283      1.0  0.59780  0.39700  0.43320  1.0000 -0.1083847401
C   C284      1.0  0.96380  0.16460  0.56680  1.0000 -0.1083847401
C   C285      1.0  0.11150  0.21800  0.25170  1.0000 -0.1003596062
C   C286      1.0  0.96630  0.85980  0.74830  1.0000 -0.1003596062
C   C287      1.0  0.98630  0.59360  0.73170  1.0000 0.0598949636
C   C288      1.0  0.86190  0.25460  0.26830  1.0000 0.0598949636
C   C289      1.0  0.79830  0.09460  0.12770  1.0000 0.5100660076
C   C290      1.0  0.96690  0.67060  0.87230  1.0000 0.5100660076
C   C291      1.0  0.66640  0.72390  0.24330  1.0000 -0.1620961948
C   C292      1.0  0.48060  0.42310  0.75670  1.0000 -0.1620961948
C   C293      1.0  0.55540  0.32740  0.48080  1.0000 -0.0892000843
C   C294      1.0  0.84660  0.07460  0.51920  1.0000 -0.0892000843
C   C295      1.0  0.05000  0.27310  0.81350  1.0000 0.0697427269
C   C296      1.0  0.45960  0.23650  0.18650  1.0000 0.0697427269
C   C297      1.0  0.55040  0.78280  0.81480  1.0000 0.0697427269
C   C298      1.0  0.96800  0.73560  0.18520  1.0000 0.0697427269
C   C299      1.0  0.97320  0.26190  0.85090  1.0000 0.0809985926
C   C300      1.0  0.41100  0.12230  0.14910  1.0000 0.0809985926
C   C301      1.0  0.41630  0.62220  0.46650  1.0000 0.0598949636
C   C302      1.0  0.15570  0.94980  0.53350  1.0000 0.0598949636
C   C303      1.0  0.75860  0.56350  0.60290  1.0000 -0.2018587514
C   C304      1.0  0.96060  0.15570  0.39710  1.0000 -0.2018587514
C   C305      1.0  0.46380  0.66790  0.34530  1.0000 0.0480874548
C   C306      1.0  0.32260  0.11850  0.65470  1.0000 0.0480874548
C   C307      1.0  0.72010  0.49480  0.58990  1.0000 0.1094149123
C   C308      1.0  0.90490  0.13020  0.41010  1.0000 0.1094149123
C   C309      1.0  0.60520  0.37860  0.53140  1.0000 -0.1219810321
C   C310      1.0  0.84720  0.07380  0.46860  1.0000 -0.1219810321
C   C311      1.0  0.14240  0.63460  0.71540  1.0000 0.0480874548
C   C312      1.0  0.91920  0.42700  0.28460  1.0000 0.0480874548
C   C313      1.0  0.74530  0.03960  0.02210  1.0000 -0.0794335246
C   C314      1.0  0.01750  0.72320  0.97790  1.0000 -0.0794335246
C   C315      1.0  0.25040  0.53180  0.02120  1.0000 -0.0794335246
C   C316      1.0  0.51060  0.22920  0.97880  1.0000 -0.0794335246
C   C317      1.0  0.48050  0.98080  0.29190  1.0000 -0.1490412471
C   C318      1.0  0.68890  0.18860  0.70810  1.0000 -0.1490412471
C   C319      1.0  0.03780  0.10080  0.19260  1.0000 -0.0794335246
C   C320      1.0  0.90820  0.84520  0.80740  1.0000 -0.0794335246
C   C321      1.0  0.36060  0.56480  0.51760  1.0000 -0.0892000843
C   C322      1.0  0.04720  0.84300  0.48240  1.0000 -0.0892000843
C   C323      1.0  0.69050  0.97840  0.96610  1.0000 -0.1490412471
C   C324      1.0  0.01230  0.72440  0.03390  1.0000 -0.1490412471
C   C325      1.0  0.77930  0.72420  0.22990  1.0000 -0.2190613249
C   C326      1.0  0.49430  0.54940  0.77010  1.0000 -0.2190613249
C   C327      1.0  0.22380  0.61310  0.74850  1.0000 -0.1219810321
C   C328      1.0  0.86460  0.47530  0.25150  1.0000 -0.1219810321
C   C329      1.0  0.59760  0.60550  0.19290  1.0000 -0.1400606184
C   C330      1.0  0.41260  0.40470  0.80710  1.0000 -0.1400606184
C   C331      1.0  0.19760  0.47290  0.96570  1.0000 -0.1400606184
C   C332      1.0  0.50720  0.23190  0.03430  1.0000 -0.1400606184
C   C333      1.0  0.09630  0.10750  0.20080  1.0000 -0.1295449435
C   C334      1.0  0.90670  0.89550  0.79920  1.0000 -0.1295449435
C   C335      1.0  0.35850  0.91160  0.24470  1.0000 -0.1490412471
C   C336      1.0  0.66690  0.11380  0.75530  1.0000 -0.1490412471
C   C337      1.0  0.08520  0.36070  0.90550  1.0000 0.1198483343
C   C338      1.0  0.45520  0.17970  0.09450  1.0000 0.1198483343
C   C339      1.0  0.02930  0.58250  0.71680  1.0000 -0.207100883
C   C340      1.0  0.86570  0.31250  0.28320  1.0000 -0.207100883
C   C341      1.0  0.80260  0.52910  0.68370  1.0000 0.088302188
C   C342      1.0  0.84540  0.11890  0.31630  1.0000 0.088302188
C   C343      1.0  0.53960  0.59960  0.18880  1.0000 -0.1003596062
C   C344      1.0  0.41080  0.35080  0.81120  1.0000 -0.1003596062
C   C345      1.0  0.16800  0.22550  0.25550  1.0000 -0.1490412471
C   C346      1.0  0.97000  0.91250  0.74450  1.0000 -0.1490412471
C   C347      1.0  0.27690  0.12420  0.23870  1.0000 0.102249826
C   C348      1.0  0.88550  0.03820  0.76130  1.0000 0.102249826
C   C349      1.0  0.16480  0.60840  0.74400  1.0000 -0.1490412471
C   C350      1.0  0.86440  0.42080  0.25600  1.0000 -0.1490412471
C   C351      1.0  0.35180  0.74480  0.23980  1.0000 0.0372606194
C   C352      1.0  0.50500  0.11200  0.76020  1.0000 0.0372606194
C   C353      1.0  0.21840  0.11700  0.23160  1.0000 -0.1620961948
C   C354      1.0  0.88540  0.98680  0.76840  1.0000 -0.1620961948
C   C355      1.0  0.27870  0.22740  0.24690  1.0000 -0.2018587514
C   C356      1.0  0.98050  0.03180  0.75310  1.0000 -0.2018587514
C   C357      1.0  0.35240  0.79860  0.24080  1.0000 -0.1815004621
C   C358      1.0  0.55780  0.11160  0.75920  1.0000 -0.1815004621
C   C359      1.0  0.78380  0.62750  0.24230  1.0000 0.1198483343
C   C360      1.0  0.38520  0.54150  0.75770  1.0000 0.1198483343
C   C361      1.0  0.83530  0.72980  0.23810  1.0000 0.0697427269
C   C362      1.0  0.49170  0.59720  0.76190  1.0000 0.0697427269
C   C363      1.0  0.22820  0.66960  0.68580  1.0000 -0.1003596062
C   C364      1.0  0.98380  0.54240  0.31420  1.0000 -0.1003596062
C   C365      1.0  0.41480  0.91880  0.26960  1.0000 0.0809985926
C   C366      1.0  0.64920  0.14520  0.73040  1.0000 0.0809985926
C   C367      1.0  0.61020  0.71870  0.23910  1.0000 -0.0892000843
C   C368      1.0  0.47960  0.37110  0.76090  1.0000 -0.0892000843
C   C369      1.0  0.60030  0.84440  0.86670  1.0000 -0.1620961948
C   C370      1.0  0.97770  0.73360  0.13330  1.0000 -0.1620961948
C   C371      1.0  0.35870  0.56370  0.46540  1.0000 -0.1295449435
C   C372      1.0  0.09830  0.89330  0.53460  1.0000 -0.1295449435
C   C373      1.0  0.17660  0.66510  0.68550  1.0000 -0.1219810321
C   C374      1.0  0.97960  0.49110  0.31450  1.0000 -0.1219810321
C   C375      1.0  0.34820  0.60790  0.31330  1.0000 0.0809985926
C   C376      1.0  0.29460  0.03490  0.68670  1.0000 0.0809985926
C   C377      1.0  0.46790  0.86050  0.27100  1.0000 -0.1815004621
C   C378      1.0  0.58950  0.19690  0.72900  1.0000 -0.1815004621
C   C379      1.0  0.54920  0.33670  0.43110  1.0000 0.0106483812
C   C380      1.0  0.90560  0.11810  0.56890  1.0000 0.0106483812
C   C381      1.0  0.49180  0.27690  0.36750  1.0000 0.5028553656
C   C382      1.0  0.90940  0.12430  0.63250  1.0000 0.5028553656
C   C383      1.0  0.33560  0.23140  0.25360  1.0000 0.0809985926
C   C384      1.0  0.97780  0.08200  0.74640  1.0000 0.0809985926
N   N1        1.0  0.67850  0.48350  0.73960  1.0000 -0.2683924709
N   N2        1.0  0.74390  0.93890  0.26040  1.0000 -0.2683924709
N   N3        1.0  0.15600  0.40600  0.66480  1.0000 -0.2858338902
N   N4        1.0  0.74120  0.49120  0.33520  1.0000 -0.2858338902
N   N5        1.0  0.17740  0.98400  0.74520  1.0000 -0.2683924709
N   N6        1.0  0.23880  0.43220  0.25480  1.0000 -0.2683924709
N   N7        1.0  0.24790  0.99000  0.34030  1.0000 -0.2587598809
N   N8        1.0  0.64970  0.90760  0.65970  1.0000 -0.2587598809
N   N9        1.0  0.14840  0.84420  0.25240  1.0000 -0.2505308637
N   N10       1.0  0.59180  0.89600  0.74760  1.0000 -0.2505308637
N   N11       1.0  0.09810  0.40180  0.75550  1.0000 -0.2683924709
N   N12       1.0  0.64630  0.34260  0.24450  1.0000 -0.2683924709
N   N13       1.0  0.08420  0.33260  0.15400  1.0000 -0.2190613249
N   N14       1.0  0.17860  0.93020  0.84600  1.0000 -0.2190613249
N   N15       1.0  0.59090  0.83610  0.15520  1.0000 -0.2317950227
N   N16       1.0  0.68090  0.43570  0.84480  1.0000 -0.2317950227
N   N17       1.0  0.48350  0.74390  0.80500  1.0000 -0.2683924709
N   N18       1.0  0.93890  0.67850  0.19500  1.0000 -0.2683924709
N   N19       1.0  0.40600  0.74120  0.25000  1.0000 -0.2858338902
N   N20       1.0  0.49120  0.15600  0.75000  1.0000 -0.2858338902
N   N21       1.0  0.98400  0.23880  0.80660  1.0000 -0.2683924709
N   N22       1.0  0.43220  0.17740  0.19340  1.0000 -0.2683924709
N   N23       1.0  0.99000  0.64970  0.74210  1.0000 -0.2587598809
N   N24       1.0  0.90760  0.24790  0.25790  1.0000 -0.2587598809
N   N25       1.0  0.84420  0.59180  0.69580  1.0000 -0.2505308637
N   N26       1.0  0.89600  0.14840  0.30420  1.0000 -0.2505308637
N   N27       1.0  0.40180  0.64630  0.30370  1.0000 -0.2683924709
N   N28       1.0  0.34260  0.09810  0.69630  1.0000 -0.2683924709
N   N29       1.0  0.33260  0.17860  0.24840  1.0000 -0.2190613249
N   N30       1.0  0.93020  0.08420  0.75160  1.0000 -0.2190613249
N   N31       1.0  0.83610  0.68090  0.24520  1.0000 -0.2317950227
N   N32       1.0  0.43570  0.59090  0.75480  1.0000 -0.2317950227
O   O1        1.0  0.19310  0.48330  0.33780  1.0000 -0.5220877403
O   O2        1.0  0.14550  0.85530  0.66220  1.0000 -0.5220877403
O   O3        1.0  0.65300  0.35030  0.66450  1.0000 -0.5503034839
O   O4        1.0  0.68580  0.98850  0.33550  1.0000 -0.5503034839
O   O5        1.0  0.23210  0.43370  0.83400  1.0000 -0.5110754618
O   O6        1.0  0.59970  0.39810  0.16600  1.0000 -0.5110754618
O   O7        1.0  0.72630  0.92920  0.82990  1.0000 -0.5220877403
O   O8        1.0  0.09930  0.89640  0.17010  1.0000 -0.5220877403
O   O9        1.0  0.78920  0.46320  0.79120  1.0000 -0.4705791683
O   O10       1.0  0.67200  0.99800  0.20880  1.0000 -0.4705791683
O   O11       1.0  0.61990  0.79840  0.70930  1.0000 -0.5666573295
O   O12       1.0  0.08910  0.91060  0.29070  1.0000 -0.5666573295
O   O13       1.0  0.25510  0.50020  0.78770  1.0000 -0.5866788873
O   O14       1.0  0.71250  0.46740  0.21230  1.0000 -0.5866788873
O   O15       1.0  0.58810  0.33290  0.70900  1.0000 -0.3930872628
O   O16       1.0  0.62390  0.87910  0.29100  1.0000 -0.3930872628
O   O17       1.0  0.12330  0.29950  0.71420  1.0000 -0.5393887633
O   O18       1.0  0.58530  0.40910  0.28580  1.0000 -0.5393887633
O   O19       1.0  0.74980  0.99370  0.78290  1.0000 -0.5866788873
O   O20       1.0  0.21080  0.96690  0.21710  1.0000 -0.5866788873
O   O21       1.0  0.12210  0.37520  0.29130  1.0000 -0.4384304532
O   O22       1.0  0.08390  0.83080  0.70870  1.0000 -0.4384304532
O   O23       1.0  0.73230  0.36480  0.78690  1.0000 -0.48927852
O   O24       1.0  0.57790  0.94540  0.21310  1.0000 -0.48927852
O   O25       1.0  0.22780  0.35790  0.72390  1.0000 -0.5393887633
O   O26       1.0  0.63400  0.50390  0.27610  1.0000 -0.5393887633
O   O27       1.0  0.72410  0.85460  0.71250  1.0000 -0.5503034839
O   O28       1.0  0.14210  0.01160  0.28750  1.0000 -0.5503034839
O   O29       1.0  0.16860  0.49350  0.20930  1.0000 -0.4384304532
O   O30       1.0  0.28420  0.95930  0.79070  1.0000 -0.4384304532
O   O31       1.0  0.08130  0.44640  0.22250  1.0000 -0.4705791683
O   O32       1.0  0.22390  0.85880  0.77750  1.0000 -0.4705791683
O   O33       1.0  0.48330  0.14550  0.29020  1.0000 -0.5220877403
O   O34       1.0  0.85530  0.19310  0.70980  1.0000 -0.5220877403
O   O35       1.0  0.35030  0.68580  0.69730  1.0000 -0.5503034839
O   O36       1.0  0.98850  0.65300  0.30270  1.0000 -0.5503034839
O   O37       1.0  0.43370  0.59970  0.20160  1.0000 -0.5110754618
O   O38       1.0  0.39810  0.23210  0.79840  1.0000 -0.5110754618
O   O39       1.0  0.92920  0.09930  0.20290  1.0000 -0.5220877403
O   O40       1.0  0.89640  0.72630  0.79710  1.0000 -0.5220877403
O   O41       1.0  0.46320  0.67200  0.67400  1.0000 -0.4705791683
O   O42       1.0  0.99800  0.78920  0.32600  1.0000 -0.4705791683
O   O43       1.0  0.79840  0.08910  0.17850  1.0000 -0.5666573295
O   O44       1.0  0.91060  0.61990  0.82150  1.0000 -0.5666573295
O   O45       1.0  0.50020  0.71250  0.24510  1.0000 -0.5866788873
O   O46       1.0  0.46740  0.25510  0.75490  1.0000 -0.5866788873
O   O47       1.0  0.33290  0.62390  0.74480  1.0000 -0.3930872628
O   O48       1.0  0.87910  0.58810  0.25520  1.0000 -0.3930872628
O   O49       1.0  0.29950  0.58530  0.17620  1.0000 -0.5393887633
O   O50       1.0  0.40910  0.12330  0.82380  1.0000 -0.5393887633
O   O51       1.0  0.99370  0.21080  0.24390  1.0000 -0.5866788873
O   O52       1.0  0.96690  0.74980  0.75610  1.0000 -0.5848915824
O   O53       1.0  0.37520  0.08390  0.25310  1.0000 -0.4384304532
O   O54       1.0  0.83080  0.12210  0.74690  1.0000 -0.4384304532
O   O55       1.0  0.36480  0.57790  0.63250  1.0000 -0.48927852
O   O56       1.0  0.94540  0.73230  0.36750  1.0000 -0.48927852
O   O57       1.0  0.35790  0.63400  0.13010  1.0000 -0.5393887633
O   O58       1.0  0.50390  0.22780  0.86990  1.0000 -0.5393887633
O   O59       1.0  0.85460  0.14210  0.13050  1.0000 -0.5503034839
O   O60       1.0  0.01160  0.72410  0.86950  1.0000 -0.5503034839
O   O61       1.0  0.49350  0.28420  0.32490  1.0000 -0.4384304532
O   O62       1.0  0.95930  0.16860  0.67510  1.0000 -0.4384304532
O   O63       1.0  0.44640  0.22390  0.36510  1.0000 -0.4705791683
O   O64       1.0  0.85880  0.08130  0.63490  1.0000 -0.4705791683
