# DDEC6 charges by PACMAN v1.1 (https://github.com/mtap-research/PACMAN-charge/)
data_2012[Eu][nan]3[ASR]5
_chemical_formula_sum              "Eu12 H144 C252 N12 O72"
_cell_length_a       14.5758
_cell_length_b       23.245
_cell_length_c       24.815
_cell_angle_alpha    90
_cell_angle_beta     102.904
_cell_angle_gamma    90

_symmetry_space_group_name_H-M    "P 1"
_symmetry_Int_Tables_number       1

loop_
  _symmetry_equiv_pos_as_xyz
  'x, y, z'

loop_
  _atom_site_type_symbol
  _atom_site_label
  _atom_site_symmetry_multiplicity
  _atom_site_fract_x
  _atom_site_fract_y
  _atom_site_fract_z
  _atom_site_occupancy
  _atom_site_charge
Eu  Eu1       1.0  0.75625  0.74288  0.77122  1.0000 2.0475939695
Eu  Eu2       1.0  0.24375  0.24288  0.72878  1.0000 2.0475939695
Eu  Eu3       1.0  0.24375  0.25712  0.22878  1.0000 2.0475939695
Eu  Eu4       1.0  0.75625  0.75712  0.27122  1.0000 2.0475939695
Eu  Eu5       1.0  0.26339  0.26554  0.07082  1.0000 2.0879074518
Eu  Eu6       1.0  0.73661  0.76554  0.42918  1.0000 2.0879074518
Eu  Eu7       1.0  0.73661  0.73446  0.92918  1.0000 2.0879074518
Eu  Eu8       1.0  0.26339  0.23446  0.57082  1.0000 2.0879074518
Eu  Eu9       1.0  0.76125  0.78210  0.10669  1.0000 2.0301869099
Eu  Eu10      1.0  0.23875  0.28210  0.39331  1.0000 2.0301869099
Eu  Eu11      1.0  0.23875  0.21790  0.89331  1.0000 2.0301869099
Eu  Eu12      1.0  0.76125  0.71790  0.60669  1.0000 2.0301869099
H   H1        1.0  0.14470  0.53590  0.93390  1.0000 0.1197972049
H   H2        1.0  0.85530  0.03590  0.56610  1.0000 0.1197972049
H   H3        1.0  0.85530  0.46410  0.06610  1.0000 0.1197972049
H   H4        1.0  0.14470  0.96410  0.43390  1.0000 0.1197972049
H   H5        1.0  0.15060  0.44090  0.95630  1.0000 0.1197972049
H   H6        1.0  0.84940  0.94090  0.54370  1.0000 0.1197972049
H   H7        1.0  0.84940  0.55910  0.04370  1.0000 0.1197972049
H   H8        1.0  0.15060  0.05910  0.45630  1.0000 0.1197972049
H   H9        1.0  0.37090  0.46880  0.08270  1.0000 0.1197972049
H   H10       1.0  0.62910  0.96880  0.41730  1.0000 0.1197972049
H   H11       1.0  0.62910  0.53120  0.91730  1.0000 0.1197972049
H   H12       1.0  0.37090  0.03120  0.58270  1.0000 0.1197972049
H   H13       1.0  0.36710  0.56500  0.06170  1.0000 0.1277709871
H   H14       1.0  0.63290  0.06500  0.43830  1.0000 0.1277709871
H   H15       1.0  0.63290  0.43500  0.93830  1.0000 0.1277709871
H   H16       1.0  0.36710  0.93500  0.56170  1.0000 0.1277709871
H   H17       1.0  0.41060  0.59930  0.94910  1.0000 0.1277709871
H   H18       1.0  0.58940  0.09930  0.55090  1.0000 0.1277709871
H   H19       1.0  0.58940  0.40070  0.05090  1.0000 0.1277709871
H   H20       1.0  0.41060  0.90070  0.44910  1.0000 0.1277709871
H   H21       1.0  0.54870  0.64860  0.96670  1.0000 0.1277709871
H   H22       1.0  0.45130  0.14860  0.53330  1.0000 0.1277709871
H   H23       1.0  0.45130  0.35140  0.03330  1.0000 0.1277709871
H   H24       1.0  0.54870  0.85140  0.46670  1.0000 0.1277709871
H   H25       1.0  0.43820  0.76940  0.04600  1.0000 0.1197972049
H   H26       1.0  0.56180  0.26940  0.45400  1.0000 0.1197972049
H   H27       1.0  0.56180  0.23060  0.95400  1.0000 0.1197972049
H   H28       1.0  0.43820  0.73060  0.54600  1.0000 0.1197972049
H   H29       1.0  0.29770  0.71840  0.03130  1.0000 0.1277709871
H   H30       1.0  0.70230  0.21840  0.46870  1.0000 0.1277709871
H   H31       1.0  0.70230  0.28160  0.96870  1.0000 0.1277709871
H   H32       1.0  0.29770  0.78160  0.53130  1.0000 0.1277709871
H   H33       1.0  0.23240  0.70450  0.91050  1.0000 0.1139289408
H   H34       1.0  0.76760  0.20450  0.58950  1.0000 0.1139289408
H   H35       1.0  0.76760  0.29550  0.08950  1.0000 0.1139289408
H   H36       1.0  0.23240  0.79550  0.41050  1.0000 0.1139289408
H   H37       1.0  0.09890  0.75060  0.86320  1.0000 0.1197972049
H   H38       1.0  0.90110  0.25060  0.63680  1.0000 0.1197972049
H   H39       1.0  0.90110  0.24940  0.13680  1.0000 0.1197972049
H   H40       1.0  0.09890  0.74940  0.36320  1.0000 0.1197972049
H   H41       1.0  0.94350  0.65430  0.94120  1.0000 0.1277709871
H   H42       1.0  0.05650  0.15430  0.55880  1.0000 0.1277709871
H   H43       1.0  0.05650  0.34570  0.05880  1.0000 0.1277709871
H   H44       1.0  0.94350  0.84570  0.44120  1.0000 0.1277709871
H   H45       1.0  0.07870  0.60930  0.99250  1.0000 0.1277709871
H   H46       1.0  0.92130  0.10930  0.50750  1.0000 0.1277709871
H   H47       1.0  0.92130  0.39070  0.00750  1.0000 0.1277709871
H   H48       1.0  0.07870  0.89070  0.49250  1.0000 0.1277709871
H   H49       1.0  0.11340  0.57100  0.84250  1.0000 0.1197972049
H   H50       1.0  0.88660  0.07100  0.65750  1.0000 0.1197972049
H   H51       1.0  0.88660  0.42900  0.15750  1.0000 0.1197972049
H   H52       1.0  0.11340  0.92900  0.34250  1.0000 0.1197972049
H   H53       1.0  0.97050  0.61200  0.80470  1.0000 0.1197972049
H   H54       1.0  0.02950  0.11200  0.69530  1.0000 0.1197972049
H   H55       1.0  0.02950  0.38800  0.19530  1.0000 0.1197972049
H   H56       1.0  0.97050  0.88800  0.30470  1.0000 0.1197972049
H   H57       1.0  0.08170  0.68120  0.68470  1.0000 0.1139289408
H   H58       1.0  0.91830  0.18120  0.81530  1.0000 0.1139289408
H   H59       1.0  0.91830  0.31880  0.31530  1.0000 0.1139289408
H   H60       1.0  0.08170  0.81880  0.18470  1.0000 0.1139289408
H   H61       1.0  0.22620  0.63780  0.72390  1.0000 0.1197972049
H   H62       1.0  0.77380  0.13780  0.77610  1.0000 0.1197972049
H   H63       1.0  0.77380  0.36220  0.27610  1.0000 0.1197972049
H   H64       1.0  0.22620  0.86220  0.22390  1.0000 0.1197972049
H   H65       1.0  0.36600  0.50760  0.88990  1.0000 0.1277709871
H   H66       1.0  0.63400  0.00760  0.61010  1.0000 0.1277709871
H   H67       1.0  0.63400  0.49240  0.11010  1.0000 0.1277709871
H   H68       1.0  0.36600  0.99240  0.38990  1.0000 0.1277709871
H   H69       1.0  0.36930  0.40790  0.89880  1.0000 0.1197972049
H   H70       1.0  0.63070  0.90790  0.60120  1.0000 0.1197972049
H   H71       1.0  0.63070  0.59210  0.10120  1.0000 0.1277709871
H   H72       1.0  0.36930  0.09210  0.39880  1.0000 0.1277709871
H   H73       1.0  0.15310  0.39660  0.76650  1.0000 0.1277709871
H   H74       1.0  0.84690  0.89660  0.73350  1.0000 0.1277709871
H   H75       1.0  0.84690  0.60340  0.23350  1.0000 0.1277709871
H   H76       1.0  0.15310  0.10340  0.26650  1.0000 0.1277709871
H   H77       1.0  0.15800  0.49530  0.75690  1.0000 0.1197972049
H   H78       1.0  0.84200  0.99530  0.74310  1.0000 0.1197972049
H   H79       1.0  0.84200  0.50470  0.24310  1.0000 0.1197972049
H   H80       1.0  0.15800  0.00470  0.25690  1.0000 0.1197972049
H   H81       1.0  0.42110  0.52700  0.78560  1.0000 0.1197972049
H   H82       1.0  0.57890  0.02700  0.71440  1.0000 0.1197972049
H   H83       1.0  0.57890  0.47300  0.21440  1.0000 0.1197972049
H   H84       1.0  0.42110  0.97300  0.28560  1.0000 0.1197972049
H   H85       1.0  0.56170  0.57090  0.78550  1.0000 0.1277709871
H   H86       1.0  0.43830  0.07090  0.71450  1.0000 0.1277709871
H   H87       1.0  0.43830  0.42910  0.21450  1.0000 0.1277709871
H   H88       1.0  0.56170  0.92910  0.28550  1.0000 0.1277709871
H   H89       1.0  0.46670  0.71570  0.83980  1.0000 0.1277709871
H   H90       1.0  0.53330  0.21570  0.66020  1.0000 0.1277709871
H   H91       1.0  0.53330  0.28430  0.16020  1.0000 0.1277709871
H   H92       1.0  0.46670  0.78430  0.33980  1.0000 0.1277709871
H   H93       1.0  0.32500  0.67590  0.83600  1.0000 0.1277709871
H   H94       1.0  0.67500  0.17590  0.66400  1.0000 0.1277709871
H   H95       1.0  0.67500  0.32410  0.16400  1.0000 0.1277709871
H   H96       1.0  0.32500  0.82410  0.33600  1.0000 0.1277709871
H   H97       1.0  0.67810  0.04000  0.80950  1.0000 0.1197972049
H   H98       1.0  0.32190  0.54000  0.69050  1.0000 0.1197972049
H   H99       1.0  0.32190  0.96000  0.19050  1.0000 0.1197972049
H   H100      1.0  0.67810  0.46000  0.30950  1.0000 0.1197972049
H   H101      1.0  0.67980  0.94440  0.78740  1.0000 0.1197972049
H   H102      1.0  0.32020  0.44440  0.71260  1.0000 0.1197972049
H   H103      1.0  0.32020  0.05560  0.21260  1.0000 0.1197972049
H   H104      1.0  0.67980  0.55560  0.28740  1.0000 0.1197972049
H   H105      1.0  0.80710  0.90870  0.94360  1.0000 0.1277709871
H   H106      1.0  0.19290  0.40870  0.55640  1.0000 0.1277709871
H   H107      1.0  0.19290  0.09130  0.05640  1.0000 0.1277709871
H   H108      1.0  0.80710  0.59130  0.44360  1.0000 0.1277709871
H   H109      1.0  0.80490  0.00510  0.96710  1.0000 0.1277709871
H   H110      1.0  0.19510  0.50510  0.53290  1.0000 0.1277709871
H   H111      1.0  0.19510  0.99490  0.03290  1.0000 0.1277709871
H   H112      1.0  0.80490  0.49490  0.46710  1.0000 0.1277709871
H   H113      1.0  0.72240  0.19370  0.85170  1.0000 0.1197972049
H   H114      1.0  0.27760  0.69370  0.64830  1.0000 0.1197972049
H   H115      1.0  0.27760  0.80630  0.14830  1.0000 0.1197972049
H   H116      1.0  0.72240  0.30630  0.35170  1.0000 0.1197972049
H   H117      1.0  0.58210  0.24150  0.81700  1.0000 0.1197972049
H   H118      1.0  0.41790  0.74150  0.68300  1.0000 0.1197972049
H   H119      1.0  0.41790  0.75850  0.18300  1.0000 0.1197972049
H   H120      1.0  0.58210  0.25850  0.31700  1.0000 0.1197972049
H   H121      1.0  0.43950  0.11870  0.87510  1.0000 0.1277709871
H   H122      1.0  0.56050  0.61870  0.62490  1.0000 0.1277709871
H   H123      1.0  0.56050  0.88130  0.12490  1.0000 0.1277709871
H   H124      1.0  0.43950  0.38130  0.37510  1.0000 0.1277709871
H   H125      1.0  0.57810  0.06990  0.91000  1.0000 0.1277709871
H   H126      1.0  0.42190  0.56990  0.59000  1.0000 0.1277709871
H   H127      1.0  0.42190  0.93010  0.09000  1.0000 0.1277709871
H   H128      1.0  0.57810  0.43010  0.41000  1.0000 0.1277709871
H   H129      1.0  0.91220  0.06460  0.88900  1.0000 0.1277709871
H   H130      1.0  0.08780  0.56460  0.61100  1.0000 0.1277709871
H   H131      1.0  0.08780  0.93540  0.11100  1.0000 0.1277709871
H   H132      1.0  0.91220  0.43540  0.38900  1.0000 0.1277709871
H   H133      1.0  0.05670  0.10770  0.92390  1.0000 0.1277709871
H   H134      1.0  0.94330  0.60770  0.57610  1.0000 0.1277709871
H   H135      1.0  0.94330  0.89230  0.07610  1.0000 0.1277709871
H   H136      1.0  0.05670  0.39230  0.42390  1.0000 0.1277709871
H   H137      1.0  0.93260  0.22690  0.99650  1.0000 0.1197972049
H   H138      1.0  0.06740  0.72690  0.50350  1.0000 0.1197972049
H   H139      1.0  0.06740  0.77310  0.00350  1.0000 0.1197972049
H   H140      1.0  0.93260  0.27310  0.49650  1.0000 0.1197972049
H   H141      1.0  0.79150  0.18460  0.96400  1.0000 0.1277709871
H   H142      1.0  0.20850  0.68460  0.53600  1.0000 0.1277709871
H   H143      1.0  0.20850  0.81540  0.03600  1.0000 0.1277709871
H   H144      1.0  0.79150  0.31540  0.46400  1.0000 0.1277709871
C   C1        1.0  0.25610  0.56190  0.99540  1.0000 0.2136707341
C   C2        1.0  0.74390  0.06190  0.50460  1.0000 0.2136707341
C   C3        1.0  0.74390  0.43810  0.00460  1.0000 0.2136707341
C   C4        1.0  0.25610  0.93810  0.49540  1.0000 0.2136707341
C   C5        1.0  0.19000  0.52270  0.96390  1.0000 -0.2092689711
C   C6        1.0  0.81000  0.02270  0.53610  1.0000 -0.2092689711
C   C7        1.0  0.81000  0.47730  0.03610  1.0000 -0.2092689711
C   C8        1.0  0.19000  0.97730  0.46390  1.0000 -0.2092689711
C   C9        1.0  0.19330  0.46600  0.97780  1.0000 -0.0711534608
C   C10       1.0  0.80670  0.96600  0.52220  1.0000 -0.0711534608
C   C11       1.0  0.80670  0.53400  0.02220  1.0000 -0.0711534608
C   C12       1.0  0.19330  0.03400  0.47780  1.0000 -0.0711534608
C   C13       1.0  0.25860  0.44390  0.02340  1.0000 -0.0711534608
C   C14       1.0  0.74140  0.94390  0.47660  1.0000 -0.0711534608
C   C15       1.0  0.74140  0.55610  0.97660  1.0000 -0.0711534608
C   C16       1.0  0.25860  0.05610  0.52340  1.0000 -0.0711534608
C   C17       1.0  0.32480  0.48250  0.05330  1.0000 -0.0810973144
C   C18       1.0  0.67520  0.98250  0.44670  1.0000 -0.0810973144
C   C19       1.0  0.67520  0.51750  0.94670  1.0000 -0.0810973144
C   C20       1.0  0.32480  0.01750  0.55330  1.0000 -0.0810973144
C   C21       1.0  0.32330  0.54030  0.04040  1.0000 -0.2092689711
C   C22       1.0  0.67670  0.04030  0.45960  1.0000 -0.2092689711
C   C23       1.0  0.67670  0.45970  0.95960  1.0000 -0.2092689711
C   C24       1.0  0.32330  0.95970  0.54040  1.0000 -0.2092689711
C   C25       1.0  0.25610  0.38400  0.03980  1.0000 0.569761533
C   C26       1.0  0.74390  0.88400  0.46020  1.0000 0.569761533
C   C27       1.0  0.74390  0.61600  0.96020  1.0000 0.569761533
C   C28       1.0  0.25610  0.11600  0.53980  1.0000 0.569761533
C   C29       1.0  0.41680  0.63290  0.97000  1.0000 -0.16993982
C   C30       1.0  0.58320  0.13290  0.53000  1.0000 -0.16993982
C   C31       1.0  0.58320  0.36710  0.03000  1.0000 -0.16993982
C   C32       1.0  0.41680  0.86710  0.47000  1.0000 -0.16993982
C   C33       1.0  0.49810  0.66260  0.97990  1.0000 -0.0879308572
C   C34       1.0  0.50190  0.16260  0.52010  1.0000 -0.0879308572
C   C35       1.0  0.50190  0.33740  0.02010  1.0000 -0.0879308572
C   C36       1.0  0.49810  0.83740  0.47990  1.0000 -0.0879308572
C   C37       1.0  0.50790  0.71260  0.00870  1.0000 -0.0122313681
C   C38       1.0  0.49210  0.21260  0.49130  1.0000 -0.0122313681
C   C39       1.0  0.49210  0.28740  0.99130  1.0000 -0.0122313681
C   C40       1.0  0.50790  0.78740  0.50870  1.0000 -0.0122313681
C   C41       1.0  0.43250  0.73430  0.02750  1.0000 -0.0879308572
C   C42       1.0  0.56750  0.23430  0.47250  1.0000 -0.0879308572
C   C43       1.0  0.56750  0.26570  0.97250  1.0000 -0.0879308572
C   C44       1.0  0.43250  0.76570  0.52750  1.0000 -0.0879308572
C   C45       1.0  0.34900  0.70440  0.01880  1.0000 -0.1815738848
C   C46       1.0  0.65100  0.20440  0.48120  1.0000 -0.1815738848
C   C47       1.0  0.65100  0.29560  0.98120  1.0000 -0.1815738848
C   C48       1.0  0.34900  0.79560  0.51880  1.0000 -0.1815738848
C   C49       1.0  0.34430  0.65220  0.99060  1.0000 0.1640748863
C   C50       1.0  0.65570  0.15220  0.50940  1.0000 0.1640748863
C   C51       1.0  0.65570  0.34780  0.00940  1.0000 0.1640748863
C   C52       1.0  0.34430  0.84780  0.49060  1.0000 0.1640748863
C   C53       1.0  0.59850  0.74730  0.02310  1.0000 0.6258638685
C   C54       1.0  0.40150  0.24730  0.47690  1.0000 0.6258638685
C   C55       1.0  0.40150  0.25270  0.97690  1.0000 0.6258638685
C   C56       1.0  0.59850  0.75270  0.52310  1.0000 0.6258638685
C   C57       1.0  0.16960  0.64950  0.95350  1.0000 0.1807090028
C   C58       1.0  0.83040  0.14950  0.54650  1.0000 0.1807090028
C   C59       1.0  0.83040  0.35050  0.04650  1.0000 0.1807090028
C   C60       1.0  0.16960  0.85050  0.45350  1.0000 0.1807090028
C   C61       1.0  0.17410  0.69330  0.91630  1.0000 -0.2092689711
C   C62       1.0  0.82590  0.19330  0.58370  1.0000 -0.2092689711
C   C63       1.0  0.82590  0.30670  0.08370  1.0000 -0.2092689711
C   C64       1.0  0.17410  0.80670  0.41630  1.0000 -0.2092689711
C   C65       1.0  0.09350  0.72090  0.88740  1.0000 -0.0711534608
C   C66       1.0  0.90650  0.22090  0.61260  1.0000 -0.0711534608
C   C67       1.0  0.90650  0.27910  0.11260  1.0000 -0.0711534608
C   C68       1.0  0.09350  0.77910  0.38740  1.0000 -0.0711534608
C   C69       1.0  0.00570  0.70510  0.89390  1.0000 -0.0579012822
C   C70       1.0  0.99430  0.20510  0.60610  1.0000 -0.0579012822
C   C71       1.0  0.99430  0.29490  0.10610  1.0000 -0.0579012822
C   C72       1.0  0.00570  0.79490  0.39390  1.0000 -0.0579012822
C   C73       1.0  0.00180  0.66380  0.93430  1.0000 -0.0711534608
C   C74       1.0  0.99820  0.16380  0.56570  1.0000 -0.0711534608
C   C75       1.0  0.99820  0.33620  0.06570  1.0000 -0.0711534608
C   C76       1.0  0.00180  0.83620  0.43430  1.0000 -0.0711534608
C   C77       1.0  0.08300  0.63590  0.96520  1.0000 -0.2092689711
C   C78       1.0  0.91700  0.13590  0.53480  1.0000 -0.2092689711
C   C79       1.0  0.91700  0.36410  0.03480  1.0000 -0.2092689711
C   C80       1.0  0.08300  0.86410  0.46520  1.0000 -0.2092689711
C   C81       1.0  0.91640  0.72800  0.86110  1.0000 0.6000486349
C   C82       1.0  0.08360  0.22800  0.63890  1.0000 0.6000486349
C   C83       1.0  0.08360  0.27200  0.13890  1.0000 0.6000486349
C   C84       1.0  0.91640  0.77200  0.36110  1.0000 0.6000486349
C   C85       1.0  0.18450  0.59980  0.78590  1.0000 0.1725026217
C   C86       1.0  0.81550  0.09980  0.71410  1.0000 0.1725026217
C   C87       1.0  0.81550  0.40020  0.21410  1.0000 0.1725026217
C   C88       1.0  0.18450  0.90020  0.28590  1.0000 0.1725026217
C   C89       1.0  0.10650  0.59280  0.81040  1.0000 -0.1909682472
C   C90       1.0  0.89350  0.09280  0.68960  1.0000 -0.1909682472
C   C91       1.0  0.89350  0.40720  0.18960  1.0000 -0.1909682472
C   C92       1.0  0.10650  0.90720  0.31040  1.0000 -0.1909682472
C   C93       1.0  0.02120  0.61720  0.78820  1.0000 -0.0711534608
C   C94       1.0  0.97880  0.11720  0.71180  1.0000 -0.0711534608
C   C95       1.0  0.97880  0.38280  0.21180  1.0000 -0.0711534608
C   C96       1.0  0.02120  0.88280  0.28820  1.0000 -0.0711534608
C   C97       1.0  0.01160  0.64990  0.74040  1.0000 -0.0312481414
C   C98       1.0  0.98840  0.14990  0.75960  1.0000 -0.0312481414
C   C99       1.0  0.98840  0.35010  0.25960  1.0000 -0.0312481414
C   C100      1.0  0.01160  0.85010  0.24040  1.0000 -0.0312481414
C   C101      1.0  0.08800  0.65850  0.71620  1.0000 -0.0879308572
C   C102      1.0  0.91200  0.15850  0.78380  1.0000 -0.0879308572
C   C103      1.0  0.91200  0.34150  0.28380  1.0000 -0.0879308572
C   C104      1.0  0.08800  0.84150  0.21620  1.0000 -0.0879308572
C   C105      1.0  0.17500  0.63250  0.74000  1.0000 -0.2008836556
C   C106      1.0  0.82500  0.13250  0.76000  1.0000 -0.2008836556
C   C107      1.0  0.82500  0.36750  0.26000  1.0000 -0.2008836556
C   C108      1.0  0.17500  0.86750  0.24000  1.0000 -0.2008836556
C   C109      1.0  0.91630  0.67550  0.71440  1.0000 0.636958692
C   C110      1.0  0.08370  0.17550  0.78560  1.0000 0.636958692
C   C111      1.0  0.08370  0.32450  0.28560  1.0000 0.636958692
C   C112      1.0  0.91630  0.82450  0.21440  1.0000 0.636958692
C   C113      1.0  0.26540  0.51090  0.82040  1.0000 0.1725026217
C   C114      1.0  0.73460  0.01090  0.67960  1.0000 0.1725026217
C   C115      1.0  0.73460  0.48910  0.17960  1.0000 0.1725026217
C   C116      1.0  0.26540  0.98910  0.32040  1.0000 0.1725026217
C   C117      1.0  0.32530  0.48510  0.86410  1.0000 -0.2008836556
C   C118      1.0  0.67470  0.98510  0.63590  1.0000 -0.2008836556
C   C119      1.0  0.67470  0.51490  0.13590  1.0000 -0.2008836556
C   C120      1.0  0.32530  0.01490  0.36410  1.0000 -0.2008836556
C   C121      1.0  0.32610  0.42520  0.87010  1.0000 -0.0810973144
C   C122      1.0  0.67390  0.92520  0.62990  1.0000 -0.0810973144
C   C123      1.0  0.67390  0.57480  0.12990  1.0000 -0.0810973144
C   C124      1.0  0.32610  0.07480  0.37010  1.0000 -0.0810973144
C   C125      1.0  0.26270  0.39170  0.83340  1.0000 -0.0312481414
C   C126      1.0  0.73730  0.89170  0.66667  1.0000 -0.0312481414
C   C127      1.0  0.73730  0.60830  0.16660  1.0000 -0.0312481414
C   C128      1.0  0.26270  0.10830  0.33340  1.0000 -0.0312481414
C   C129      1.0  0.19770  0.41830  0.79080  1.0000 -0.0711534608
C   C130      1.0  0.80230  0.91830  0.70920  1.0000 -0.0711534608
C   C131      1.0  0.80230  0.58170  0.20920  1.0000 -0.0711534608
C   C132      1.0  0.19770  0.08170  0.29080  1.0000 -0.0711534608
C   C133      1.0  0.20110  0.47760  0.78540  1.0000 -0.1909682472
C   C134      1.0  0.79890  0.97760  0.71460  1.0000 -0.1909682472
C   C135      1.0  0.79890  0.52240  0.21460  1.0000 -0.1909682472
C   C136      1.0  0.20110  0.02240  0.28540  1.0000 -0.1909682472
C   C137      1.0  0.26480  0.32820  0.84090  1.0000 0.6000486349
C   C138      1.0  0.73520  0.82820  0.65910  1.0000 0.6000486349
C   C139      1.0  0.73520  0.67180  0.15910  1.0000 0.6000486349
C   C140      1.0  0.26480  0.17180  0.34090  1.0000 0.6000486349
C   C141      1.0  0.35790  0.59790  0.81120  1.0000 0.1725026217
C   C142      1.0  0.64210  0.09790  0.68880  1.0000 0.1725026217
C   C143      1.0  0.64210  0.40210  0.18880  1.0000 0.1725026217
C   C144      1.0  0.35790  0.90210  0.31120  1.0000 0.1725026217
C   C145      1.0  0.43050  0.56540  0.79570  1.0000 -0.2008836556
C   C146      1.0  0.56950  0.06540  0.70430  1.0000 -0.2008836556
C   C147      1.0  0.56950  0.43460  0.20430  1.0000 -0.2008836556
C   C148      1.0  0.43050  0.93460  0.29570  1.0000 -0.2008836556
C   C149      1.0  0.51400  0.59150  0.79610  1.0000 -0.0810973144
C   C150      1.0  0.48600  0.09150  0.70390  1.0000 -0.0810973144
C   C151      1.0  0.48600  0.40850  0.20390  1.0000 -0.0810973144
C   C152      1.0  0.51400  0.90850  0.29610  1.0000 -0.0810973144
C   C153      1.0  0.52890  0.64830  0.81210  1.0000 -0.0122313681
C   C154      1.0  0.47110  0.14830  0.68790  1.0000 -0.0122313681
C   C155      1.0  0.47110  0.35170  0.18790  1.0000 -0.0122313681
C   C156      1.0  0.52890  0.85170  0.31210  1.0000 -0.0122313681
C   C157      1.0  0.45640  0.67780  0.82780  1.0000 -0.0879308572
C   C158      1.0  0.54360  0.17780  0.67220  1.0000 -0.0879308572
C   C159      1.0  0.54360  0.32220  0.17220  1.0000 -0.0879308572
C   C160      1.0  0.45640  0.82220  0.32780  1.0000 -0.0879308572
C   C161      1.0  0.37280  0.65430  0.82650  1.0000 -0.1815738848
C   C162      1.0  0.62720  0.15430  0.67350  1.0000 -0.1815738848
C   C163      1.0  0.62720  0.34570  0.17350  1.0000 -0.1815738848
C   C164      1.0  0.37280  0.84570  0.32650  1.0000 -0.1815738848
C   C165      1.0  0.62150  0.67600  0.81160  1.0000 0.6125334759
C   C166      1.0  0.37850  0.17600  0.68840  1.0000 0.6125334759
C   C167      1.0  0.37850  0.32400  0.18840  1.0000 0.6125334759
C   C168      1.0  0.62150  0.82400  0.31160  1.0000 0.6125334759
C   C169      1.0  0.74350  0.03400  0.89060  1.0000 0.1725026217
C   C170      1.0  0.25650  0.53400  0.60940  1.0000 0.1725026217
C   C171      1.0  0.25650  0.96600  0.10940  1.0000 0.1725026217
C   C172      1.0  0.74350  0.46600  0.39060  1.0000 0.1725026217
C   C173      1.0  0.70480  0.01370  0.83680  1.0000 -0.1909682472
C   C174      1.0  0.29520  0.51370  0.66320  1.0000 -0.1909682472
C   C175      1.0  0.29520  0.98630  0.16320  1.0000 -0.1909682472
C   C176      1.0  0.70480  0.48630  0.33680  1.0000 -0.1909682472
C   C177      1.0  0.70520  0.95640  0.82340  1.0000 -0.0879308572
C   C178      1.0  0.29480  0.45640  0.67660  1.0000 -0.0879308572
C   C179      1.0  0.29480  0.04360  0.17660  1.0000 -0.0879308572
C   C180      1.0  0.70520  0.54360  0.32340  1.0000 -0.0879308572
C   C181      1.0  0.74330  0.91670  0.86340  1.0000 -0.0478391092
C   C182      1.0  0.25670  0.41670  0.63660  1.0000 -0.0478391092
C   C183      1.0  0.25670  0.08330  0.13660  1.0000 -0.0478391092
C   C184      1.0  0.74330  0.58330  0.36340  1.0000 -0.0478391092
C   C185      1.0  0.78090  0.93550  0.91660  1.0000 -0.0711534608
C   C186      1.0  0.21910  0.43550  0.58340  1.0000 -0.0711534608
C   C187      1.0  0.21910  0.06450  0.08340  1.0000 -0.0711534608
C   C188      1.0  0.78090  0.56450  0.41660  1.0000 -0.0711534608
C   C189      1.0  0.78050  0.99360  0.93080  1.0000 -0.1909682472
C   C190      1.0  0.21950  0.49360  0.56920  1.0000 -0.1909682472
C   C191      1.0  0.21950  0.00640  0.06920  1.0000 -0.1909682472
C   C192      1.0  0.78050  0.50640  0.43080  1.0000 -0.1909682472
C   C193      1.0  0.74590  0.85420  0.84950  1.0000 0.636958692
C   C194      1.0  0.25410  0.35420  0.65050  1.0000 0.636958692
C   C195      1.0  0.25410  0.14580  0.15050  1.0000 0.636958692
C   C196      1.0  0.74590  0.64580  0.34950  1.0000 0.636958692
C   C197      1.0  0.66580  0.12670  0.88270  1.0000 0.1807090028
C   C198      1.0  0.33420  0.62670  0.61730  1.0000 0.1807090028
C   C199      1.0  0.33420  0.87330  0.11730  1.0000 0.1807090028
C   C200      1.0  0.66580  0.37330  0.38270  1.0000 0.1807090028
C   C201      1.0  0.66590  0.17790  0.85610  1.0000 -0.2092689711
C   C202      1.0  0.33410  0.67790  0.64390  1.0000 -0.2092689711
C   C203      1.0  0.33410  0.82210  0.14390  1.0000 -0.2092689711
C   C204      1.0  0.66590  0.32210  0.35610  1.0000 -0.2092689711
C   C205      1.0  0.58130  0.20670  0.83540  1.0000 -0.0879308572
C   C206      1.0  0.41870  0.70670  0.66460  1.0000 -0.0879308572
C   C207      1.0  0.41870  0.79330  0.16460  1.0000 -0.0879308572
C   C208      1.0  0.58130  0.29330  0.33540  1.0000 -0.0879308572
C   C209      1.0  0.49630  0.18440  0.84190  1.0000 -0.039870577
C   C210      1.0  0.50370  0.68440  0.65810  1.0000 -0.039870577
C   C211      1.0  0.50370  0.81560  0.15810  1.0000 -0.039870577
C   C212      1.0  0.49630  0.31560  0.34190  1.0000 -0.039870577
C   C213      1.0  0.49610  0.13360  0.86990  1.0000 -0.0711534608
C   C214      1.0  0.50390  0.63360  0.63010  1.0000 -0.0711534608
C   C215      1.0  0.50390  0.86640  0.13010  1.0000 -0.0711534608
C   C216      1.0  0.49610  0.36640  0.36990  1.0000 -0.0711534608
C   C217      1.0  0.57900  0.10420  0.89080  1.0000 -0.2008836556
C   C218      1.0  0.42100  0.60420  0.60920  1.0000 -0.2008836556
C   C219      1.0  0.42100  0.89580  0.10920  1.0000 -0.2008836556
C   C220      1.0  0.57900  0.39580  0.39080  1.0000 -0.2008836556
C   C221      1.0  0.40730  0.21620  0.81650  1.0000 0.6125334759
C   C222      1.0  0.59270  0.71620  0.68350  1.0000 0.6125334759
C   C223      1.0  0.59270  0.78380  0.18350  1.0000 0.6125334759
C   C224      1.0  0.40730  0.28380  0.31650  1.0000 0.6125334759
C   C225      1.0  0.83560  0.12040  0.92340  1.0000 0.1807090028
C   C226      1.0  0.16440  0.62040  0.57660  1.0000 0.1807090028
C   C227      1.0  0.16440  0.87960  0.07660  1.0000 0.1807090028
C   C228      1.0  0.83560  0.37960  0.42340  1.0000 0.1807090028
C   C229      1.0  0.91590  0.09740  0.91080  1.0000 -0.1909682472
C   C230      1.0  0.08410  0.59740  0.58920  1.0000 -0.1909682472
C   C231      1.0  0.08410  0.90260  0.08920  1.0000 -0.1909682472
C   C232      1.0  0.91590  0.40260  0.41080  1.0000 -0.1909682472
C   C233      1.0  0.00290  0.12420  0.93150  1.0000 -0.0810973144
C   C234      1.0  0.99710  0.62420  0.56850  1.0000 -0.0810973144
C   C235      1.0  0.99710  0.87580  0.06850  1.0000 -0.0810973144
C   C236      1.0  0.00290  0.37580  0.43150  1.0000 -0.0810973144
C   C237      1.0  0.01220  0.17280  0.96180  1.0000 -0.0478391092
C   C238      1.0  0.98780  0.67280  0.53820  1.0000 -0.039870577
C   C239      1.0  0.98780  0.82720  0.03820  1.0000 -0.039870577
C   C240      1.0  0.01220  0.32720  0.46180  1.0000 -0.039870577
C   C241      1.0  0.92940  0.19430  0.97440  1.0000 -0.0711534608
C   C242      1.0  0.07060  0.69430  0.52560  1.0000 -0.0711534608
C   C243      1.0  0.07060  0.80570  0.02560  1.0000 -0.0711534608
C   C244      1.0  0.92940  0.30570  0.47440  1.0000 -0.0711534608
C   C245      1.0  0.84480  0.16870  0.95520  1.0000 -0.1909682472
C   C246      1.0  0.15520  0.66870  0.54480  1.0000 -0.1909682472
C   C247      1.0  0.15520  0.83130  0.04480  1.0000 -0.1909682472
C   C248      1.0  0.84480  0.33130  0.45520  1.0000 -0.1909682472
C   C249      1.0  0.10790  0.19740  0.98330  1.0000 0.6258638685
C   C250      1.0  0.89210  0.69740  0.51670  1.0000 0.6258638685
C   C251      1.0  0.89210  0.80260  0.01670  1.0000 0.6258638685
C   C252      1.0  0.10790  0.30260  0.48330  1.0000 0.6258638685
N   N1        1.0  0.25450  0.62030  0.98090  1.0000 -0.2008836556
N   N2        1.0  0.74550  0.12030  0.51910  1.0000 -0.2008836556
N   N3        1.0  0.74550  0.37970  0.01910  1.0000 -0.2008836556
N   N4        1.0  0.25450  0.87970  0.48090  1.0000 -0.2008836556
N   N5        1.0  0.74710  0.09430  0.90270  1.0000 -0.16993982
N   N6        1.0  0.25290  0.59430  0.59730  1.0000 -0.16993982
N   N7        1.0  0.25290  0.90570  0.09730  1.0000 -0.16993982
N   N8        1.0  0.74710  0.40570  0.40270  1.0000 -0.16993982
N   N9        1.0  0.26990  0.57050  0.81110  1.0000 -0.1909682472
N   N10       1.0  0.73010  0.07050  0.68890  1.0000 -0.1909682472
N   N11       1.0  0.73010  0.42950  0.18890  1.0000 -0.1909682472
N   N12       1.0  0.26990  0.92950  0.31110  1.0000 -0.1909682472
O   O1        1.0  0.19120  0.35100  0.01470  1.0000 -0.6078286956
O   O2        1.0  0.80880  0.85100  0.48530  1.0000 -0.6078286956
O   O3        1.0  0.80880  0.64900  0.98530  1.0000 -0.6078286956
O   O4        1.0  0.19120  0.14900  0.51470  1.0000 -0.6078286956
O   O5        1.0  0.31770  0.36410  0.07990  1.0000 -0.6470773633
O   O6        1.0  0.68230  0.86410  0.42010  1.0000 -0.6470773633
O   O7        1.0  0.68230  0.63590  0.92010  1.0000 -0.6470773633
O   O8        1.0  0.31770  0.13590  0.57990  1.0000 -0.6470773633
O   O9        1.0  0.66990  0.72660  0.00800  1.0000 -0.7433635409
O   O10       1.0  0.33010  0.22660  0.49200  1.0000 -0.7433635409
O   O11       1.0  0.33010  0.27340  0.99200  1.0000 -0.7433635409
O   O12       1.0  0.66990  0.77340  0.50800  1.0000 -0.7433635409
O   O13       1.0  0.60420  0.79150  0.05120  1.0000 -0.5957451279
O   O14       1.0  0.39580  0.29150  0.44880  1.0000 -0.5918005786
O   O15       1.0  0.39580  0.20850  0.94880  1.0000 -0.5957451279
O   O16       1.0  0.60420  0.70850  0.55120  1.0000 -0.5957451279
O   O17       1.0  0.83840  0.70780  0.86610  1.0000 -0.7135963257
O   O18       1.0  0.16160  0.20780  0.63390  1.0000 -0.7135963257
O   O19       1.0  0.16160  0.29220  0.13390  1.0000 -0.7135963257
O   O20       1.0  0.83840  0.79220  0.36610  1.0000 -0.7135963257
O   O21       1.0  0.92000  0.76400  0.82370  1.0000 -0.5918005786
O   O22       1.0  0.08000  0.26400  0.67630  1.0000 -0.5918005786
O   O23       1.0  0.08000  0.23600  0.17630  1.0000 -0.5918005786
O   O24       1.0  0.92000  0.73600  0.32370  1.0000 -0.5918005786
O   O25       1.0  0.85680  0.67610  0.74350  1.0000 -0.6396197344
O   O26       1.0  0.14320  0.17610  0.75650  1.0000 -0.6396197344
O   O27       1.0  0.14320  0.32390  0.25650  1.0000 -0.6396197344
O   O28       1.0  0.85680  0.82390  0.24350  1.0000 -0.6396197344
O   O29       1.0  0.90510  0.69460  0.66530  1.0000 -0.7135963257
O   O30       1.0  0.09490  0.19460  0.83470  1.0000 -0.7135963257
O   O31       1.0  0.09490  0.30540  0.33470  1.0000 -0.7135963257
O   O32       1.0  0.90510  0.80540  0.16530  1.0000 -0.7135963257
O   O33       1.0  0.21030  0.29690  0.80410  1.0000 -0.7341770346
O   O34       1.0  0.78970  0.79690  0.69590  1.0000 -0.7341770346
O   O35       1.0  0.78970  0.70310  0.19590  1.0000 -0.7341770346
O   O36       1.0  0.21030  0.20310  0.30410  1.0000 -0.7341770346
O   O37       1.0  0.31850  0.30620  0.88100  1.0000 -0.5802863206
O   O38       1.0  0.68150  0.80620  0.61900  1.0000 -0.5802863206
O   O39       1.0  0.68150  0.69380  0.11900  1.0000 -0.5802863206
O   O40       1.0  0.31850  0.19380  0.38100  1.0000 -0.5802863206
O   O41       1.0  0.64320  0.72490  0.83490  1.0000 -0.7630661393
O   O42       1.0  0.35680  0.22490  0.66510  1.0000 -0.7630661393
O   O43       1.0  0.35680  0.27510  0.16510  1.0000 -0.7630661393
O   O44       1.0  0.64320  0.77510  0.33490  1.0000 -0.7630661393
O   O45       1.0  0.67500  0.65290  0.78330  1.0000 -0.5918005786
O   O46       1.0  0.32500  0.15290  0.71670  1.0000 -0.5918005786
O   O47       1.0  0.32500  0.34710  0.21670  1.0000 -0.5918005786
O   O48       1.0  0.67500  0.84710  0.28330  1.0000 -0.5918005786
O   O49       1.0  0.76680  0.82090  0.89050  1.0000 -0.7027253624
O   O50       1.0  0.23320  0.32090  0.60950  1.0000 -0.7027253624
O   O51       1.0  0.23320  0.17910  0.10950  1.0000 -0.7027253624
O   O52       1.0  0.76680  0.67910  0.39050  1.0000 -0.7027253624
O   O53       1.0  0.72880  0.83810  0.80090  1.0000 -0.6078286956
O   O54       1.0  0.27120  0.33810  0.69910  1.0000 -0.6078286956
O   O55       1.0  0.27120  0.16190  0.19910  1.0000 -0.6078286956
O   O56       1.0  0.72880  0.66190  0.30090  1.0000 -0.6078286956
O   O57       1.0  0.40610  0.25550  0.78240  1.0000 -0.5802863206
O   O58       1.0  0.59390  0.75550  0.71760  1.0000 -0.5802863206
O   O59       1.0  0.59390  0.74450  0.21760  1.0000 -0.5802863206
O   O60       1.0  0.40610  0.24450  0.28240  1.0000 -0.5802863206
O   O61       1.0  0.32980  0.19550  0.82550  1.0000 -0.7536284293
O   O62       1.0  0.67020  0.69550  0.67450  1.0000 -0.7536284293
O   O63       1.0  0.67020  0.80450  0.17450  1.0000 -0.7536284293
O   O64       1.0  0.32980  0.30450  0.32550  1.0000 -0.7536284293
O   O65       1.0  0.17540  0.18210  0.96490  1.0000 -0.6822034533
O   O66       1.0  0.82460  0.68210  0.53510  1.0000 -0.6822034533
O   O67       1.0  0.82460  0.81790  0.03510  1.0000 -0.6822034533
O   O68       1.0  0.17540  0.31790  0.46490  1.0000 -0.6822034533
O   O69       1.0  0.11210  0.23550  0.02070  1.0000 -0.6396197344
O   O70       1.0  0.88790  0.73550  0.47930  1.0000 -0.6396197344
O   O71       1.0  0.88790  0.76450  0.97930  1.0000 -0.6396197344
O   O72       1.0  0.11210  0.26450  0.52070  1.0000 -0.6396197344
