# DDEC6 charges by PACMAN v1.1 (https://github.com/mtap-research/PACMAN-charge/)
data_2012[In][bpq]3[ASR]1
_chemical_formula_sum              "In2 H22 C16 O10"
_cell_length_a       7.1622
_cell_length_b       9.094
_cell_length_c       9.749
_cell_angle_alpha    105.663
_cell_angle_beta     103.181
_cell_angle_gamma    98.248

_symmetry_space_group_name_H-M    "P 1"
_symmetry_Int_Tables_number       1

loop_
  _symmetry_equiv_pos_as_xyz
  'x, y, z'

loop_
  _atom_site_type_symbol
  _atom_site_label
  _atom_site_symmetry_multiplicity
  _atom_site_fract_x
  _atom_site_fract_y
  _atom_site_fract_z
  _atom_site_occupancy
  _atom_site_charge
In  In1       1.0  0.00000  0.50000  0.00000  1.0000 1.5466167372
In  In2       1.0  0.50000  0.50000  0.00000  1.0000 1.5216648024
H   H1        1.0  0.50800  0.01300  0.70900  1.0000 0.1097400475
H   H2        1.0  0.76710  0.11410  0.54870  1.0000 0.1097400475
H   H3        1.0  0.81290  0.00790  0.64960  1.0000 0.1097400475
H   H4        1.0  0.07920  0.28250  0.35030  1.0000 0.1023091865
H   H5        1.0  0.05650  0.30320  0.51020  1.0000 0.1023091865
H   H6        1.0  0.20650  0.54770  0.41180  1.0000 0.1097400475
H   H7        1.0  0.33070  0.48310  0.52770  1.0000 0.1097400475
H   H8        1.0  0.29160  0.14510  0.60370  1.0000 0.1097400475
H   H9        1.0  0.43560  0.20010  0.51880  1.0000 0.1097400475
H   H10       1.0  0.75900  0.27700  0.34600  1.0000 0.1023091865
H   H11       1.0  0.49200  0.98700  0.29100  1.0000 0.1097400475
H   H12       1.0  0.23290  0.88590  0.45130  1.0000 0.1097400475
H   H13       1.0  0.18710  0.99210  0.35040  1.0000 0.1097400475
H   H14       1.0  0.92080  0.71750  0.64970  1.0000 0.1023091865
H   H15       1.0  0.94350  0.69680  0.48980  1.0000 0.1023091865
H   H16       1.0  0.79350  0.45230  0.58820  1.0000 0.1097400475
H   H17       1.0  0.66930  0.51690  0.47230  1.0000 0.1097400475
H   H18       1.0  0.70840  0.85490  0.39630  1.0000 0.1097400475
H   H19       1.0  0.56440  0.79990  0.48120  1.0000 0.1097400475
H   H20       1.0  0.24100  0.72300  0.65400  1.0000 0.1023091865
H   H21       1.0  0.76640  0.72880  0.01426  1.0000 0.4013949674
H   H22       1.0  0.23360  0.27120  0.98574  1.0000 0.4013949674
C   C1        1.0  0.70880  0.03130  0.58130  1.0000 -0.1892611193
C   C2        1.0  0.04980  0.35260  0.43310  1.0000 -0.183358829
C   C3        1.0  0.84180  0.37700  0.38240  1.0000 -0.1206750604
C   C4        1.0  0.20250  0.50400  0.49180  1.0000 -0.1960532549
C   C5        1.0  0.80100  0.41970  0.24040  1.0000 0.6138578099
C   C6        1.0  0.64630  0.23150  0.79270  1.0000 0.6219412131
C   C7        1.0  0.55920  0.08680  0.66050  1.0000 -0.1206750604
C   C8        1.0  0.38840  0.11470  0.55270  1.0000 -0.1892611193
C   C9        1.0  0.29120  0.96870  0.41870  1.0000 -0.1892611193
C   C10       1.0  0.95020  0.64740  0.56690  1.0000 -0.183358829
C   C11       1.0  0.15820  0.62300  0.61760  1.0000 -0.1206750604
C   C12       1.0  0.79750  0.49600  0.50820  1.0000 -0.1960532549
C   C13       1.0  0.19900  0.58030  0.75960  1.0000 0.6138578099
C   C14       1.0  0.35370  0.76850  0.20730  1.0000 0.6219412131
C   C15       1.0  0.44080  0.91320  0.33950  1.0000 -0.1206750604
C   C16       1.0  0.61160  0.88530  0.44730  1.0000 -0.1892611193
O   O1        1.0  0.76640  0.61460  0.98550  1.0000 -0.9005705673
O   O2        1.0  0.53270  0.27620  0.86990  1.0000 -0.6064704614
O   O3        1.0  0.64360  0.46440  0.20360  1.0000 -0.5881423461
O   O4        1.0  0.82130  0.29880  0.81880  1.0000 -0.5638324875
O   O5        1.0  0.92210  0.40410  0.16440  1.0000 -0.5881423461
O   O6        1.0  0.23360  0.38540  0.01450  1.0000 -0.9005705673
O   O7        1.0  0.46730  0.72380  0.13010  1.0000 -0.6064704614
O   O8        1.0  0.35640  0.53560  0.79640  1.0000 -0.5881423461
O   O9        1.0  0.17870  0.70120  0.18120  1.0000 -0.5638324875
O   O10       1.0  0.07790  0.59590  0.83560  1.0000 -0.5881423461
