# DDEC6 charges by PACMAN v1.1 (https://github.com/mtap-research/PACMAN-charge/)
data_2012[SiEu][flu]3[ASR]1
_chemical_formula_sum              "Eu3 Si2 H32 C56 O16"
_cell_length_a       11.919
_cell_length_b       14.01
_cell_length_c       14.792
_cell_angle_alpha    118.055
_cell_angle_beta     105.125
_cell_angle_gamma    96.417

_symmetry_space_group_name_H-M    "P 1"
_symmetry_Int_Tables_number       1

loop_
  _symmetry_equiv_pos_as_xyz
  'x, y, z'

loop_
  _atom_site_type_symbol
  _atom_site_label
  _atom_site_symmetry_multiplicity
  _atom_site_fract_x
  _atom_site_fract_y
  _atom_site_fract_z
  _atom_site_occupancy
  _atom_site_charge
Eu  Eu1       1.0  0.50263  0.22501  0.36365  1.0000 2.0383356772
Eu  Eu2       1.0  0.49758  0.77586  0.63657  1.0000 2.0383356772
Eu  Eu3       1.0  0.49994  0.99992  0.50015  1.0000 2.0088629685
Si  Si1       1.0  0.21272  0.46304  0.91154  1.0000 0.6859737597
Si  Si2       1.0  0.78721  0.53677  0.08837  1.0000 0.6859737597
H   H1        1.0  0.41188  0.57600  0.87117  1.0000 0.0803307131
H   H2        1.0  0.15923  0.47457  0.10130  1.0000 0.0803307131
H   H3        1.0  0.35375  0.29411  0.89320  1.0000 0.0803307131
H   H4        1.0  0.05948  0.50873  0.74964  1.0000 0.091264503
H   H5        1.0  0.23586  0.17780  0.55516  1.0000 0.1007719971
H   H6        1.0  0.99788  0.32577  0.91099  1.0000 0.0803307131
H   H7        1.0  0.15589  0.24652  0.70745  1.0000 0.091264503
H   H8        1.0  0.22942  0.39468  0.21806  1.0000 0.1126595747
H   H9        1.0  0.42364  0.21569  0.01160  1.0000 0.1126595747
H   H10       1.0  0.78553  0.23615  0.77973  1.0000 0.091264503
H   H11       1.0  0.43262  0.59515  0.10877  1.0000 0.091264503
H   H12       1.0  0.84884  0.41212  0.61569  1.0000 0.1126595747
H   H13       1.0  0.48496  0.50804  0.71476  1.0000 0.1007719971
H   H14       1.0  0.13475  0.66994  0.93278  1.0000 0.0803307131
H   H15       1.0  0.52231  0.79971  0.24569  1.0000 0.1007719971
H   H16       1.0  0.23000  0.87473  0.06868  1.0000 0.1167210303
H   H17       1.0  0.58812  0.42400  0.12882  1.0000 0.0803307131
H   H18       1.0  0.84077  0.52543  0.89869  1.0000 0.0803307131
H   H19       1.0  0.64625  0.70589  0.10680  1.0000 0.0803307131
H   H20       1.0  0.94049  0.49126  0.25036  1.0000 0.091264503
H   H21       1.0  0.76413  0.82219  0.44483  1.0000 0.1007719971
H   H22       1.0  0.00210  0.67422  0.08900  1.0000 0.0803307131
H   H23       1.0  0.84411  0.75347  0.29255  1.0000 0.091264503
H   H24       1.0  0.77058  0.60531  0.78194  1.0000 0.1126595747
H   H25       1.0  0.57635  0.78432  0.98840  1.0000 0.1126595747
H   H26       1.0  0.21449  0.76385  0.22027  1.0000 0.091264503
H   H27       1.0  0.56728  0.40483  0.89134  1.0000 0.091264503
H   H28       1.0  0.15117  0.58787  0.38429  1.0000 0.1126595747
H   H29       1.0  0.51504  0.49196  0.28523  1.0000 0.1007719971
H   H30       1.0  0.86450  0.32937  0.06671  1.0000 0.0803307131
H   H31       1.0  0.47726  0.20053  0.75394  1.0000 0.1007719971
H   H32       1.0  0.76954  0.12500  0.93069  1.0000 0.1167210303
C   C1        1.0  0.04556  0.42050  0.83742  1.0000 -0.2201003172
C   C2        1.0  0.37153  0.48879  0.80129  1.0000 -0.0694559267
C   C3        1.0  0.25262  0.39044  0.98944  1.0000 -0.2097533979
C   C4        1.0  0.27833  0.41619  0.80019  1.0000 -0.2280824818
C   C5        1.0  0.21675  0.41711  0.08062  1.0000 -0.0694559267
C   C6        1.0  0.27724  0.61823  0.01139  1.0000 -0.2044014969
C   C7        1.0  0.32576  0.31624  0.96414  1.0000 -0.0694559267
C   C8        1.0  0.00085  0.44790  0.75651  1.0000 -0.0816267829
C   C9        1.0  0.27296  0.26510  0.62398  1.0000 -0.0991288908
C   C10       1.0  0.96604  0.34576  0.84666  1.0000 -0.0694559267
C   C11       1.0  0.36434  0.33901  0.62528  1.0000 -0.0058155275
C   C12       1.0  0.22956  0.30382  0.71020  1.0000 -0.0694559267
C   C13       1.0  0.80812  0.31555  0.68778  1.0000 -0.0533408114
C   C14       1.0  0.25577  0.37292  0.14665  1.0000 -0.0895508551
C   C15       1.0  0.36500  0.27186  0.03001  1.0000 -0.0895508551
C   C16       1.0  0.84716  0.29395  0.77240  1.0000 -0.0816267829
C   C17       1.0  0.38736  0.65604  0.09939  1.0000 -0.0533408114
C   C18       1.0  0.88297  0.39496  0.68134  1.0000 -0.0895508551
C   C19       1.0  0.41359  0.45092  0.71392  1.0000 -0.0895508551
C   C20       1.0  0.40749  0.29885  0.53101  1.0000 0.5855043194
C   C21       1.0  0.22082  0.69769  0.00049  1.0000 -0.0694559267
C   C22       1.0  0.37957  0.84804  0.16599  1.0000 -0.0414329731
C   C23       1.0  0.43838  0.77065  0.17628  1.0000 -0.0895508551
C   C24       1.0  0.27272  0.81246  0.07645  1.0000 -0.0816267829
C   C25       1.0  0.33162  0.30173  0.12200  1.0000 -0.0156003121
C   C26       1.0  0.38435  0.26451  0.19873  1.0000 0.5691789947
C   C27       1.0  0.68853  0.24948  0.59971  1.0000 0.666672226
C   C28       1.0  0.42853  0.96964  0.25123  1.0000 0.6363997719
C   C29       1.0  0.95442  0.57948  0.16255  1.0000 -0.2201003172
C   C30       1.0  0.62847  0.51120  0.19870  1.0000 -0.0694559267
C   C31       1.0  0.74739  0.60954  0.01056  1.0000 -0.2097533979
C   C32       1.0  0.72168  0.58380  0.19980  1.0000 -0.2280824818
C   C33       1.0  0.78324  0.58289  0.91937  1.0000 -0.0694559267
C   C34       1.0  0.72236  0.38150  0.98835  1.0000 -0.2044014969
C   C35       1.0  0.67424  0.68375  0.03585  1.0000 -0.0694559267
C   C36       1.0  0.99914  0.55209  0.24349  1.0000 -0.0816267829
C   C37       1.0  0.72703  0.73489  0.37602  1.0000 -0.0991288908
C   C38       1.0  0.03396  0.65425  0.15335  1.0000 -0.0694559267
C   C39       1.0  0.63567  0.66095  0.37472  1.0000 -0.0058155275
C   C40       1.0  0.77044  0.69617  0.28979  1.0000 -0.0694559267
C   C41       1.0  0.19186  0.68446  0.31224  1.0000 -0.0533408114
C   C42       1.0  0.74423  0.62709  0.85334  1.0000 -0.0895508551
C   C43       1.0  0.63501  0.72815  0.96998  1.0000 -0.0895508551
C   C44       1.0  0.15282  0.70606  0.22760  1.0000 -0.0816267829
C   C45       1.0  0.61244  0.34370  0.90030  1.0000 -0.0533408114
C   C46       1.0  0.11699  0.60502  0.31863  1.0000 -0.0895508551
C   C47       1.0  0.58641  0.54906  0.28607  1.0000 -0.0895508551
C   C48       1.0  0.59252  0.70111  0.46899  1.0000 0.5855043194
C   C49       1.0  0.77865  0.30185  0.99891  1.0000 -0.0694559267
C   C50       1.0  0.62023  0.15151  0.83301  1.0000 -0.0414329731
C   C51       1.0  0.56147  0.22911  0.82294  1.0000 -0.0895508551
C   C52       1.0  0.72695  0.18725  0.92258  1.0000 -0.0816267829
C   C53       1.0  0.66836  0.69827  0.87797  1.0000 -0.0156003121
C   C54       1.0  0.61563  0.73551  0.80123  1.0000 0.5691789947
C   C55       1.0  0.31145  0.75039  0.40025  1.0000 0.666672226
C   C56       1.0  0.57182  0.02973  0.74818  1.0000 0.6363997719
O   O1        1.0  0.61940  0.18143  0.61000  1.0000 -0.7280258872
O   O2        1.0  0.47204  0.21915  0.18803  1.0000 -0.6683298387
O   O3        1.0  0.66242  0.26080  0.51705  1.0000 -0.6971925237
O   O4        1.0  0.38481  0.19282  0.46346  1.0000 -0.7207067945
O   O5        1.0  0.46615  0.37167  0.51935  1.0000 -0.6126301029
O   O6        1.0  0.34613  0.28240  0.27686  1.0000 -0.63012348
O   O7        1.0  0.38797  0.03950  0.22969  1.0000 -0.6363637485
O   O8        1.0  0.50777  0.00111  0.34492  1.0000 -0.7796041109
O   O9        1.0  0.38063  0.81844  0.38997  1.0000 -0.7280258872
O   O10       1.0  0.52799  0.78093  0.81193  1.0000 -0.6683298387
O   O11       1.0  0.33751  0.73886  0.48279  1.0000 -0.6971925237
O   O12       1.0  0.61533  0.80718  0.53651  1.0000 -0.7207067945
O   O13       1.0  0.53382  0.62842  0.48073  1.0000 -0.6126301029
O   O14       1.0  0.65381  0.71762  0.72310  1.0000 -0.63012348
O   O15       1.0  0.49071  0.99663  0.65455  1.0000 -0.7796041109
O   O16       1.0  0.61370  0.96069  0.77010  1.0000 -0.63012348
