# DDEC6 charges by PACMAN v1.1 (https://github.com/mtap-research/PACMAN-charge/)
data_2012[Zn][dmp]3[ASR]3
_chemical_formula_sum              "Zn4 H32 C44 N24 O8"
_cell_length_a       8.9454
_cell_length_b       10.6981
_cell_length_c       18.4474
_cell_angle_alpha    90
_cell_angle_beta     90
_cell_angle_gamma    90

_symmetry_space_group_name_H-M    "P 1"
_symmetry_Int_Tables_number       1

loop_
  _symmetry_equiv_pos_as_xyz
  'x, y, z'

loop_
  _atom_site_type_symbol
  _atom_site_label
  _atom_site_symmetry_multiplicity
  _atom_site_fract_x
  _atom_site_fract_y
  _atom_site_fract_z
  _atom_site_occupancy
  _atom_site_charge
Zn  Zn1       1.0  0.86833  0.98540  0.39753  1.0000 0.6952521001
Zn  Zn2       1.0  0.36833  0.01460  0.60247  1.0000 0.6949443017
Zn  Zn3       1.0  0.86833  0.51460  0.89753  1.0000 0.6952521001
Zn  Zn4       1.0  0.36833  0.48540  0.10247  1.0000 0.6949443017
H   H1        1.0  0.17300  0.04200  0.47200  1.0000 0.1019095575
H   H2        1.0  0.67300  0.95800  0.52800  1.0000 0.1019095575
H   H3        1.0  0.17300  0.45800  0.97200  1.0000 0.1019095575
H   H4        1.0  0.67300  0.54200  0.02800  1.0000 0.1019095575
H   H5        1.0  0.76380  0.64140  0.59690  1.0000 0.0821949747
H   H6        1.0  0.26380  0.35860  0.40310  1.0000 0.0821949747
H   H7        1.0  0.76380  0.85860  0.09690  1.0000 0.0821949747
H   H8        1.0  0.26380  0.14140  0.90310  1.0000 0.0821949747
H   H9        1.0  0.15750  0.69980  0.72830  1.0000 0.3212858235
H   H10       1.0  0.65750  0.30020  0.27170  1.0000 0.3212858235
H   H11       1.0  0.15750  0.80020  0.22830  1.0000 0.3212858235
H   H12       1.0  0.65750  0.19980  0.77170  1.0000 0.3212858235
H   H13       1.0  0.24830  0.79890  0.69260  1.0000 0.3071899508
H   H14       1.0  0.74830  0.20110  0.30740  1.0000 0.3071899508
H   H15       1.0  0.24830  0.70110  0.19260  1.0000 0.3071899508
H   H16       1.0  0.74830  0.29890  0.80740  1.0000 0.3071899508
H   H17       1.0  0.03680  0.32560  0.29380  1.0000 0.1395964568
H   H18       1.0  0.53680  0.67440  0.70620  1.0000 0.1395964568
H   H19       1.0  0.03680  0.17440  0.79380  1.0000 0.1395964568
H   H20       1.0  0.53680  0.82560  0.20620  1.0000 0.1395964568
H   H21       1.0  0.14880  0.46900  0.21980  1.0000 0.1077412237
H   H22       1.0  0.64880  0.53100  0.78020  1.0000 0.1077412237
H   H23       1.0  0.14880  0.03100  0.71980  1.0000 0.1077412237
H   H24       1.0  0.64880  0.96900  0.28020  1.0000 0.1077412237
H   H25       1.0  0.41230  0.21390  0.13970  1.0000 0.1174197217
H   H26       1.0  0.91230  0.78610  0.86030  1.0000 0.1174197217
H   H27       1.0  0.41230  0.28610  0.63970  1.0000 0.1174197217
H   H28       1.0  0.91230  0.71390  0.36030  1.0000 0.1174197217
H   H29       1.0  0.30580  0.06300  0.21110  1.0000 0.1395964568
H   H30       1.0  0.80580  0.93700  0.78890  1.0000 0.1395964568
H   H31       1.0  0.30580  0.43700  0.71110  1.0000 0.1395964568
H   H32       1.0  0.80580  0.56300  0.28890  1.0000 0.1395964568
C   C1        1.0  0.12550  0.98020  0.49900  1.0000 0.1992032249
C   C2        1.0  0.62550  0.01980  0.50100  1.0000 0.1992032249
C   C3        1.0  0.12550  0.51980  0.99900  1.0000 0.1992032249
C   C4        1.0  0.62550  0.48020  0.00100  1.0000 0.1992032249
C   C5        1.0  0.84420  0.69590  0.59210  1.0000 0.1992032249
C   C6        1.0  0.34420  0.30410  0.40790  1.0000 0.1992032249
C   C7        1.0  0.84420  0.80410  0.09210  1.0000 0.1992032249
C   C8        1.0  0.34420  0.19590  0.90790  1.0000 0.1992032249
C   C9        1.0  0.06690  0.76200  0.64100  1.0000 0.3891360108
C   C10       1.0  0.56690  0.23800  0.35900  1.0000 0.3891360108
C   C11       1.0  0.06690  0.73800  0.14100  1.0000 0.3891360108
C   C12       1.0  0.56690  0.26200  0.85900  1.0000 0.3891360108
C   C13       1.0  0.07800  0.84640  0.58160  1.0000 -0.0580598693
C   C14       1.0  0.57800  0.15360  0.41840  1.0000 -0.0580598693
C   C15       1.0  0.07800  0.65360  0.08160  1.0000 -0.0580598693
C   C16       1.0  0.57800  0.34640  0.91840  1.0000 -0.0580598693
C   C17       1.0  0.96430  0.84360  0.53160  1.0000 0.2758805548
C   C18       1.0  0.46430  0.15640  0.46840  1.0000 0.2758805548
C   C19       1.0  0.96430  0.65640  0.03160  1.0000 0.2758805548
C   C20       1.0  0.46430  0.34360  0.96840  1.0000 0.2758805548
C   C21       1.0  0.07930  0.07770  0.30520  1.0000 0.5384980832
C   C22       1.0  0.57930  0.92230  0.69480  1.0000 0.5384980832
C   C23       1.0  0.07930  0.42230  0.80520  1.0000 0.5384980832
C   C24       1.0  0.57930  0.57770  0.19480  1.0000 0.5384980832
C   C25       1.0  0.11140  0.30010  0.26190  1.0000 -0.1496465783
C   C26       1.0  0.61140  0.69990  0.73810  1.0000 -0.1496465783
C   C27       1.0  0.11140  0.19990  0.76190  1.0000 -0.1496465783
C   C28       1.0  0.61140  0.80010  0.23810  1.0000 -0.1496465783
C   C29       1.0  0.15250  0.17780  0.25940  1.0000 0.0394644952
C   C30       1.0  0.65250  0.82220  0.74060  1.0000 0.0394644952
C   C31       1.0  0.15250  0.32220  0.75940  1.0000 0.0394644952
C   C32       1.0  0.65250  0.67780  0.24060  1.0000 0.0394644952
C   C33       1.0  0.17950  0.38610  0.21760  1.0000 0.0594703798
C   C34       1.0  0.67950  0.61390  0.78240  1.0000 0.0594703798
C   C35       1.0  0.17950  0.11390  0.71760  1.0000 0.0594703798
C   C36       1.0  0.67950  0.88610  0.28240  1.0000 0.0594703798
C   C37       1.0  0.33420  0.23590  0.17050  1.0000 0.0821949747
C   C38       1.0  0.83420  0.76410  0.82950  1.0000 0.0821949747
C   C39       1.0  0.33420  0.26410  0.67050  1.0000 0.0821949747
C   C40       1.0  0.83420  0.73590  0.32950  1.0000 0.0821949747
C   C41       1.0  0.27100  0.14490  0.21290  1.0000 -0.1590573768
C   C42       1.0  0.77100  0.85510  0.78710  1.0000 -0.1590573768
C   C43       1.0  0.27100  0.35510  0.71290  1.0000 -0.1590573768
C   C44       1.0  0.77100  0.64490  0.28710  1.0000 -0.1590573768
N   N1        1.0  0.99390  0.92920  0.47840  1.0000 -0.376704147
N   N2        1.0  0.49390  0.07080  0.52160  1.0000 -0.376704147
N   N3        1.0  0.99390  0.57080  0.97840  1.0000 -0.376704147
N   N4        1.0  0.49390  0.42920  0.02160  1.0000 -0.376704147
N   N5        1.0  0.83930  0.76920  0.53430  1.0000 -0.4290592278
N   N6        1.0  0.33930  0.23080  0.46570  1.0000 -0.4290592278
N   N7        1.0  0.83930  0.73080  0.03430  1.0000 -0.4290592278
N   N8        1.0  0.33930  0.26920  0.96570  1.0000 -0.4290592278
N   N9        1.0  0.18240  0.93570  0.56060  1.0000 -0.3357224668
N   N10       1.0  0.68240  0.06430  0.43940  1.0000 -0.3357224668
N   N11       1.0  0.18240  0.56430  0.06060  1.0000 -0.3357224668
N   N12       1.0  0.68240  0.43570  0.93940  1.0000 -0.3357224668
N   N13       1.0  0.94730  0.68790  0.64500  1.0000 -0.4388755168
N   N14       1.0  0.44730  0.31210  0.35500  1.0000 -0.4388755168
N   N15       1.0  0.94730  0.81210  0.14500  1.0000 -0.4388755168
N   N16       1.0  0.44730  0.18790  0.85500  1.0000 -0.4388755168
N   N17       1.0  0.16990  0.75240  0.69360  1.0000 -0.5705539192
N   N18       1.0  0.66990  0.24760  0.30640  1.0000 -0.5705539192
N   N19       1.0  0.16990  0.74760  0.19360  1.0000 -0.5705539192
N   N20       1.0  0.66990  0.25240  0.80640  1.0000 -0.5705539192
N   N21       1.0  0.28850  0.35470  0.17130  1.0000 -0.1976926456
N   N22       1.0  0.78850  0.64530  0.82870  1.0000 -0.1976926456
N   N23       1.0  0.28850  0.14530  0.67130  1.0000 -0.1976926456
N   N24       1.0  0.78850  0.85470  0.32870  1.0000 -0.1976926456
O   O1        1.0  0.96140  0.11640  0.33892  1.0000 -0.5571386124
O   O2        1.0  0.46140  0.88360  0.66108  1.0000 -0.5571386124
O   O3        1.0  0.96140  0.38360  0.83892  1.0000 -0.5571386124
O   O4        1.0  0.46140  0.61640  0.16108  1.0000 -0.5571386124
O   O5        1.0  0.12880  0.97260  0.30810  1.0000 -0.522572955
O   O6        1.0  0.62880  0.02740  0.69190  1.0000 -0.522572955
O   O7        1.0  0.12880  0.52740  0.80810  1.0000 -0.522572955
O   O8        1.0  0.62880  0.47260  0.19190  1.0000 -0.522572955
