# DDEC6 charges by PACMAN v1.1 (https://github.com/mtap-research/PACMAN-charge/)
data_2012[Co][sit]3[ASR]1
_chemical_formula_sum              "Co12 H144 C240 N24 O76"
_cell_length_a       13.8773
_cell_length_b       21.608
_cell_length_c       36.1504
_cell_angle_alpha    90
_cell_angle_beta     106.197
_cell_angle_gamma    90

_symmetry_space_group_name_H-M    "P 1"
_symmetry_Int_Tables_number       1

loop_
  _symmetry_equiv_pos_as_xyz
  'x, y, z'

loop_
  _atom_site_type_symbol
  _atom_site_label
  _atom_site_symmetry_multiplicity
  _atom_site_fract_x
  _atom_site_fract_y
  _atom_site_fract_z
  _atom_site_occupancy
  _atom_site_charge
Co  Co1       1.0  0.37299  0.99346  0.35135  1.0000 0.997567473
Co  Co2       1.0  0.37299  0.50654  0.85135  1.0000 0.997567473
Co  Co3       1.0  0.51241  0.91584  0.31219  1.0000 1.1100445819
Co  Co4       1.0  0.51241  0.58416  0.81219  1.0000 1.1100445819
Co  Co5       1.0  0.56603  0.06851  0.33774  1.0000 1.0643031132
Co  Co6       1.0  0.56603  0.43149  0.83774  1.0000 1.0643031132
Co  Co7       1.0  0.62701  0.49346  0.14865  1.0000 0.997567473
Co  Co8       1.0  0.62701  0.00654  0.64865  1.0000 0.997567473
Co  Co9       1.0  0.48759  0.41584  0.18781  1.0000 1.1100445819
Co  Co10      1.0  0.48759  0.08416  0.68781  1.0000 1.1100445819
Co  Co11      1.0  0.43397  0.56851  0.16226  1.0000 1.0643031132
Co  Co12      1.0  0.43397  0.93149  0.66226  1.0000 1.0643031132
H   H1        1.0  0.34670  0.46610  0.58930  1.0000 0.286501367
H   H2        1.0  0.34670  0.03390  0.08930  1.0000 0.286501367
H   H3        1.0  0.40900  0.37490  0.43180  1.0000 0.286501367
H   H4        1.0  0.40900  0.12510  0.93180  1.0000 0.286501367
H   H5        1.0  0.40400  0.59450  0.51240  1.0000 0.1210909305
H   H6        1.0  0.40400  0.90550  0.01240  1.0000 0.1210909305
H   H7        1.0  0.33530  0.46470  0.42830  1.0000 0.1300006794
H   H8        1.0  0.33530  0.03530  0.92830  1.0000 0.1300006794
H   H9        1.0  0.38190  0.41570  0.53990  1.0000 0.1300006794
H   H10       1.0  0.38190  0.08430  0.03990  1.0000 0.1300006794
H   H11       1.0  0.31150  0.64470  0.45890  1.0000 0.286501367
H   H12       1.0  0.31150  0.85530  0.95890  1.0000 0.286501367
H   H13       1.0  0.84230  0.39340  0.44730  1.0000 0.2756049465
H   H14       1.0  0.84230  0.10660  0.94730  1.0000 0.2756049465
H   H15       1.0  0.89560  0.67270  0.48930  1.0000 0.286501367
H   H16       1.0  0.89560  0.82730  0.98930  1.0000 0.286501367
H   H17       1.0  0.97060  0.48320  0.62060  1.0000 0.286501367
H   H18       1.0  0.97060  0.01680  0.12060  1.0000 0.286501367
H   H19       1.0  0.95120  0.61310  0.53320  1.0000 0.1210909305
H   H20       1.0  0.95120  0.88690  0.03320  1.0000 0.1210909305
H   H21       1.0  0.46560  0.31360  0.39100  1.0000 0.1300006794
H   H22       1.0  0.46560  0.18640  0.89100  1.0000 0.1300006794
H   H23       1.0  0.80570  0.48770  0.45460  1.0000 0.1210909305
H   H24       1.0  0.80570  0.01230  0.95460  1.0000 0.1210909305
H   H25       1.0  0.46500  0.22090  0.36020  1.0000 0.1210909305
H   H26       1.0  0.46500  0.27910  0.86020  1.0000 0.1210909305
H   H27       1.0  0.48800  0.58100  0.64800  1.0000 0.1396026858
H   H28       1.0  0.48800  0.91900  0.14800  1.0000 0.1396026858
H   H29       1.0  0.55010  0.57450  0.71330  1.0000 0.1300006794
H   H30       1.0  0.55010  0.92550  0.21330  1.0000 0.1300006794
H   H31       1.0  0.93440  0.43390  0.56480  1.0000 0.1210909305
H   H32       1.0  0.93440  0.06610  0.06480  1.0000 0.1210909305
H   H33       1.0  0.28360  0.14870  0.41870  1.0000 0.1210909305
H   H34       1.0  0.28360  0.35130  0.91870  1.0000 0.1210909305
H   H35       1.0  0.38820  0.40480  0.64460  1.0000 0.1396026858
H   H36       1.0  0.38820  0.09520  0.14460  1.0000 0.1396026858
H   H37       1.0  0.10690  0.49010  0.74980  1.0000 0.1300006794
H   H38       1.0  0.10690  0.00990  0.24980  1.0000 0.1300006794
H   H39       1.0  0.44530  0.39990  0.71170  1.0000 0.1300006794
H   H40       1.0  0.44530  0.10010  0.21170  1.0000 0.1300006794
H   H41       1.0  0.26630  0.83560  0.40680  1.0000 0.1210909305
H   H42       1.0  0.26630  0.66440  0.90680  1.0000 0.1300006794
H   H43       1.0  0.82550  0.77240  0.49080  1.0000 0.1300006794
H   H44       1.0  0.82550  0.72760  0.99080  1.0000 0.1300006794
H   H45       1.0  0.76500  0.67850  0.39120  1.0000 0.1300006794
H   H46       1.0  0.76500  0.82150  0.89120  1.0000 0.1300006794
H   H47       1.0  0.24440  0.74280  0.43660  1.0000 0.1396026858
H   H48       1.0  0.24440  0.75720  0.93660  1.0000 0.1396026858
H   H49       1.0  0.69520  0.76670  0.35830  1.0000 0.1300006794
H   H50       1.0  0.69520  0.73330  0.85830  1.0000 0.1300006794
H   H51       1.0  0.69760  0.26150  0.35800  1.0000 0.1396026858
H   H52       1.0  0.69760  0.23850  0.85800  1.0000 0.1396026858
H   H53       1.0  0.46140  0.66450  0.39670  1.0000 0.1396026858
H   H54       1.0  0.46140  0.83550  0.89670  1.0000 0.1396026858
H   H55       1.0  0.47500  0.75690  0.36610  1.0000 0.1300006794
H   H56       1.0  0.47500  0.74310  0.86610  1.0000 0.1300006794
H   H57       1.0  0.28700  0.24120  0.45090  1.0000 0.1396026858
H   H58       1.0  0.28700  0.25880  0.95090  1.0000 0.1396026858
H   H59       1.0  0.76870  0.34600  0.39210  1.0000 0.1463987213
H   H60       1.0  0.76870  0.15400  0.89210  1.0000 0.1463987213
H   H61       1.0  0.77400  0.26280  0.48940  1.0000 0.1396026858
H   H62       1.0  0.77400  0.23720  0.98940  1.0000 0.1396026858
H   H63       1.0  0.74910  0.85890  0.45710  1.0000 0.1300006794
H   H64       1.0  0.74910  0.64110  0.95710  1.0000 0.1300006794
H   H65       1.0  0.99410  0.48610  0.68900  1.0000 0.1210909305
H   H66       1.0  0.99410  0.01390  0.18900  1.0000 0.1210909305
H   H67       1.0  0.20860  0.54380  0.64230  1.0000 0.1300006794
H   H68       1.0  0.20860  0.95620  0.14230  1.0000 0.1300006794
H   H69       1.0  0.70910  0.17370  0.45540  1.0000 0.1396026858
H   H70       1.0  0.70910  0.32630  0.95540  1.0000 0.1396026858
H   H71       1.0  0.32020  0.55110  0.70430  1.0000 0.1210909305
H   H72       1.0  0.32020  0.94890  0.20430  1.0000 0.1210909305
H   H73       1.0  0.65330  0.96610  0.91070  1.0000 0.286501367
H   H74       1.0  0.65330  0.53390  0.41070  1.0000 0.286501367
H   H75       1.0  0.59100  0.87490  0.06820  1.0000 0.286501367
H   H76       1.0  0.59100  0.62510  0.56820  1.0000 0.286501367
H   H77       1.0  0.59600  0.09450  0.98760  1.0000 0.1210909305
H   H78       1.0  0.59600  0.40550  0.48760  1.0000 0.1210909305
H   H79       1.0  0.66470  0.96470  0.07170  1.0000 0.1300006794
H   H80       1.0  0.66470  0.53530  0.57170  1.0000 0.1300006794
H   H81       1.0  0.61810  0.91570  0.96010  1.0000 0.1300006794
H   H82       1.0  0.61810  0.58430  0.46010  1.0000 0.1300006794
H   H83       1.0  0.68850  0.14470  0.04110  1.0000 0.286501367
H   H84       1.0  0.68850  0.35530  0.54110  1.0000 0.286501367
H   H85       1.0  0.15770  0.89340  0.05270  1.0000 0.2756049465
H   H86       1.0  0.15770  0.60660  0.55270  1.0000 0.2756049465
H   H87       1.0  0.10440  0.17270  0.01070  1.0000 0.286501367
H   H88       1.0  0.10440  0.32730  0.51070  1.0000 0.286501367
H   H89       1.0  0.02940  0.98320  0.87940  1.0000 0.286501367
H   H90       1.0  0.02940  0.51680  0.37940  1.0000 0.286501367
H   H91       1.0  0.04880  0.11310  0.96680  1.0000 0.1210909305
H   H92       1.0  0.04880  0.38690  0.46680  1.0000 0.1210909305
H   H93       1.0  0.53440  0.81360  0.10900  1.0000 0.1300006794
H   H94       1.0  0.53440  0.68640  0.60900  1.0000 0.1300006794
H   H95       1.0  0.19430  0.98770  0.04540  1.0000 0.1210909305
H   H96       1.0  0.19430  0.51230  0.54540  1.0000 0.1210909305
H   H97       1.0  0.53500  0.72090  0.13980  1.0000 0.1210909305
H   H98       1.0  0.53500  0.77910  0.63980  1.0000 0.1210909305
H   H99       1.0  0.51200  0.08100  0.85200  1.0000 0.1396026858
H   H100      1.0  0.51200  0.41900  0.35200  1.0000 0.1396026858
H   H101      1.0  0.44990  0.07450  0.78670  1.0000 0.1300006794
H   H102      1.0  0.44990  0.42550  0.28670  1.0000 0.1300006794
H   H103      1.0  0.06560  0.93390  0.93520  1.0000 0.1210909305
H   H104      1.0  0.06560  0.56610  0.43520  1.0000 0.1210909305
H   H105      1.0  0.71640  0.64870  0.08130  1.0000 0.1210909305
H   H106      1.0  0.71640  0.85130  0.58130  1.0000 0.1210909305
H   H107      1.0  0.61180  0.90480  0.85540  1.0000 0.1396026858
H   H108      1.0  0.61180  0.59520  0.35540  1.0000 0.1396026858
H   H109      1.0  0.89310  0.99010  0.75020  1.0000 0.1300006794
H   H110      1.0  0.89310  0.50990  0.25020  1.0000 0.1300006794
H   H111      1.0  0.55470  0.89990  0.78830  1.0000 0.1300006794
H   H112      1.0  0.55470  0.60010  0.28830  1.0000 0.1300006794
H   H113      1.0  0.73370  0.33560  0.09320  1.0000 0.1300006794
H   H114      1.0  0.73370  0.16440  0.59320  1.0000 0.1300006794
H   H115      1.0  0.17450  0.27240  0.00920  1.0000 0.1300006794
H   H116      1.0  0.17450  0.22760  0.50920  1.0000 0.1300006794
H   H117      1.0  0.23500  0.17850  0.10880  1.0000 0.1300006794
H   H118      1.0  0.23500  0.32150  0.60880  1.0000 0.1300006794
H   H119      1.0  0.75560  0.24280  0.06340  1.0000 0.1396026858
H   H120      1.0  0.75560  0.25720  0.56340  1.0000 0.1396026858
H   H121      1.0  0.30480  0.26670  0.14170  1.0000 0.1300006794
H   H122      1.0  0.30480  0.23330  0.64170  1.0000 0.1300006794
H   H123      1.0  0.30240  0.76150  0.14200  1.0000 0.1396026858
H   H124      1.0  0.30240  0.73850  0.64200  1.0000 0.1396026858
H   H125      1.0  0.53860  0.16450  0.10330  1.0000 0.1396026858
H   H126      1.0  0.53860  0.33550  0.60330  1.0000 0.1396026858
H   H127      1.0  0.52500  0.25690  0.13390  1.0000 0.1300006794
H   H128      1.0  0.52500  0.24310  0.63390  1.0000 0.1300006794
H   H129      1.0  0.71300  0.74120  0.04910  1.0000 0.1396026858
H   H130      1.0  0.71300  0.75880  0.54910  1.0000 0.1396026858
H   H131      1.0  0.23130  0.84600  0.10790  1.0000 0.1463987213
H   H132      1.0  0.23130  0.65400  0.60790  1.0000 0.1463987213
H   H133      1.0  0.22600  0.76280  0.01060  1.0000 0.1396026858
H   H134      1.0  0.22600  0.73720  0.51060  1.0000 0.1396026858
H   H135      1.0  0.25090  0.35890  0.04290  1.0000 0.1300006794
H   H136      1.0  0.25090  0.14110  0.54290  1.0000 0.1300006794
H   H137      1.0  0.00590  0.98610  0.81100  1.0000 0.1210909305
H   H138      1.0  0.00590  0.51390  0.31100  1.0000 0.1210909305
H   H139      1.0  0.79140  0.04380  0.85770  1.0000 0.1300006794
H   H140      1.0  0.79140  0.45620  0.35770  1.0000 0.1300006794
H   H141      1.0  0.29090  0.67370  0.04460  1.0000 0.1396026858
H   H142      1.0  0.29090  0.82630  0.54460  1.0000 0.1396026858
H   H143      1.0  0.67980  0.05110  0.79570  1.0000 0.1210909305
H   H144      1.0  0.67980  0.44890  0.29570  1.0000 0.1210909305
C   C1        1.0  0.35612  0.42969  0.48172  1.0000 -0.02844082
C   C2        1.0  0.35612  0.07031  0.98172  1.0000 -0.02844082
C   C3        1.0  0.39106  0.55263  0.50456  1.0000 -0.1586865044
C   C4        1.0  0.39106  0.94737  0.00456  1.0000 -0.1586865044
C   C5        1.0  0.42860  0.52774  0.57350  1.0000 0.4833385926
C   C6        1.0  0.42860  0.97226  0.07350  1.0000 0.4833385926
C   C7        1.0  0.35081  0.47555  0.45481  1.0000 -0.1371292565
C   C8        1.0  0.35081  0.02445  0.95481  1.0000 -0.1371292565
C   C9        1.0  0.39574  0.50710  0.53204  1.0000 -0.0018738415
C   C10       1.0  0.39574  0.99290  0.03204  1.0000 -0.0018738415
C   C11       1.0  0.37869  0.44668  0.52099  1.0000 -0.1302512102
C   C12       1.0  0.37869  0.05332  0.02099  1.0000 -0.1302512102
C   C13       1.0  0.36734  0.53746  0.46544  1.0000 -0.0112929275
C   C14       1.0  0.36734  0.96254  0.96544  1.0000 -0.0112929275
C   C15       1.0  0.92891  0.57184  0.52681  1.0000 -0.1586865044
C   C16       1.0  0.92891  0.92816  0.02681  1.0000 -0.1586865044
C   C17       1.0  0.37319  0.58354  0.43559  1.0000 0.4561489355
C   C18       1.0  0.37319  0.91646  0.93559  1.0000 0.4561489355
C   C19       1.0  0.83041  0.60510  0.45831  1.0000 0.4659150969
C   C20       1.0  0.83041  0.89490  0.95831  1.0000 0.4659150969
C   C21       1.0  0.42920  0.27970  0.39710  1.0000 -0.1878633555
C   C22       1.0  0.42920  0.22030  0.89710  1.0000 -0.1878633555
C   C23       1.0  0.84204  0.49720  0.48034  1.0000 -0.1302512102
C   C24       1.0  0.84204  0.00280  0.98034  1.0000 -0.1302512102
C   C25       1.0  0.87023  0.55720  0.48963  1.0000 0.0031320164
C   C26       1.0  0.87023  0.94280  0.98963  1.0000 0.0031320164
C   C27       1.0  0.83175  0.38590  0.49865  1.0000 0.4498540294
C   C28       1.0  0.83175  0.11410  0.99865  1.0000 0.4498540294
C   C29       1.0  0.43386  0.49327  0.63916  1.0000 0.2497485653
C   C30       1.0  0.43386  0.00673  0.13916  1.0000 0.2497485653
C   C31       1.0  0.86486  0.44960  0.50736  1.0000 -0.02844082
C   C32       1.0  0.86486  0.05040  0.00736  1.0000 -0.02844082
C   C33       1.0  0.29749  0.52750  0.77219  1.0000 0.5985066127
C   C34       1.0  0.29749  0.97250  0.27219  1.0000 0.5985066127
C   C35       1.0  0.35179  0.69506  0.41989  1.0000 0.2316105546
C   C36       1.0  0.35179  0.80494  0.91989  1.0000 0.2316105546
C   C37       1.0  0.37645  0.28717  0.42455  1.0000 0.2497485653
C   C38       1.0  0.37645  0.21283  0.92455  1.0000 0.2497485653
C   C39       1.0  0.50481  0.48610  0.71951  1.0000 -0.0186438197
C   C40       1.0  0.50481  0.01390  0.21951  1.0000 -0.0186438197
C   C41       1.0  0.95418  0.52490  0.55438  1.0000 -0.0112929275
C   C42       1.0  0.95418  0.97510  0.05438  1.0000 -0.0112929275
C   C43       1.0  0.34248  0.36351  0.47158  1.0000 0.4561489355
C   C44       1.0  0.34248  0.13649  0.97158  1.0000 0.4561489355
C   C45       1.0  0.80767  0.71730  0.44417  1.0000 0.2316105546
C   C46       1.0  0.80767  0.78270  0.94417  1.0000 0.2316105546
C   C47       1.0  0.38258  0.11260  0.36798  1.0000 0.5766569507
C   C48       1.0  0.38258  0.38740  0.86798  1.0000 0.5766569507
C   C49       1.0  0.54115  0.48390  0.76275  1.0000 0.5918363463
C   C50       1.0  0.54115  0.01610  0.26275  1.0000 0.5918363463
C   C51       1.0  0.42914  0.22440  0.37894  1.0000 -0.0786705451
C   C52       1.0  0.42914  0.27560  0.87894  1.0000 -0.0786705451
C   C53       1.0  0.22414  0.52230  0.73294  1.0000 -0.0186438197
C   C54       1.0  0.22414  0.97770  0.23294  1.0000 -0.0186438197
C   C55       1.0  0.48079  0.54350  0.66069  1.0000 -0.1810902942
C   C56       1.0  0.48079  0.95650  0.16069  1.0000 -0.1810902942
C   C57       1.0  0.51637  0.53980  0.69937  1.0000 -0.0786705451
C   C58       1.0  0.51637  0.96020  0.19937  1.0000 -0.0786705451
C   C59       1.0  0.92028  0.46480  0.54538  1.0000 -0.1586865044
C   C60       1.0  0.92028  0.03520  0.04538  1.0000 -0.1586865044
C   C61       1.0  0.32273  0.18200  0.41363  1.0000 -0.0786705451
C   C62       1.0  0.32273  0.31800  0.91363  1.0000 -0.0786705451
C   C63       1.0  0.37142  0.80450  0.38302  1.0000 -0.0112929275
C   C64       1.0  0.37142  0.69550  0.88302  1.0000 -0.0112929275
C   C65       1.0  0.38332  0.86550  0.36352  1.0000 0.5985066127
C   C66       1.0  0.38332  0.63450  0.86352  1.0000 0.5985066127
C   C67       1.0  0.02818  0.54070  0.59188  1.0000 0.4561489355
C   C68       1.0  0.02818  0.95930  0.09188  1.0000 0.4561489355
C   C69       1.0  0.77547  0.31310  0.44357  1.0000 0.2220207732
C   C70       1.0  0.77547  0.18690  0.94357  1.0000 0.2220207732
C   C71       1.0  0.09073  0.51510  0.66013  1.0000 0.2316105546
C   C72       1.0  0.09073  0.98490  0.16013  1.0000 0.2316105546
C   C73       1.0  0.42094  0.43950  0.65874  1.0000 -0.1878633555
C   C74       1.0  0.42094  0.06050  0.15874  1.0000 -0.1878633555
C   C75       1.0  0.12800  0.50220  0.72800  1.0000 -0.0786705451
C   C76       1.0  0.12800  0.99780  0.22800  1.0000 -0.0786705451
C   C77       1.0  0.37877  0.17350  0.38697  1.0000 -0.0186438197
C   C78       1.0  0.37877  0.32650  0.88697  1.0000 -0.0186438197
C   C79       1.0  0.45562  0.43650  0.69872  1.0000 -0.0786705451
C   C80       1.0  0.45562  0.06350  0.19872  1.0000 -0.0786705451
C   C81       1.0  0.71941  0.82200  0.40431  1.0000 -0.0112929275
C   C82       1.0  0.71941  0.67800  0.90431  1.0000 -0.0112929275
C   C83       1.0  0.69413  0.20860  0.40313  1.0000 -0.0186438197
C   C84       1.0  0.69413  0.29140  0.90313  1.0000 -0.0186438197
C   C85       1.0  0.30504  0.80040  0.40434  1.0000 -0.0786705451
C   C86       1.0  0.30504  0.69960  0.90434  1.0000 -0.0786705451
C   C87       1.0  0.79993  0.77080  0.46353  1.0000 -0.1810902942
C   C88       1.0  0.79993  0.72920  0.96353  1.0000 -0.1810902942
C   C89       1.0  0.76500  0.71600  0.40490  1.0000 -0.1878633555
C   C90       1.0  0.76500  0.78400  0.90490  1.0000 -0.1878633555
C   C91       1.0  0.29272  0.74560  0.42252  1.0000 -0.1878633555
C   C92       1.0  0.29272  0.75440  0.92252  1.0000 -0.1878633555
C   C93       1.0  0.72262  0.76820  0.38542  1.0000 -0.0866932217
C   C94       1.0  0.72262  0.73180  0.88542  1.0000 -0.0866932217
C   C95       1.0  0.71343  0.26070  0.38533  1.0000 -0.0866932217
C   C96       1.0  0.71343  0.23930  0.88533  1.0000 -0.0866932217
C   C97       1.0  0.42056  0.69890  0.39876  1.0000 -0.1810902942
C   C98       1.0  0.42056  0.80110  0.89876  1.0000 -0.1810902942
C   C99       1.0  0.42800  0.75400  0.38080  1.0000 -0.0786705451
C   C100      1.0  0.42800  0.74600  0.88080  1.0000 -0.0786705451
C   C101      1.0  0.32345  0.23720  0.43235  1.0000 -0.1878633555
C   C102      1.0  0.32345  0.26280  0.93235  1.0000 -0.1878633555
C   C103      1.0  0.64936  0.15330  0.38066  1.0000 0.5358010065
C   C104      1.0  0.64936  0.34670  0.88066  1.0000 0.5358010065
C   C105      1.0  0.75440  0.31090  0.40550  1.0000 -0.1810902942
C   C106      1.0  0.75440  0.18910  0.90550  1.0000 -0.1810902942
C   C107      1.0  0.75863  0.26260  0.46213  1.0000 -0.1878633555
C   C108      1.0  0.75863  0.23740  0.96213  1.0000 -0.1878633555
C   C109      1.0  0.75519  0.82230  0.44339  1.0000 -0.0786705451
C   C110      1.0  0.75519  0.67770  0.94339  1.0000 -0.0786705451
C   C111      1.0  0.06120  0.49930  0.69190  1.0000 -0.1878633555
C   C112      1.0  0.06120  0.00070  0.19190  1.0000 -0.1878633555
C   C113      1.0  0.18689  0.53360  0.66429  1.0000 -0.1810902942
C   C114      1.0  0.18689  0.96640  0.16429  1.0000 -0.1810902942
C   C115      1.0  0.66413  0.87700  0.38233  1.0000 0.5721004438
C   C116      1.0  0.66413  0.62300  0.88233  1.0000 0.5721004438
C   C117      1.0  0.71887  0.20970  0.44177  1.0000 -0.0786705451
C   C118      1.0  0.71887  0.29030  0.94177  1.0000 -0.0786705451
C   C119      1.0  0.25338  0.53750  0.70128  1.0000 -0.0786705451
C   C120      1.0  0.25338  0.96250  0.20128  1.0000 -0.0786705451
C   C121      1.0  0.64388  0.92969  0.01828  1.0000 -0.02844082
C   C122      1.0  0.64388  0.57031  0.51828  1.0000 -0.02844082
C   C123      1.0  0.60894  0.05263  0.99544  1.0000 -0.1586865044
C   C124      1.0  0.60894  0.44737  0.49544  1.0000 -0.1586865044
C   C125      1.0  0.57140  0.02774  0.92650  1.0000 0.4833385926
C   C126      1.0  0.57140  0.47226  0.42650  1.0000 0.4833385926
C   C127      1.0  0.64919  0.97555  0.04519  1.0000 -0.1371292565
C   C128      1.0  0.64919  0.52445  0.54519  1.0000 -0.1371292565
C   C129      1.0  0.60426  0.00710  0.96796  1.0000 -0.0018738415
C   C130      1.0  0.60426  0.49290  0.46796  1.0000 -0.0018738415
C   C131      1.0  0.62131  0.94668  0.97901  1.0000 -0.1302512102
C   C132      1.0  0.62131  0.55332  0.47901  1.0000 -0.1302512102
C   C133      1.0  0.63266  0.03746  0.03456  1.0000 -0.0112929275
C   C134      1.0  0.63266  0.46254  0.53456  1.0000 -0.0112929275
C   C135      1.0  0.07109  0.07184  0.97319  1.0000 -0.1586865044
C   C136      1.0  0.07109  0.42816  0.47319  1.0000 -0.1586865044
C   C137      1.0  0.62681  0.08354  0.06441  1.0000 0.4561489355
C   C138      1.0  0.62681  0.41646  0.56441  1.0000 0.4561489355
C   C139      1.0  0.16959  0.10510  0.04169  1.0000 0.4659150969
C   C140      1.0  0.16959  0.39490  0.54169  1.0000 0.4659150969
C   C141      1.0  0.57080  0.77970  0.10290  1.0000 -0.1878633555
C   C142      1.0  0.57080  0.72030  0.60290  1.0000 -0.1878633555
C   C143      1.0  0.15796  0.99720  0.01966  1.0000 -0.1302512102
C   C144      1.0  0.15796  0.50280  0.51966  1.0000 -0.1302512102
C   C145      1.0  0.12977  0.05720  0.01037  1.0000 0.0031320164
C   C146      1.0  0.12977  0.44280  0.51037  1.0000 0.0031320164
C   C147      1.0  0.16825  0.88590  0.00135  1.0000 0.4498540294
C   C148      1.0  0.16825  0.61410  0.50135  1.0000 0.4498540294
C   C149      1.0  0.56614  0.99327  0.86084  1.0000 0.2497485653
C   C150      1.0  0.56614  0.50673  0.36084  1.0000 0.2497485653
C   C151      1.0  0.13514  0.94960  0.99264  1.0000 -0.02844082
C   C152      1.0  0.13514  0.55040  0.49264  1.0000 -0.02844082
C   C153      1.0  0.70251  0.02750  0.72781  1.0000 0.5985066127
C   C154      1.0  0.70251  0.47250  0.22781  1.0000 0.5985066127
C   C155      1.0  0.64821  0.19506  0.08011  1.0000 0.2316105546
C   C156      1.0  0.64821  0.30494  0.58011  1.0000 0.2316105546
C   C157      1.0  0.62355  0.78717  0.07545  1.0000 0.2497485653
C   C158      1.0  0.62355  0.71283  0.57545  1.0000 0.2497485653
C   C159      1.0  0.49519  0.98610  0.78049  1.0000 -0.0186438197
C   C160      1.0  0.49519  0.51390  0.28049  1.0000 -0.0186438197
C   C161      1.0  0.04582  0.02490  0.94562  1.0000 -0.0112929275
C   C162      1.0  0.04582  0.47510  0.44562  1.0000 -0.0112929275
C   C163      1.0  0.65752  0.86351  0.02842  1.0000 0.4561489355
C   C164      1.0  0.65752  0.63649  0.52842  1.0000 0.4561489355
C   C165      1.0  0.19233  0.21730  0.05583  1.0000 0.2316105546
C   C166      1.0  0.19233  0.28270  0.55583  1.0000 0.2316105546
C   C167      1.0  0.61742  0.61260  0.13202  1.0000 0.5766569507
C   C168      1.0  0.61742  0.88740  0.63202  1.0000 0.5766569507
C   C169      1.0  0.45885  0.98390  0.73725  1.0000 0.5918363463
C   C170      1.0  0.45885  0.51610  0.23725  1.0000 0.5918363463
C   C171      1.0  0.57086  0.72440  0.12106  1.0000 -0.0786705451
C   C172      1.0  0.57086  0.77560  0.62106  1.0000 -0.0786705451
C   C173      1.0  0.77586  0.02230  0.76706  1.0000 -0.0186438197
C   C174      1.0  0.77586  0.47770  0.26706  1.0000 -0.0186438197
C   C175      1.0  0.51921  0.04350  0.83931  1.0000 -0.1810902942
C   C176      1.0  0.51921  0.45650  0.33931  1.0000 -0.1810902942
C   C177      1.0  0.48363  0.03980  0.80063  1.0000 -0.0786705451
C   C178      1.0  0.48363  0.46020  0.30063  1.0000 -0.0786705451
C   C179      1.0  0.07972  0.96480  0.95462  1.0000 -0.1586865044
C   C180      1.0  0.07972  0.53520  0.45462  1.0000 -0.1586865044
C   C181      1.0  0.67727  0.68200  0.08637  1.0000 -0.0786705451
C   C182      1.0  0.67727  0.81800  0.58637  1.0000 -0.0786705451
C   C183      1.0  0.62858  0.30450  0.11698  1.0000 -0.0112929275
C   C184      1.0  0.62858  0.19550  0.61698  1.0000 -0.0112929275
C   C185      1.0  0.61668  0.36550  0.13648  1.0000 0.5985066127
C   C186      1.0  0.61668  0.13450  0.63648  1.0000 0.5985066127
C   C187      1.0  0.97182  0.04070  0.90812  1.0000 0.4561489355
C   C188      1.0  0.97182  0.45930  0.40812  1.0000 0.4561489355
C   C189      1.0  0.22453  0.81310  0.05643  1.0000 0.2220207732
C   C190      1.0  0.22453  0.68690  0.55643  1.0000 0.2220207732
C   C191      1.0  0.90927  0.01510  0.83987  1.0000 0.2316105546
C   C192      1.0  0.90927  0.48490  0.33987  1.0000 0.2316105546
C   C193      1.0  0.57906  0.93950  0.84126  1.0000 -0.1878633555
C   C194      1.0  0.57906  0.56050  0.34126  1.0000 -0.1878633555
C   C195      1.0  0.87200  0.00220  0.77200  1.0000 -0.0786705451
C   C196      1.0  0.87200  0.49780  0.27200  1.0000 -0.0786705451
C   C197      1.0  0.62123  0.67350  0.11303  1.0000 -0.0186438197
C   C198      1.0  0.62123  0.82650  0.61303  1.0000 -0.0186438197
C   C199      1.0  0.54438  0.93650  0.80128  1.0000 -0.0786705451
C   C200      1.0  0.54438  0.56350  0.30128  1.0000 -0.0786705451
C   C201      1.0  0.28059  0.32200  0.09569  1.0000 -0.0112929275
C   C202      1.0  0.28059  0.17800  0.59569  1.0000 -0.0112929275
C   C203      1.0  0.30587  0.70860  0.09687  1.0000 -0.0186438197
C   C204      1.0  0.30587  0.79140  0.59687  1.0000 -0.0186438197
C   C205      1.0  0.69496  0.30040  0.09566  1.0000 -0.0786705451
C   C206      1.0  0.69496  0.19960  0.59566  1.0000 -0.0786705451
C   C207      1.0  0.20007  0.27080  0.03647  1.0000 -0.1810902942
C   C208      1.0  0.20007  0.22920  0.53647  1.0000 -0.1810902942
C   C209      1.0  0.23500  0.21600  0.09510  1.0000 -0.1878633555
C   C210      1.0  0.23500  0.28400  0.59510  1.0000 -0.1878633555
C   C211      1.0  0.70728  0.24560  0.07748  1.0000 -0.1878633555
C   C212      1.0  0.70728  0.25440  0.57748  1.0000 -0.1878633555
C   C213      1.0  0.27738  0.26820  0.11458  1.0000 -0.0866932217
C   C214      1.0  0.27738  0.23180  0.61458  1.0000 -0.0866932217
C   C215      1.0  0.28657  0.76070  0.11467  1.0000 -0.0866932217
C   C216      1.0  0.28657  0.73930  0.61467  1.0000 -0.0866932217
C   C217      1.0  0.57944  0.19890  0.10124  1.0000 -0.1810902942
C   C218      1.0  0.57944  0.30110  0.60124  1.0000 -0.1810902942
C   C219      1.0  0.57200  0.25400  0.11920  1.0000 -0.0786705451
C   C220      1.0  0.57200  0.24600  0.61920  1.0000 -0.0786705451
C   C221      1.0  0.67655  0.73720  0.06765  1.0000 -0.1878633555
C   C222      1.0  0.67655  0.76280  0.56765  1.0000 -0.1878633555
C   C223      1.0  0.35064  0.65330  0.11934  1.0000 0.5358010065
C   C224      1.0  0.35064  0.84670  0.61934  1.0000 0.5358010065
C   C225      1.0  0.24560  0.81090  0.09450  1.0000 -0.1810902942
C   C226      1.0  0.24560  0.68910  0.59450  1.0000 -0.1810902942
C   C227      1.0  0.24137  0.76260  0.03787  1.0000 -0.1878633555
C   C228      1.0  0.24137  0.73740  0.53787  1.0000 -0.1878633555
C   C229      1.0  0.24481  0.32230  0.05661  1.0000 -0.0786705451
C   C230      1.0  0.24481  0.17770  0.55661  1.0000 -0.0786705451
C   C231      1.0  0.93880  0.99930  0.80810  1.0000 -0.1878633555
C   C232      1.0  0.93880  0.50070  0.30810  1.0000 -0.1878633555
C   C233      1.0  0.81311  0.03360  0.83571  1.0000 -0.1810902942
C   C234      1.0  0.81311  0.46640  0.33571  1.0000 -0.1810902942
C   C235      1.0  0.33587  0.37700  0.11767  1.0000 0.5721004438
C   C236      1.0  0.33587  0.12300  0.61767  1.0000 0.5721004438
C   C237      1.0  0.28113  0.70970  0.05823  1.0000 -0.0786705451
C   C238      1.0  0.28113  0.79030  0.55823  1.0000 -0.0786705451
C   C239      1.0  0.74662  0.03750  0.79872  1.0000 -0.0786705451
C   C240      1.0  0.74662  0.46250  0.29872  1.0000 -0.0786705451
N   N1        1.0  0.39610  0.49213  0.59910  1.0000 -0.3776418287
N   N2        1.0  0.39610  0.00787  0.09910  1.0000 -0.3776418287
N   N3        1.0  0.37950  0.34564  0.44160  1.0000 -0.3683680031
N   N4        1.0  0.37950  0.15436  0.94160  1.0000 -0.3683680031
N   N5        1.0  0.34184  0.64043  0.44064  1.0000 -0.3683680031
N   N6        1.0  0.34184  0.85957  0.94064  1.0000 -0.3683680031
N   N7        1.0  0.81956  0.36769  0.46176  1.0000 -0.3683680031
N   N8        1.0  0.81956  0.13231  0.96176  1.0000 -0.3683680031
N   N9        1.0  0.85107  0.66485  0.46717  1.0000 -0.3683680031
N   N10       1.0  0.85107  0.83515  0.96717  1.0000 -0.3683680031
N   N11       1.0  0.02116  0.50898  0.62326  1.0000 -0.3683680031
N   N12       1.0  0.02116  0.99102  0.12326  1.0000 -0.3683680031
N   N13       1.0  0.60390  0.99213  0.90090  1.0000 -0.3776418287
N   N14       1.0  0.60390  0.50787  0.40090  1.0000 -0.3776418287
N   N15       1.0  0.62050  0.84564  0.05840  1.0000 -0.3683680031
N   N16       1.0  0.62050  0.65436  0.55840  1.0000 -0.3683680031
N   N17       1.0  0.65816  0.14043  0.05936  1.0000 -0.3683680031
N   N18       1.0  0.65816  0.35957  0.55936  1.0000 -0.3683680031
N   N19       1.0  0.18044  0.86769  0.03824  1.0000 -0.3683680031
N   N20       1.0  0.18044  0.63231  0.53824  1.0000 -0.3683680031
N   N21       1.0  0.14893  0.16485  0.03283  1.0000 -0.3683680031
N   N22       1.0  0.14893  0.33515  0.53283  1.0000 -0.3683680031
N   N23       1.0  0.97884  0.00898  0.87674  1.0000 -0.3683680031
N   N24       1.0  0.97884  0.49102  0.37674  1.0000 -0.3683680031
O   O1        1.0  0.48179  0.57344  0.58309  1.0000 -0.4802881423
O   O2        1.0  0.48179  0.92656  0.08309  1.0000 -0.4802881423
O   O3        1.0  0.40849  0.56932  0.40969  1.0000 -0.4424564112
O   O4        1.0  0.40849  0.93068  0.90969  1.0000 -0.4424564112
O   O5        1.0  0.77839  0.58870  0.42679  1.0000 -0.4717205148
O   O6        1.0  0.77839  0.91130  0.92679  1.0000 -0.4717205148
O   O7        1.0  0.51342  0.98847  0.35052  1.0000 -0.9076686222
O   O8        1.0  0.51342  0.51153  0.85052  1.0000 -0.9076686222
O   O9        1.0  0.09220  0.58011  0.59250  1.0000 -0.4717205148
O   O10       1.0  0.09220  0.91989  0.09250  1.0000 -0.4717205148
O   O11       1.0  0.30254  0.32783  0.48844  1.0000 -0.4467445519
O   O12       1.0  0.30254  0.17217  0.98844  1.0000 -0.4467445519
O   O13       1.0  0.52201  0.43644  0.77921  1.0000 -0.5178788323
O   O14       1.0  0.52201  0.06356  0.27921  1.0000 -0.5178788323
O   O15       1.0  0.34951  0.91388  0.37391  1.0000 -0.5099345911
O   O16       1.0  0.34951  0.58612  0.87391  1.0000 -0.5099345911
O   O17       1.0  0.27562  0.50384  0.80032  1.0000 -0.5099345911
O   O18       1.0  0.27562  0.99616  0.30032  1.0000 -0.5099345911
O   O19       1.0  0.81481  0.35075  0.52311  1.0000 -0.5023745466
O   O20       1.0  0.81481  0.14925  0.02311  1.0000 -0.5023745466
O   O21       1.0  0.58432  0.53217  0.77952  1.0000 -0.5720855974
O   O22       1.0  0.58432  0.96783  0.27952  1.0000 -0.5720855974
O   O23       1.0  0.34964  0.06575  0.38114  1.0000 -0.5023745466
O   O24       1.0  0.34964  0.43425  0.88114  1.0000 -0.5023745466
O   O25       1.0  0.43657  0.86065  0.34057  1.0000 -0.5621013511
O   O26       1.0  0.43657  0.63935  0.84057  1.0000 -0.5621013511
O   O27       1.0  0.42154  0.10866  0.34034  1.0000 -0.5621013511
O   O28       1.0  0.42154  0.39134  0.84034  1.0000 -0.5621013511
O   O29       1.0  0.37891  0.55471  0.77401  1.0000 -0.5755721796
O   O30       1.0  0.37891  0.94529  0.27401  1.0000 -0.5720855974
O   O31       1.0  0.63141  0.10620  0.39701  1.0000 -0.4802881423
O   O32       1.0  0.63141  0.39380  0.89701  1.0000 -0.4802881423
O   O33       1.0  0.62540  0.15538  0.34430  1.0000 -0.5178788323
O   O34       1.0  0.62540  0.34462  0.84430  1.0000 -0.5178788323
O   O35       1.0  0.64406  0.87608  0.34666  1.0000 -0.5306847859
O   O36       1.0  0.64406  0.62392  0.84666  1.0000 -0.5306847859
O   O37       1.0  0.64349  0.91980  0.40359  1.0000 -0.4467445519
O   O38       1.0  0.64349  0.58020  0.90359  1.0000 -0.4467445519
O   O39       1.0  0.51821  0.07344  0.91691  1.0000 -0.4802881423
O   O40       1.0  0.51821  0.42656  0.41691  1.0000 -0.4802881423
O   O41       1.0  0.59151  0.06932  0.09031  1.0000 -0.4424564112
O   O42       1.0  0.59151  0.43068  0.59031  1.0000 -0.4424564112
O   O43       1.0  0.22161  0.08870  0.07321  1.0000 -0.4717205148
O   O44       1.0  0.22161  0.41130  0.57321  1.0000 -0.4717205148
O   O45       1.0  0.48658  0.48847  0.14948  1.0000 -0.9076686222
O   O46       1.0  0.48658  0.01153  0.64948  1.0000 -0.9076686222
O   O47       1.0  0.90780  0.08011  0.90750  1.0000 -0.4717205148
O   O48       1.0  0.90780  0.41989  0.40750  1.0000 -0.4717205148
O   O49       1.0  0.69746  0.82783  0.01156  1.0000 -0.4467445519
O   O50       1.0  0.69746  0.67217  0.51156  1.0000 -0.4467445519
O   O51       1.0  0.47799  0.93644  0.72079  1.0000 -0.5178788323
O   O52       1.0  0.47799  0.56356  0.22079  1.0000 -0.5178788323
O   O53       1.0  0.65049  0.41388  0.12609  1.0000 -0.5099345911
O   O54       1.0  0.65049  0.08612  0.62609  1.0000 -0.5099345911
O   O55       1.0  0.72438  0.00384  0.69968  1.0000 -0.5099345911
O   O56       1.0  0.72438  0.49616  0.19968  1.0000 -0.5099345911
O   O57       1.0  0.18519  0.85075  0.97689  1.0000 -0.5023745466
O   O58       1.0  0.18519  0.64925  0.47689  1.0000 -0.5023745466
O   O59       1.0  0.41568  0.03217  0.72048  1.0000 -0.5720855974
O   O60       1.0  0.41568  0.46783  0.22048  1.0000 -0.5720855974
O   O61       1.0  0.65036  0.56575  0.11886  1.0000 -0.5023745466
O   O62       1.0  0.65036  0.93425  0.61886  1.0000 -0.5023745466
O   O63       1.0  0.56343  0.36065  0.15943  1.0000 -0.5621013511
O   O64       1.0  0.56343  0.13935  0.65943  1.0000 -0.5621013511
O   O65       1.0  0.57846  0.60866  0.15966  1.0000 -0.5621013511
O   O66       1.0  0.57846  0.89134  0.65966  1.0000 -0.5621013511
O   O67       1.0  0.62109  0.05471  0.72599  1.0000 -0.5720855974
O   O68       1.0  0.62109  0.44529  0.22599  1.0000 -0.5720855974
O   O69       1.0  0.36859  0.60620  0.10299  1.0000 -0.4802881423
O   O70       1.0  0.36859  0.89380  0.60299  1.0000 -0.4802881423
O   O71       1.0  0.37460  0.65538  0.15570  1.0000 -0.5178788323
O   O72       1.0  0.37460  0.84462  0.65570  1.0000 -0.5178788323
O   O73       1.0  0.35594  0.37608  0.15334  1.0000 -0.5306847859
O   O74       1.0  0.35594  0.12392  0.65334  1.0000 -0.5306847859
O   O75       1.0  0.35651  0.41980  0.09641  1.0000 -0.4467445519
O   O76       1.0  0.35651  0.08020  0.59641  1.0000 -0.4467445519
