# DDEC6 charges by PACMAN v1.1 (https://github.com/mtap-research/PACMAN-charge/)
data_2012[Cu][unc]3[ASR]1
_chemical_formula_sum              "Cu4 H32 C24 N32 O4"
_cell_length_a       12.2996
_cell_length_b       12.2996
_cell_length_c       7.9073
_cell_angle_alpha    90
_cell_angle_beta     90
_cell_angle_gamma    90

_symmetry_space_group_name_H-M    "P 1"
_symmetry_Int_Tables_number       1

loop_
  _symmetry_equiv_pos_as_xyz
  'x, y, z'

loop_
  _atom_site_type_symbol
  _atom_site_label
  _atom_site_symmetry_multiplicity
  _atom_site_fract_x
  _atom_site_fract_y
  _atom_site_fract_z
  _atom_site_occupancy
  _atom_site_charge
Cu  Cu1       1.0  0.98460  0.67645  0.65243  1.0000 0.628346244
Cu  Cu2       1.0  0.67645  0.01540  0.90243  1.0000 0.628346244
Cu  Cu3       1.0  0.01540  0.32355  0.15243  1.0000 0.628346244
Cu  Cu4       1.0  0.32355  0.98460  0.40243  1.0000 0.628346244
H   H1        1.0  0.77620  0.94590  0.53980  1.0000 0.1495036665
H   H2        1.0  0.94590  0.22380  0.78980  1.0000 0.1495036665
H   H3        1.0  0.22380  0.05410  0.03980  1.0000 0.1495036665
H   H4        1.0  0.05410  0.77620  0.28980  1.0000 0.1495036665
H   H5        1.0  0.89440  0.90350  0.50670  1.0000 0.1495036665
H   H6        1.0  0.90350  0.10560  0.75670  1.0000 0.1495036665
H   H7        1.0  0.10560  0.09650  0.00670  1.0000 0.1495036665
H   H8        1.0  0.09650  0.89440  0.25670  1.0000 0.1495036665
H   H9        1.0  0.77060  0.81460  0.32700  1.0000 0.1076222492
H   H10       1.0  0.81460  0.22940  0.57700  1.0000 0.1076222492
H   H11       1.0  0.22940  0.18540  0.82700  1.0000 0.1076222492
H   H12       1.0  0.18540  0.77060  0.07700  1.0000 0.1076222492
H   H13       1.0  0.70660  0.77070  0.48480  1.0000 0.1033687314
H   H14       1.0  0.77070  0.29340  0.73480  1.0000 0.1033687314
H   H15       1.0  0.29340  0.22930  0.98480  1.0000 0.1033687314
H   H16       1.0  0.22930  0.70660  0.23480  1.0000 0.1033687314
H   H17       1.0  0.73730  0.60970  0.33530  1.0000 0.1033687314
H   H18       1.0  0.60970  0.26270  0.58530  1.0000 0.1033687314
H   H19       1.0  0.26270  0.39030  0.83530  1.0000 0.1033687314
H   H20       1.0  0.39030  0.73730  0.08530  1.0000 0.1033687314
H   H21       1.0  0.83840  0.63590  0.22110  1.0000 0.1076222492
H   H22       1.0  0.63590  0.16160  0.47110  1.0000 0.1076222492
H   H23       1.0  0.16160  0.36410  0.72110  1.0000 0.1076222492
H   H24       1.0  0.36410  0.83840  0.97110  1.0000 0.1076222492
H   H25       1.0  0.84170  0.45330  0.30500  1.0000 0.1436911619
H   H26       1.0  0.45330  0.15830  0.55500  1.0000 0.1436911619
H   H27       1.0  0.15830  0.54670  0.80500  1.0000 0.1436911619
H   H28       1.0  0.54670  0.84170  0.05500  1.0000 0.1436911619
H   H29       1.0  0.84120  0.48860  0.49520  1.0000 0.1495036665
H   H30       1.0  0.48860  0.15880  0.74520  1.0000 0.1495036665
H   H31       1.0  0.15880  0.51140  0.99520  1.0000 0.1495036665
H   H32       1.0  0.51140  0.84120  0.24520  1.0000 0.1495036665
C   C1        1.0  0.83440  0.85450  0.73330  1.0000 0.3350055015
C   C2        1.0  0.85450  0.16560  0.98330  1.0000 0.3350055015
C   C3        1.0  0.16560  0.14550  0.23330  1.0000 0.3350055015
C   C4        1.0  0.14550  0.83440  0.48330  1.0000 0.3350055015
C   C5        1.0  0.82360  0.88320  0.55030  1.0000 -0.3205342533
C   C6        1.0  0.88320  0.17640  0.80030  1.0000 -0.3205342533
C   C7        1.0  0.17640  0.11680  0.05030  1.0000 -0.3205342533
C   C8        1.0  0.11680  0.82360  0.30030  1.0000 -0.3205342533
C   C9        1.0  0.77800  0.79080  0.44340  1.0000 0.0024565651
C   C10       1.0  0.79080  0.22200  0.69340  1.0000 0.0024565651
C   C11       1.0  0.22200  0.20920  0.94340  1.0000 0.0024565651
C   C12       1.0  0.20920  0.77800  0.19340  1.0000 0.0024565651
C   C13       1.0  0.81590  0.61620  0.33460  1.0000 0.0127182419
C   C14       1.0  0.61620  0.18410  0.58460  1.0000 0.0127182419
C   C15       1.0  0.18410  0.38380  0.83460  1.0000 0.0127182419
C   C16       1.0  0.38380  0.81590  0.08460  1.0000 0.0127182419
C   C17       1.0  0.86660  0.50860  0.38330  1.0000 -0.3205342533
C   C18       1.0  0.50860  0.13340  0.63330  1.0000 -0.3205342533
C   C19       1.0  0.13340  0.49140  0.88330  1.0000 -0.3205342533
C   C20       1.0  0.49140  0.86660  0.13330  1.0000 -0.3205342533
C   C21       1.0  0.98860  0.50950  0.38380  1.0000 0.311587671
C   C22       1.0  0.50950  0.01140  0.63380  1.0000 0.311587671
C   C23       1.0  0.01140  0.49050  0.88380  1.0000 0.311587671
C   C24       1.0  0.49050  0.98860  0.13380  1.0000 0.311587671
N   N1        1.0  0.89890  0.77460  0.78940  1.0000 -0.2600224817
N   N2        1.0  0.77460  0.10110  0.03940  1.0000 -0.2600224817
N   N3        1.0  0.10110  0.22540  0.28940  1.0000 -0.2600224817
N   N4        1.0  0.22540  0.89890  0.53940  1.0000 -0.2600224817
N   N5        1.0  0.89130  0.77410  0.96130  1.0000 -0.0838604176
N   N6        1.0  0.77410  0.10870  0.21130  1.0000 -0.0838604176
N   N7        1.0  0.10870  0.22590  0.46130  1.0000 -0.0838604176
N   N8        1.0  0.22590  0.89130  0.71130  1.0000 -0.0838604176
N   N9        1.0  0.82710  0.85300  0.00610  1.0000 -0.1035715153
N   N10       1.0  0.85300  0.17290  0.25610  1.0000 -0.1035715153
N   N11       1.0  0.17290  0.14700  0.50610  1.0000 -0.1035715153
N   N12       1.0  0.14700  0.82710  0.75610  1.0000 -0.1035715153
N   N13       1.0  0.78860  0.90470  0.86360  1.0000 -0.2782602811
N   N14       1.0  0.90470  0.21140  0.11360  1.0000 -0.2782602811
N   N15       1.0  0.21140  0.09530  0.36360  1.0000 -0.2782602811
N   N16       1.0  0.09530  0.78860  0.61360  1.0000 -0.2782602811
N   N17       1.0  0.04680  0.57820  0.48400  1.0000 -0.2652229869
N   N18       1.0  0.57820  0.95320  0.73400  1.0000 -0.2652229869
N   N19       1.0  0.95320  0.42180  0.98400  1.0000 -0.2652229869
N   N20       1.0  0.42180  0.04680  0.23400  1.0000 -0.2652229869
N   N21       1.0  0.15230  0.55650  0.45430  1.0000 -0.0724624449
N   N22       1.0  0.55650  0.84770  0.70430  1.0000 -0.0724624449
N   N23       1.0  0.84770  0.44350  0.95430  1.0000 -0.0724624449
N   N24       1.0  0.44350  0.15230  0.20430  1.0000 -0.0724624449
N   N25       1.0  0.15730  0.47840  0.34290  1.0000 -0.086506305
N   N26       1.0  0.47840  0.84270  0.59290  1.0000 -0.086506305
N   N27       1.0  0.84270  0.52160  0.84290  1.0000 -0.086506305
N   N28       1.0  0.52160  0.15730  0.09290  1.0000 -0.086506305
N   N29       1.0  0.05470  0.44900  0.29870  1.0000 -0.2600224817
N   N30       1.0  0.44900  0.94530  0.54870  1.0000 -0.2600224817
N   N31       1.0  0.94530  0.55100  0.79870  1.0000 -0.2600224817
N   N32       1.0  0.55100  0.05470  0.04870  1.0000 -0.2600224817
O   O1        1.0  0.84870  0.69910  0.45090  1.0000 -0.2533009255
O   O2        1.0  0.69910  0.15130  0.70090  1.0000 -0.2533009255
O   O3        1.0  0.15130  0.30090  0.95090  1.0000 -0.2533009255
O   O4        1.0  0.30090  0.84870  0.20090  1.0000 -0.2533009255
