# DDEC6 charges by PACMAN v1.1 (https://github.com/mtap-research/PACMAN-charge/)
data_2012[Zn][sod]3[ASR]1
_chemical_formula_sum              "Zn6 H60 C48 N24"
_cell_length_a       14.5933
_cell_length_b       14.5933
_cell_length_c       14.5933
_cell_angle_alpha    109.471
_cell_angle_beta     109.471
_cell_angle_gamma    109.471

_symmetry_space_group_name_H-M    "P 1"
_symmetry_Int_Tables_number       1

loop_
  _symmetry_equiv_pos_as_xyz
  'x, y, z'

loop_
  _atom_site_type_symbol
  _atom_site_label
  _atom_site_symmetry_multiplicity
  _atom_site_fract_x
  _atom_site_fract_y
  _atom_site_fract_z
  _atom_site_occupancy
  _atom_site_charge
Zn  Zn1       1.0  0.50000  0.75000  0.25000  1.0000 0.6623192456
Zn  Zn2       1.0  0.50000  0.25000  0.75000  1.0000 0.6623192456
Zn  Zn3       1.0  0.25000  0.50000  0.75000  1.0000 0.6623192456
Zn  Zn4       1.0  0.75000  0.50000  0.25000  1.0000 0.6623192456
Zn  Zn5       1.0  0.75000  0.25000  0.50000  1.0000 0.6623192456
Zn  Zn6       1.0  0.25000  0.75000  0.50000  1.0000 0.6623192456
H   H1        1.0  0.46590  0.56770  0.33480  1.0000 0.1210161528
H   H2        1.0  0.23290  0.13110  0.66520  1.0000 0.1210161528
H   H3        1.0  0.76710  0.43230  0.89820  1.0000 0.1210161528
H   H4        1.0  0.53410  0.86890  0.10180  1.0000 0.1210161528
H   H5        1.0  0.33480  0.46590  0.56770  1.0000 0.1210161528
H   H6        1.0  0.66520  0.23290  0.13110  1.0000 0.1210161528
H   H7        1.0  0.89820  0.76710  0.43230  1.0000 0.1210161528
H   H8        1.0  0.10180  0.53410  0.86890  1.0000 0.1210161528
H   H9        1.0  0.56770  0.33480  0.46590  1.0000 0.1210161528
H   H10       1.0  0.13110  0.66520  0.23290  1.0000 0.1210161528
H   H11       1.0  0.43230  0.89820  0.76710  1.0000 0.1210161528
H   H12       1.0  0.86890  0.10180  0.53410  1.0000 0.1210161528
H   H13       1.0  0.56770  0.46590  0.33480  1.0000 0.1210161528
H   H14       1.0  0.13110  0.23290  0.66520  1.0000 0.1210161528
H   H15       1.0  0.43230  0.76710  0.89820  1.0000 0.1210161528
H   H16       1.0  0.86890  0.53410  0.10180  1.0000 0.1210161528
H   H17       1.0  0.46590  0.33480  0.56770  1.0000 0.1210161528
H   H18       1.0  0.23290  0.66520  0.13110  1.0000 0.1210161528
H   H19       1.0  0.76710  0.89820  0.43230  1.0000 0.1210161528
H   H20       1.0  0.53410  0.10180  0.86890  1.0000 0.1210161528
H   H21       1.0  0.33480  0.56770  0.46590  1.0000 0.1210161528
H   H22       1.0  0.66520  0.13110  0.23290  1.0000 0.1210161528
H   H23       1.0  0.89820  0.43230  0.76710  1.0000 0.1210161528
H   H24       1.0  0.10180  0.86890  0.53410  1.0000 0.1210161528
H   H25       1.0  0.66306  0.61796  0.11267  1.0000 0.1314229933
H   H26       1.0  0.77943  0.73432  0.25534  1.0000 0.1210161528
H   H27       1.0  0.65359  0.74380  0.18400  1.0000 0.1314229933
H   H28       1.0  0.52409  0.47899  0.74466  1.0000 0.1210161528
H   H29       1.0  0.55040  0.50530  0.88733  1.0000 0.1314229933
H   H30       1.0  0.46959  0.55979  0.81600  1.0000 0.1314229933
H   H31       1.0  0.53250  0.31239  0.08107  1.0000 0.1210161528
H   H32       1.0  0.31239  0.53250  0.08107  1.0000 0.1210161528
H   H33       1.0  0.23256  0.70187  0.77473  1.0000 0.1210161528
H   H34       1.0  0.10210  0.62708  0.63671  1.0000 0.1314229933
H   H35       1.0  0.21734  0.76713  0.68464  1.0000 0.1210161528
H   H36       1.0  0.82518  0.47156  0.56120  1.0000 0.1314229933
H   H37       1.0  0.74052  0.51883  0.48272  1.0000 0.1210161528
H   H38       1.0  0.88230  0.55368  0.50015  1.0000 0.1314229933
H   H39       1.0  0.02247  0.48183  0.37760  1.0000 0.1314229933
H   H40       1.0  0.06442  0.52815  0.28650  1.0000 0.1210161528
H   H41       1.0  0.07362  0.29930  0.53090  1.0000 0.1210161528
H   H42       1.0  0.00833  0.37236  0.47435  1.0000 0.1314229933
H   H43       1.0  0.62708  0.10210  0.63671  1.0000 0.1314229933
H   H44       1.0  0.70187  0.23256  0.77473  1.0000 0.1210161528
H   H45       1.0  0.76713  0.21734  0.68464  1.0000 0.1210161528
H   H46       1.0  0.51883  0.74052  0.48272  1.0000 0.1210161528
H   H47       1.0  0.47156  0.82518  0.56120  1.0000 0.1314229933
H   H48       1.0  0.55368  0.88230  0.50015  1.0000 0.1314229933
H   H49       1.0  0.29930  0.07362  0.53090  1.0000 0.1210161528
H   H50       1.0  0.37236  0.00833  0.47435  1.0000 0.1314229933
H   H51       1.0  0.48183  0.02247  0.37760  1.0000 0.1314229933
H   H52       1.0  0.52815  0.06442  0.28650  1.0000 0.1210161528
H   H53       1.0  0.91311  0.44594  0.23982  1.0000 0.1210161528
H   H54       1.0  0.91805  0.23226  0.45068  1.0000 0.1210161528
H   H55       1.0  0.23226  0.91805  0.45068  1.0000 0.1210161528
H   H56       1.0  0.44594  0.91311  0.23982  1.0000 0.1210161528
H   H57       1.0  0.45641  0.22635  0.92522  1.0000 0.1210161528
H   H58       1.0  0.46701  0.36518  0.99371  1.0000 0.1314229933
H   H59       1.0  0.22635  0.45641  0.92522  1.0000 0.1210161528
H   H60       1.0  0.36518  0.46701  0.99371  1.0000 0.1314229933
C   C1        1.0  0.51880  0.57520  0.31160  1.0000 -0.0821096473
C   C2        1.0  0.26360  0.20720  0.68840  1.0000 -0.0821096473
C   C3        1.0  0.73640  0.42480  0.94360  1.0000 -0.0821096473
C   C4        1.0  0.48120  0.79280  0.05640  1.0000 -0.0821096473
C   C5        1.0  0.31160  0.51880  0.57520  1.0000 -0.0821096473
C   C6        1.0  0.68840  0.26360  0.20720  1.0000 -0.0821096473
C   C7        1.0  0.94360  0.73640  0.42480  1.0000 -0.0821096473
C   C8        1.0  0.05640  0.48120  0.79280  1.0000 -0.0821096473
C   C9        1.0  0.57520  0.31160  0.51880  1.0000 -0.0821096473
C   C10       1.0  0.20720  0.68840  0.26360  1.0000 -0.0821096473
C   C11       1.0  0.42480  0.94360  0.73640  1.0000 -0.0821096473
C   C12       1.0  0.79280  0.05640  0.48120  1.0000 -0.0821096473
C   C13       1.0  0.57520  0.51880  0.31160  1.0000 -0.0821096473
C   C14       1.0  0.20720  0.26360  0.68840  1.0000 -0.0821096473
C   C15       1.0  0.42480  0.73640  0.94360  1.0000 -0.0821096473
C   C16       1.0  0.79280  0.48120  0.05640  1.0000 -0.0821096473
C   C17       1.0  0.51880  0.31160  0.57520  1.0000 -0.0821096473
C   C18       1.0  0.26360  0.68840  0.20720  1.0000 -0.0821096473
C   C19       1.0  0.73640  0.94360  0.42480  1.0000 -0.0821096473
C   C20       1.0  0.48120  0.05640  0.79280  1.0000 -0.0821096473
C   C21       1.0  0.31160  0.57520  0.51880  1.0000 -0.0821096473
C   C22       1.0  0.68840  0.20720  0.26360  1.0000 -0.0821096473
C   C23       1.0  0.94360  0.42480  0.73640  1.0000 -0.0821096473
C   C24       1.0  0.05640  0.79280  0.48120  1.0000 -0.0821096473
C   C25       1.0  0.62930  0.62930  0.24800  1.0000 0.365904042
C   C26       1.0  0.68460  0.68460  0.19700  1.0000 -0.4188484846
C   C27       1.0  0.38130  0.38130  0.75200  1.0000 0.365904042
C   C28       1.0  0.48760  0.48760  0.80300  1.0000 -0.4188484846
C   C29       1.0  0.61870  0.37070  0.00000  1.0000 0.3632415212
C   C30       1.0  0.51240  0.31540  0.00000  1.0000 -0.4188484846
C   C31       1.0  0.37070  0.61870  0.00000  1.0000 0.365904042
C   C32       1.0  0.31540  0.51240  0.00000  1.0000 -0.4188484846
C   C33       1.0  0.24800  0.62930  0.62930  1.0000 0.3632415212
C   C34       1.0  0.19700  0.68460  0.68460  1.0000 -0.4188484846
C   C35       1.0  0.75200  0.38130  0.38130  1.0000 0.365904042
C   C36       1.0  0.80300  0.48760  0.48760  1.0000 -0.4188484846
C   C37       1.0  1.00000  0.61870  0.37070  1.0000 0.3632415212
C   C38       1.0  1.00000  0.51240  0.31540  1.0000 -0.4188484846
C   C39       1.0  0.00000  0.37070  0.61870  1.0000 0.365904042
C   C40       1.0  1.00000  0.31540  0.51240  1.0000 -0.4188484846
C   C41       1.0  0.62930  0.24800  0.62930  1.0000 0.365904042
C   C42       1.0  0.68460  0.19700  0.68460  1.0000 -0.4188484846
C   C43       1.0  0.38130  0.75200  0.38130  1.0000 0.365904042
C   C44       1.0  0.48760  0.80300  0.48760  1.0000 -0.4188484846
C   C45       1.0  0.37070  0.00000  0.61870  1.0000 0.365904042
C   C46       1.0  0.31540  0.00000  0.51240  1.0000 -0.4188484846
C   C47       1.0  0.61870  0.00000  0.37070  1.0000 0.3632415212
C   C48       1.0  0.51240  0.00000  0.31540  1.0000 -0.4188484846
N   N1        1.0  0.55260  0.64700  0.27100  1.0000 -0.3641997698
N   N2        1.0  0.37600  0.28160  0.72900  1.0000 -0.3666433633
N   N3        1.0  0.62400  0.35300  0.90560  1.0000 -0.3666433633
N   N4        1.0  0.44740  0.71840  0.09440  1.0000 -0.3666433633
N   N5        1.0  0.27100  0.55260  0.64700  1.0000 -0.3666433633
N   N6        1.0  0.72900  0.37600  0.28160  1.0000 -0.3666433633
N   N7        1.0  0.90560  0.62400  0.35300  1.0000 -0.3641997698
N   N8        1.0  0.09440  0.44740  0.71840  1.0000 -0.3666433633
N   N9        1.0  0.64700  0.27100  0.55260  1.0000 -0.3641997698
N   N10       1.0  0.28160  0.72900  0.37600  1.0000 -0.3641997698
N   N11       1.0  0.35300  0.90560  0.62400  1.0000 -0.3666433633
N   N12       1.0  0.71840  0.09440  0.44740  1.0000 -0.3666433633
N   N13       1.0  0.64700  0.55260  0.27100  1.0000 -0.3641997698
N   N14       1.0  0.28160  0.37600  0.72900  1.0000 -0.3666433633
N   N15       1.0  0.35300  0.62400  0.90560  1.0000 -0.3666433633
N   N16       1.0  0.71840  0.44740  0.09440  1.0000 -0.3666433633
N   N17       1.0  0.55260  0.27100  0.64700  1.0000 -0.3666433633
N   N18       1.0  0.37600  0.72900  0.28160  1.0000 -0.3666433633
N   N19       1.0  0.62400  0.90560  0.35300  1.0000 -0.3666433633
N   N20       1.0  0.44740  0.09440  0.71840  1.0000 -0.3666433633
N   N21       1.0  0.27100  0.64700  0.55260  1.0000 -0.3666433633
N   N22       1.0  0.72900  0.28160  0.37600  1.0000 -0.3641997698
N   N23       1.0  0.90560  0.35300  0.62400  1.0000 -0.3666433633
N   N24       1.0  0.09440  0.71840  0.44740  1.0000 -0.3666433633
