# DDEC6 charges by PACMAN v1.1 (https://github.com/mtap-research/PACMAN-charge/)
data_2012[Cu][twf]3[ASR]2
_chemical_formula_sum              "Cu18 H64 C120 Se4 N36 O68"
_cell_length_a       22.3326
_cell_length_b       22.3326
_cell_length_c       22.3326
_cell_angle_alpha    109.471
_cell_angle_beta     109.471
_cell_angle_gamma    109.471

_symmetry_space_group_name_H-M    "P 1"
_symmetry_Int_Tables_number       1

loop_
  _symmetry_equiv_pos_as_xyz
  'x, y, z'

loop_
  _atom_site_type_symbol
  _atom_site_label
  _atom_site_symmetry_multiplicity
  _atom_site_fract_x
  _atom_site_fract_y
  _atom_site_fract_z
  _atom_site_occupancy
  _atom_site_charge
Cu  Cu1       1.0  0.09237  0.09237  0.60556  1.0000 0.8432375998
Cu  Cu2       1.0  0.90763  0.51319  0.00000  1.0000 0.8432375998
Cu  Cu3       1.0  0.48681  0.48681  0.39444  1.0000 0.8432375998
Cu  Cu4       1.0  0.51319  0.90763  0.00000  1.0000 0.8465279312
Cu  Cu5       1.0  0.09237  0.60556  0.09237  1.0000 0.8432375998
Cu  Cu6       1.0  0.51319  1.00000  0.90763  1.0000 0.8432375998
Cu  Cu7       1.0  0.90763  0.00000  0.51319  1.0000 0.8432375998
Cu  Cu8       1.0  0.48681  0.39444  0.48681  1.0000 0.8432375998
Cu  Cu9       1.0  0.39444  0.48681  0.48681  1.0000 0.8432375998
Cu  Cu10      1.0  0.60556  0.09237  0.09237  1.0000 0.8465279312
Cu  Cu11      1.0  0.00000  0.90763  0.51319  1.0000 0.8432375998
Cu  Cu12      1.0  1.00000  0.51319  0.90763  1.0000 0.8432375998
Cu  Cu13      1.0  0.44843  1.00000  0.44843  1.0000 0.8588450324
Cu  Cu14      1.0  0.55157  0.00000  0.55157  1.0000 0.8588450324
Cu  Cu15      1.0  0.00000  0.44843  0.44843  1.0000 0.8588450324
Cu  Cu16      1.0  0.00000  0.55157  0.55157  1.0000 0.8588450324
Cu  Cu17      1.0  0.44843  0.44843  0.00000  1.0000 0.8588450324
Cu  Cu18      1.0  0.55157  0.55157  0.00000  1.0000 0.8588450324
H   H1        1.0  0.47140  0.00000  0.69980  1.0000 0.1441124425
H   H2        1.0  0.52860  0.22840  0.52860  1.0000 0.1441124425
H   H3        1.0  0.30020  0.77160  0.30020  1.0000 0.1441124425
H   H4        1.0  0.69980  0.00000  0.47140  1.0000 0.1441124425
H   H5        1.0  0.00000  0.69980  0.47140  1.0000 0.1441124425
H   H6        1.0  0.77160  0.30020  0.30020  1.0000 0.1441124425
H   H7        1.0  0.22840  0.52860  0.52860  1.0000 0.1441124425
H   H8        1.0  0.00000  0.47140  0.69980  1.0000 0.1441124425
H   H9        1.0  0.69980  0.47140  0.00000  1.0000 0.1441124425
H   H10       1.0  0.52860  0.52860  0.22840  1.0000 0.1441124425
H   H11       1.0  0.47140  0.69980  0.00000  1.0000 0.1441124425
H   H12       1.0  0.30020  0.30020  0.77160  1.0000 0.1441124425
H   H13       1.0  0.30620  0.00000  0.54760  1.0000 0.1579704777
H   H14       1.0  0.69380  0.24140  0.69380  1.0000 0.1579704777
H   H15       1.0  0.45240  0.75860  0.45240  1.0000 0.1579704777
H   H16       1.0  0.54760  0.00000  0.30620  1.0000 0.1579704777
H   H17       1.0  0.00000  0.54760  0.30620  1.0000 0.1579704777
H   H18       1.0  0.75860  0.45240  0.45240  1.0000 0.1579704777
H   H19       1.0  0.24140  0.69380  0.69380  1.0000 0.1579704777
H   H20       1.0  0.00000  0.30620  0.54760  1.0000 0.1579704777
H   H21       1.0  0.54760  0.30620  0.00000  1.0000 0.1579704777
H   H22       1.0  0.69380  0.69380  0.24140  1.0000 0.1579704777
H   H23       1.0  0.30620  0.54760  0.00000  1.0000 0.1579704777
H   H24       1.0  0.45240  0.45240  0.75860  1.0000 0.1579704777
H   H25       1.0  0.29920  0.00000  0.72700  1.0000 0.1512087015
H   H26       1.0  0.70080  0.42780  0.70080  1.0000 0.1512087015
H   H27       1.0  0.27300  0.57220  0.27300  1.0000 0.1512087015
H   H28       1.0  0.72700  0.00000  0.29920  1.0000 0.1512087015
H   H29       1.0  0.00000  0.72700  0.29920  1.0000 0.1512087015
H   H30       1.0  0.57220  0.27300  0.27300  1.0000 0.1512087015
H   H31       1.0  0.42780  0.70080  0.70080  1.0000 0.1512087015
H   H32       1.0  0.00000  0.29920  0.72700  1.0000 0.1512087015
H   H33       1.0  0.72700  0.29920  0.00000  1.0000 0.1512087015
H   H34       1.0  0.70080  0.70080  0.42780  1.0000 0.1512087015
H   H35       1.0  0.29920  0.72700  0.00000  1.0000 0.1512087015
H   H36       1.0  0.27300  0.27300  0.57220  1.0000 0.1512087015
H   H37       1.0  0.25520  0.10990  0.66190  1.0000 0.1512087015
H   H38       1.0  0.74480  0.40670  0.85470  1.0000 0.1512087015
H   H39       1.0  0.44800  0.59330  0.33810  1.0000 0.1512087015
H   H40       1.0  0.55200  0.89010  0.14530  1.0000 0.1512087015
H   H41       1.0  0.89010  0.55200  0.14530  1.0000 0.1512087015
H   H42       1.0  0.59330  0.44800  0.33810  1.0000 0.1512087015
H   H43       1.0  0.40670  0.74480  0.85470  1.0000 0.1512087015
H   H44       1.0  0.10990  0.25520  0.66190  1.0000 0.1512087015
H   H45       1.0  0.10990  0.66190  0.25520  1.0000 0.1512087015
H   H46       1.0  0.40670  0.85470  0.74480  1.0000 0.1512087015
H   H47       1.0  0.89010  0.14530  0.55200  1.0000 0.1512087015
H   H48       1.0  0.59330  0.33810  0.44800  1.0000 0.1512087015
H   H49       1.0  0.33810  0.59330  0.44800  1.0000 0.1512087015
H   H50       1.0  0.66190  0.10990  0.25520  1.0000 0.1512087015
H   H51       1.0  0.14530  0.89010  0.55200  1.0000 0.1512087015
H   H52       1.0  0.85470  0.40670  0.74480  1.0000 0.1512087015
H   H53       1.0  0.66190  0.25520  0.10990  1.0000 0.1512087015
H   H54       1.0  0.85470  0.74480  0.40670  1.0000 0.1512087015
H   H55       1.0  0.14530  0.55200  0.89010  1.0000 0.1512087015
H   H56       1.0  0.33810  0.44800  0.59330  1.0000 0.1512087015
H   H57       1.0  0.25520  0.66190  0.10990  1.0000 0.1512087015
H   H58       1.0  0.74480  0.85470  0.40670  1.0000 0.1512087015
H   H59       1.0  0.44800  0.33810  0.59330  1.0000 0.1512087015
H   H60       1.0  0.55200  0.14530  0.89010  1.0000 0.1512087015
H   H61       1.0  0.00000  0.00000  0.48360  1.0000 0.3904891879
H   H62       1.0  0.00000  0.48360  0.00000  1.0000 0.3904891879
H   H63       1.0  0.51640  0.51640  0.51640  1.0000 0.3904891879
H   H64       1.0  0.48360  0.00000  0.00000  1.0000 0.3904891879
C   C1        1.0  0.42320  1.00000  0.79420  1.0000 0.5359038434
C   C2        1.0  0.57680  0.37100  0.57680  1.0000 0.5359038434
C   C3        1.0  0.20580  0.62900  0.20580  1.0000 0.5359038434
C   C4        1.0  0.79420  0.00000  0.42320  1.0000 0.5359038434
C   C5        1.0  0.00000  0.79420  0.42320  1.0000 0.5359038434
C   C6        1.0  0.62900  0.20580  0.20580  1.0000 0.5359038434
C   C7        1.0  0.37100  0.57680  0.57680  1.0000 0.5359038434
C   C8        1.0  0.00000  0.42320  0.79420  1.0000 0.5359038434
C   C9        1.0  0.79420  0.42320  0.00000  1.0000 0.5359038434
C   C10       1.0  0.57680  0.57680  0.37100  1.0000 0.5359038434
C   C11       1.0  0.42320  0.79420  0.00000  1.0000 0.5359038434
C   C12       1.0  0.20580  0.20580  0.62900  1.0000 0.5359038434
C   C13       1.0  0.39034  0.00000  0.72330  1.0000 0.0012270893
C   C14       1.0  0.60966  0.33296  0.60966  1.0000 0.0012270893
C   C15       1.0  0.27670  0.66704  0.27670  1.0000 -0.0001070402
C   C16       1.0  0.72330  0.00000  0.39034  1.0000 0.0012270893
C   C17       1.0  0.00000  0.72330  0.39034  1.0000 -0.0001070402
C   C18       1.0  0.66704  0.27670  0.27670  1.0000 -0.0001070402
C   C19       1.0  0.33296  0.60966  0.60966  1.0000 0.0012270893
C   C20       1.0  0.00000  0.39034  0.72330  1.0000 -0.0001070402
C   C21       1.0  0.72330  0.39034  0.00000  1.0000 -0.0001070402
C   C22       1.0  0.60966  0.60966  0.33296  1.0000 -0.0001070402
C   C23       1.0  0.39034  0.72330  0.00000  1.0000 -0.0001070402
C   C24       1.0  0.27670  0.27670  0.66704  1.0000 0.0012270893
C   C25       1.0  0.42628  0.00000  0.68332  1.0000 -0.1058008681
C   C26       1.0  0.57372  0.25704  0.57372  1.0000 -0.1058008681
C   C27       1.0  0.31668  0.74296  0.31668  1.0000 -0.1058008681
C   C28       1.0  0.68332  0.00000  0.42628  1.0000 -0.1058008681
C   C29       1.0  0.00000  0.68332  0.42628  1.0000 -0.1058008681
C   C30       1.0  0.74296  0.31668  0.31668  1.0000 -0.1058008681
C   C31       1.0  0.25704  0.57372  0.57372  1.0000 -0.1058008681
C   C32       1.0  0.00000  0.42628  0.68332  1.0000 -0.1058008681
C   C33       1.0  0.68332  0.42628  0.00000  1.0000 -0.1058008681
C   C34       1.0  0.57372  0.57372  0.25704  1.0000 -0.1058008681
C   C35       1.0  0.42628  0.68332  0.00000  1.0000 -0.1058008681
C   C36       1.0  0.31668  0.31668  0.74296  1.0000 -0.1058008681
C   C37       1.0  0.39305  0.00000  0.61595  1.0000 0.0143336664
C   C38       1.0  0.60695  0.22290  0.60695  1.0000 0.0143336664
C   C39       1.0  0.38405  0.77710  0.38405  1.0000 0.0143336664
C   C40       1.0  0.61595  0.00000  0.39305  1.0000 0.0143336664
C   C41       1.0  0.00000  0.61595  0.39305  1.0000 0.0143336664
C   C42       1.0  0.77710  0.38405  0.38405  1.0000 0.0143336664
C   C43       1.0  0.22290  0.60695  0.60695  1.0000 0.0143336664
C   C44       1.0  0.00000  0.39305  0.61595  1.0000 0.0143336664
C   C45       1.0  0.61595  0.39305  0.00000  1.0000 0.0143336664
C   C46       1.0  0.60695  0.60695  0.22290  1.0000 0.0143336664
C   C47       1.0  0.39305  0.61595  0.00000  1.0000 0.0143336664
C   C48       1.0  0.38405  0.38405  0.77710  1.0000 0.0143336664
C   C49       1.0  0.32814  0.00000  0.59206  1.0000 -0.1842054753
C   C50       1.0  0.67186  0.26392  0.67186  1.0000 -0.1842054753
C   C51       1.0  0.40794  0.73608  0.40794  1.0000 -0.1842054753
C   C52       1.0  0.59206  0.00000  0.32814  1.0000 -0.1842054753
C   C53       1.0  0.00000  0.59206  0.32814  1.0000 -0.1842054753
C   C54       1.0  0.73608  0.40794  0.40794  1.0000 -0.1842054753
C   C55       1.0  0.26392  0.67186  0.67186  1.0000 -0.1842054753
C   C56       1.0  0.00000  0.32814  0.59206  1.0000 -0.1842054753
C   C57       1.0  0.59206  0.32814  0.00000  1.0000 -0.1883577978
C   C58       1.0  0.67186  0.67186  0.26392  1.0000 -0.1842054753
C   C59       1.0  0.32814  0.59206  0.00000  1.0000 -0.1883577978
C   C60       1.0  0.40794  0.40794  0.73608  1.0000 -0.1842054753
C   C61       1.0  0.29573  0.00000  0.63507  1.0000 0.1512087015
C   C62       1.0  0.70427  0.33934  0.70427  1.0000 0.1512087015
C   C63       1.0  0.36493  0.66066  0.36493  1.0000 0.1512087015
C   C64       1.0  0.63507  0.00000  0.29573  1.0000 0.1512087015
C   C65       1.0  0.00000  0.63507  0.29573  1.0000 0.1512087015
C   C66       1.0  0.66066  0.36493  0.36493  1.0000 0.1512087015
C   C67       1.0  0.33934  0.70427  0.70427  1.0000 0.1512087015
C   C68       1.0  0.00000  0.29573  0.63507  1.0000 0.1512087015
C   C69       1.0  0.63507  0.29573  0.00000  1.0000 0.1512087015
C   C70       1.0  0.70427  0.70427  0.33934  1.0000 0.1512087015
C   C71       1.0  0.29573  0.63507  0.00000  1.0000 0.1512087015
C   C72       1.0  0.36493  0.36493  0.66066  1.0000 0.1512087015
C   C73       1.0  0.32371  0.00000  0.69949  1.0000 -0.1883577978
C   C74       1.0  0.67629  0.37578  0.67629  1.0000 -0.1883577978
C   C75       1.0  0.30051  0.62422  0.30051  1.0000 -0.1883577978
C   C76       1.0  0.69949  0.00000  0.32371  1.0000 -0.1883577978
C   C77       1.0  0.00000  0.69949  0.32371  1.0000 -0.1883577978
C   C78       1.0  0.62422  0.30051  0.30051  1.0000 -0.1883577978
C   C79       1.0  0.37578  0.67629  0.67629  1.0000 -0.1883577978
C   C80       1.0  0.00000  0.32371  0.69949  1.0000 -0.1883577978
C   C81       1.0  0.69949  0.32371  0.00000  1.0000 -0.1883577978
C   C82       1.0  0.67629  0.67629  0.37578  1.0000 -0.1883577978
C   C83       1.0  0.32371  0.69949  0.00000  1.0000 -0.1883577978
C   C84       1.0  0.30051  0.30051  0.62422  1.0000 -0.1883577978
C   C85       1.0  0.43424  0.00000  0.57336  1.0000 0.581937792
C   C86       1.0  0.56576  0.13912  0.56576  1.0000 0.581937792
C   C87       1.0  0.42664  0.86088  0.42664  1.0000 0.581937792
C   C88       1.0  0.57336  0.00000  0.43424  1.0000 0.581937792
C   C89       1.0  0.00000  0.57336  0.43424  1.0000 0.581937792
C   C90       1.0  0.86088  0.42664  0.42664  1.0000 0.581937792
C   C91       1.0  0.13912  0.56576  0.56576  1.0000 0.581937792
C   C92       1.0  0.00000  0.43424  0.57336  1.0000 0.581937792
C   C93       1.0  0.57336  0.43424  0.00000  1.0000 0.581937792
C   C94       1.0  0.56576  0.56576  0.13912  1.0000 0.581937792
C   C95       1.0  0.43424  0.57336  0.00000  1.0000 0.581937792
C   C96       1.0  0.42664  0.42664  0.86088  1.0000 0.581937792
C   C97       1.0  0.21679  0.06033  0.63066  1.0000 0.1295039457
C   C98       1.0  0.78321  0.41387  0.84354  1.0000 0.1295039457
C   C99       1.0  0.42967  0.58613  0.36934  1.0000 0.1295039457
C   C100      1.0  0.57033  0.93967  0.15646  1.0000 0.1295039457
C   C101      1.0  0.93967  0.57033  0.15646  1.0000 0.1295039457
C   C102      1.0  0.58613  0.42967  0.36934  1.0000 0.1295039457
C   C103      1.0  0.41387  0.78321  0.84354  1.0000 0.1295039457
C   C104      1.0  0.06033  0.21679  0.63066  1.0000 0.1295039457
C   C105      1.0  0.06033  0.63066  0.21679  1.0000 0.1295039457
C   C106      1.0  0.41387  0.84354  0.78321  1.0000 0.1295039457
C   C107      1.0  0.93967  0.15646  0.57033  1.0000 0.1295039457
C   C108      1.0  0.58613  0.36934  0.42967  1.0000 0.1295039457
C   C109      1.0  0.36934  0.58613  0.42967  1.0000 0.1295039457
C   C110      1.0  0.63066  0.06033  0.21679  1.0000 0.1295039457
C   C111      1.0  0.15646  0.93967  0.57033  1.0000 0.1295039457
C   C112      1.0  0.84354  0.41387  0.78321  1.0000 0.1295039457
C   C113      1.0  0.63066  0.21679  0.06033  1.0000 0.1295039457
C   C114      1.0  0.84354  0.78321  0.41387  1.0000 0.1295039457
C   C115      1.0  0.15646  0.57033  0.93967  1.0000 0.1295039457
C   C116      1.0  0.36934  0.42967  0.58613  1.0000 0.1295039457
C   C117      1.0  0.21679  0.63066  0.06033  1.0000 0.1295039457
C   C118      1.0  0.78321  0.84354  0.41387  1.0000 0.1295039457
C   C119      1.0  0.42967  0.36934  0.58613  1.0000 0.1295039457
C   C120      1.0  0.57033  0.15646  0.93967  1.0000 0.1295039457
Se  Se1       1.0  0.00000  0.00000  0.66880  1.0000 1.5496637196
Se  Se2       1.0  0.00000  0.66880  0.00000  1.0000 1.5496637196
Se  Se3       1.0  0.33120  0.33120  0.33120  1.0000 1.5496637196
Se  Se4       1.0  0.66880  0.00000  0.00000  1.0000 1.5496637196
N   N1        1.0  0.14620  0.03711  0.59855  1.0000 -0.15815683
N   N2        1.0  0.85380  0.45235  0.89091  1.0000 -0.15815683
N   N3        1.0  0.43856  0.54765  0.40145  1.0000 -0.15815683
N   N4        1.0  0.56144  0.96289  0.10909  1.0000 -0.15815683
N   N5        1.0  0.96289  0.56144  0.10909  1.0000 -0.15815683
N   N6        1.0  0.54765  0.43856  0.40145  1.0000 -0.15815683
N   N7        1.0  0.45235  0.85380  0.89091  1.0000 -0.15815683
N   N8        1.0  0.03711  0.14620  0.59855  1.0000 -0.15815683
N   N9        1.0  0.03711  0.59855  0.14620  1.0000 -0.15815683
N   N10       1.0  0.45235  0.89091  0.85380  1.0000 -0.15815683
N   N11       1.0  0.96289  0.10909  0.56144  1.0000 -0.15815683
N   N12       1.0  0.54765  0.40145  0.43856  1.0000 -0.15815683
N   N13       1.0  0.40145  0.54765  0.43856  1.0000 -0.15815683
N   N14       1.0  0.59855  0.03711  0.14620  1.0000 -0.15815683
N   N15       1.0  0.10909  0.96289  0.56144  1.0000 -0.15815683
N   N16       1.0  0.89091  0.45235  0.85380  1.0000 -0.15815683
N   N17       1.0  0.59855  0.14620  0.03711  1.0000 -0.15815683
N   N18       1.0  0.89091  0.85380  0.45235  1.0000 -0.15815683
N   N19       1.0  0.10909  0.56144  0.96289  1.0000 -0.15815683
N   N20       1.0  0.40145  0.43856  0.54765  1.0000 -0.15815683
N   N21       1.0  0.14620  0.59855  0.03711  1.0000 -0.15815683
N   N22       1.0  0.85380  0.89091  0.45235  1.0000 -0.15815683
N   N23       1.0  0.43856  0.40145  0.54765  1.0000 -0.15815683
N   N24       1.0  0.56144  0.10909  0.96289  1.0000 -0.15815683
N   N25       1.0  0.22468  0.00000  0.61082  1.0000 0.0012270893
N   N26       1.0  0.77532  0.38614  0.77532  1.0000 0.0012270893
N   N27       1.0  0.38918  0.61386  0.38918  1.0000 0.0012270893
N   N28       1.0  0.61082  0.00000  0.22468  1.0000 0.0012270893
N   N29       1.0  0.00000  0.61082  0.22468  1.0000 0.0012270893
N   N30       1.0  0.61386  0.38918  0.38918  1.0000 0.0012270893
N   N31       1.0  0.38614  0.77532  0.77532  1.0000 0.0012270893
N   N32       1.0  0.00000  0.22468  0.61082  1.0000 0.0012270893
N   N33       1.0  0.61082  0.22468  0.00000  1.0000 0.0012270893
N   N34       1.0  0.77532  0.77532  0.38614  1.0000 0.0012270893
N   N35       1.0  0.22468  0.61082  0.00000  1.0000 0.0012270893
N   N36       1.0  0.38918  0.38918  0.61386  1.0000 0.0012270893
O   O1        1.0  0.00000  1.00000  0.52074  1.0000 -0.799616891
O   O2        1.0  0.00000  0.52074  0.00000  1.0000 -0.799616891
O   O3        1.0  0.47926  0.47926  0.47926  1.0000 -0.799616891
O   O4        1.0  0.52074  0.00000  0.00000  1.0000 -0.799616891
O   O5        1.0  0.48445  1.00000  0.81483  1.0000 -0.5330052946
O   O6        1.0  0.51555  0.33038  0.51555  1.0000 -0.5330052946
O   O7        1.0  0.18517  0.66962  0.18517  1.0000 -0.5330052946
O   O8        1.0  0.81483  0.00000  0.48445  1.0000 -0.5330052946
O   O9        1.0  0.00000  0.81483  0.48445  1.0000 -0.5330052946
O   O10       1.0  0.66962  0.18517  0.18517  1.0000 -0.5330052946
O   O11       1.0  0.33038  0.51555  0.51555  1.0000 -0.5330052946
O   O12       1.0  0.00000  0.48445  0.81483  1.0000 -0.5330052946
O   O13       1.0  0.81483  0.48445  0.00000  1.0000 -0.5354719787
O   O14       1.0  0.51555  0.51555  0.33038  1.0000 -0.5330052946
O   O15       1.0  0.48445  0.81483  0.00000  1.0000 -0.5330052946
O   O16       1.0  0.18517  0.18517  0.66962  1.0000 -0.5330052946
O   O17       1.0  0.39167  0.00000  0.83273  1.0000 -0.5875850944
O   O18       1.0  0.60833  0.44106  0.60833  1.0000 -0.5875850944
O   O19       1.0  0.16727  0.55894  0.16727  1.0000 -0.5875850944
O   O20       1.0  0.83273  1.00000  0.39167  1.0000 -0.5875850944
O   O21       1.0  0.00000  0.83273  0.39167  1.0000 -0.5875850944
O   O22       1.0  0.55894  0.16727  0.16727  1.0000 -0.5875850944
O   O23       1.0  0.44106  0.60833  0.60833  1.0000 -0.5875850944
O   O24       1.0  0.00000  0.39167  0.83273  1.0000 -0.5875850944
O   O25       1.0  0.83273  0.39167  0.00000  1.0000 -0.5875850944
O   O26       1.0  0.60833  0.60833  0.44106  1.0000 -0.5875850944
O   O27       1.0  0.39167  0.83273  0.00000  1.0000 -0.5875850944
O   O28       1.0  0.16727  0.16727  0.55894  1.0000 -0.5875850944
O   O29       1.0  0.40397  0.00000  0.51315  1.0000 -0.5460901835
O   O30       1.0  0.59603  0.10918  0.59603  1.0000 -0.5460901835
O   O31       1.0  0.48685  0.89082  0.48685  1.0000 -0.5460901835
O   O32       1.0  0.51315  0.00000  0.40397  1.0000 -0.5460901835
O   O33       1.0  0.00000  0.51315  0.40397  1.0000 -0.5460901835
O   O34       1.0  0.89082  0.48685  0.48685  1.0000 -0.5460901835
O   O35       1.0  0.10918  0.59603  0.59603  1.0000 -0.5460901835
O   O36       1.0  0.00000  0.40397  0.51315  1.0000 -0.5460901835
O   O37       1.0  0.51315  0.40397  0.00000  1.0000 -0.5460901835
O   O38       1.0  0.59603  0.59603  0.10918  1.0000 -0.5460901835
O   O39       1.0  0.40397  0.51315  0.00000  1.0000 -0.5460901835
O   O40       1.0  0.48685  0.48685  0.89082  1.0000 -0.5460901835
O   O41       1.0  0.49270  0.00000  0.59996  1.0000 -0.4989486216
O   O42       1.0  0.50730  0.10726  0.50730  1.0000 -0.4989486216
O   O43       1.0  0.40004  0.89274  0.40004  1.0000 -0.4989486216
O   O44       1.0  0.59996  0.00000  0.49270  1.0000 -0.4989486216
O   O45       1.0  0.00000  0.59996  0.49270  1.0000 -0.4989486216
O   O46       1.0  0.89274  0.40004  0.40004  1.0000 -0.4989486216
O   O47       1.0  0.10726  0.50730  0.50730  1.0000 -0.4989486216
O   O48       1.0  0.00000  0.49270  0.59996  1.0000 -0.4989486216
O   O49       1.0  0.59996  0.49270  0.00000  1.0000 -0.4989486216
O   O50       1.0  0.50730  0.50730  0.10726  1.0000 -0.4989486216
O   O51       1.0  0.49270  0.59996  0.00000  1.0000 -0.4989486216
O   O52       1.0  0.40004  0.40004  0.89274  1.0000 -0.4989486216
O   O53       1.0  0.07276  0.07276  0.69260  1.0000 -0.7679864892
O   O54       1.0  0.92724  0.61984  0.00000  1.0000 -0.7679864892
O   O55       1.0  0.38016  0.38016  0.30740  1.0000 -0.7679864892
O   O56       1.0  0.61984  0.92724  0.00000  1.0000 -0.7679864892
O   O57       1.0  0.07276  0.69260  0.07276  1.0000 -0.7679864892
O   O58       1.0  0.61984  1.00000  0.92724  1.0000 -0.7679864892
O   O59       1.0  0.92724  0.00000  0.61984  1.0000 -0.7679864892
O   O60       1.0  0.38016  0.30740  0.38016  1.0000 -0.7679864892
O   O61       1.0  0.30740  0.38016  0.38016  1.0000 -0.7679864892
O   O62       1.0  0.69260  0.07276  0.07276  1.0000 -0.7679864892
O   O63       1.0  0.00000  0.92724  0.61984  1.0000 -0.7679864892
O   O64       1.0  1.00000  0.61984  0.92724  1.0000 -0.7679864892
O   O65       1.0  0.00000  0.00000  0.74238  1.0000 -0.6672589807
O   O66       1.0  0.00000  0.74238  0.00000  1.0000 -0.6672589807
O   O67       1.0  0.25762  0.25762  0.25762  1.0000 -0.6672589807
O   O68       1.0  0.74238  0.00000  0.00000  1.0000 -0.6858983068
