# DDEC6 charges by PACMAN v1.1 (https://github.com/mtap-research/PACMAN-charge/)
data_2012[Mg][nan]3[ASR]2
_chemical_formula_sum              "Mg6 H42 C66 O18"
_cell_length_a       26.5533
_cell_length_b       26.5533
_cell_length_c       26.5533
_cell_angle_alpha    119.347
_cell_angle_beta     119.347
_cell_angle_gamma    119.347

_symmetry_space_group_name_H-M    "P 1"
_symmetry_Int_Tables_number       1

loop_
  _symmetry_equiv_pos_as_xyz
  'x, y, z'

loop_
  _atom_site_type_symbol
  _atom_site_label
  _atom_site_symmetry_multiplicity
  _atom_site_fract_x
  _atom_site_fract_y
  _atom_site_fract_z
  _atom_site_occupancy
  _atom_site_charge
Mg  Mg1       1.0  0.08550  0.46177  0.78426  1.0000 1.3597873706
Mg  Mg2       1.0  0.46177  0.78426  0.08550  1.0000 1.3597873706
Mg  Mg3       1.0  0.78426  0.08550  0.46177  1.0000 1.3597873706
Mg  Mg4       1.0  0.91450  0.53823  0.21574  1.0000 1.3597873706
Mg  Mg5       1.0  0.53823  0.21574  0.91450  1.0000 1.3597873706
Mg  Mg6       1.0  0.21574  0.91450  0.53823  1.0000 1.3597873706
H   H1        1.0  0.05904  0.45609  0.89989  1.0000 0.1188845891
H   H2        1.0  0.45609  0.89989  0.05904  1.0000 0.1188845891
H   H3        1.0  0.89989  0.05904  0.45609  1.0000 0.1188845891
H   H4        1.0  0.94096  0.54391  0.10011  1.0000 0.1188845891
H   H5        1.0  0.54391  0.10011  0.94096  1.0000 0.1188845891
H   H6        1.0  0.10011  0.94096  0.54391  1.0000 0.1188845891
H   H7        1.0  0.30367  0.77080  0.16330  1.0000 0.1021840705
H   H8        1.0  0.77080  0.16330  0.30367  1.0000 0.1021840705
H   H9        1.0  0.16330  0.30367  0.77080  1.0000 0.1021840705
H   H10       1.0  0.69633  0.22920  0.83670  1.0000 0.1021840705
H   H11       1.0  0.22920  0.83670  0.69633  1.0000 0.1021840705
H   H12       1.0  0.83670  0.69633  0.22920  1.0000 0.1021840705
H   H13       1.0  0.48572  0.99105  0.43045  1.0000 0.1065890325
H   H14       1.0  0.99105  0.43045  0.48572  1.0000 0.1065890325
H   H15       1.0  0.43045  0.48572  0.99105  1.0000 0.1065890325
H   H16       1.0  0.51428  0.00895  0.56955  1.0000 0.1065890325
H   H17       1.0  0.00895  0.56955  0.51428  1.0000 0.1065890325
H   H18       1.0  0.56955  0.51428  0.00895  1.0000 0.1065890325
H   H19       1.0  0.91723  0.31654  0.86970  1.0000 0.1188845891
H   H20       1.0  0.31654  0.86970  0.91723  1.0000 0.1188845891
H   H21       1.0  0.86970  0.91723  0.31654  1.0000 0.1188845891
H   H22       1.0  0.08277  0.68346  0.13030  1.0000 0.1188845891
H   H23       1.0  0.68346  0.13030  0.08277  1.0000 0.1188845891
H   H24       1.0  0.13030  0.08277  0.68346  1.0000 0.1188845891
H   H25       1.0  0.96423  0.51805  0.87133  1.0000 0.1304929588
H   H26       1.0  0.51805  0.87133  0.96423  1.0000 0.1304929588
H   H27       1.0  0.87133  0.96423  0.51805  1.0000 0.1304929588
H   H28       1.0  0.03577  0.48195  0.12867  1.0000 0.1304929588
H   H29       1.0  0.48195  0.12867  0.03577  1.0000 0.1304929588
H   H30       1.0  0.12867  0.03577  0.48195  1.0000 0.1304929588
H   H31       1.0  0.94769  0.56475  0.92490  1.0000 0.1304929588
H   H32       1.0  0.56475  0.92490  0.94769  1.0000 0.1304929588
H   H33       1.0  0.92490  0.94769  0.56475  1.0000 0.1304929588
H   H34       1.0  0.05231  0.43525  0.07510  1.0000 0.1304929588
H   H35       1.0  0.43525  0.07510  0.05231  1.0000 0.1304929588
H   H36       1.0  0.07510  0.05231  0.43525  1.0000 0.1304929588
H   H37       1.0  0.71603  0.29888  0.67096  1.0000 0.1188845891
H   H38       1.0  0.29888  0.67096  0.71603  1.0000 0.1188845891
H   H39       1.0  0.67096  0.71603  0.29888  1.0000 0.1188845891
H   H40       1.0  0.28397  0.70112  0.32904  1.0000 0.1188845891
H   H41       1.0  0.70112  0.32904  0.28397  1.0000 0.1188845891
H   H42       1.0  0.32904  0.28397  0.70112  1.0000 0.1188845891
C   C1        1.0  0.45563  0.84250  0.20457  1.0000 0.6347807426
C   C2        1.0  0.84250  0.20457  0.45563  1.0000 0.6347807426
C   C3        1.0  0.20457  0.45563  0.84250  1.0000 0.6347807426
C   C4        1.0  0.54437  0.15750  0.79543  1.0000 0.6347807426
C   C5        1.0  0.15750  0.79543  0.54437  1.0000 0.6347807426
C   C6        1.0  0.79543  0.54437  0.15750  1.0000 0.6356522102
C   C7        1.0  0.57656  0.98538  0.37576  1.0000 -0.2016778121
C   C8        1.0  0.98538  0.37576  0.57656  1.0000 -0.2016778121
C   C9        1.0  0.37576  0.57656  0.98538  1.0000 -0.2016778121
C   C10       1.0  0.42344  0.01462  0.62424  1.0000 -0.2016778121
C   C11       1.0  0.01462  0.62424  0.42344  1.0000 -0.2016778121
C   C12       1.0  0.62424  0.42344  0.01462  1.0000 -0.2016778121
C   C13       1.0  0.79470  0.18529  0.58945  1.0000 0.3326173631
C   C14       1.0  0.18529  0.58945  0.79470  1.0000 0.3326173631
C   C15       1.0  0.58945  0.79470  0.18529  1.0000 0.3326173631
C   C16       1.0  0.20530  0.81471  0.41055  1.0000 0.3326173631
C   C17       1.0  0.81471  0.41055  0.20530  1.0000 0.3326173631
C   C18       1.0  0.41055  0.20530  0.81471  1.0000 0.3326173631
C   C19       1.0  0.89473  0.30755  0.73928  1.0000 -0.2377477106
C   C20       1.0  0.30755  0.73928  0.89473  1.0000 -0.2377477106
C   C21       1.0  0.73928  0.89473  0.30755  1.0000 -0.2377477106
C   C22       1.0  0.10527  0.69245  0.26072  1.0000 -0.2377477106
C   C23       1.0  0.69245  0.26072  0.10527  1.0000 -0.2377477106
C   C24       1.0  0.26072  0.10527  0.69245  1.0000 -0.2377477106
C   C25       1.0  0.78645  0.24117  0.68498  1.0000 0.1065890325
C   C26       1.0  0.24117  0.68498  0.78645  1.0000 0.1065890325
C   C27       1.0  0.68498  0.78645  0.24117  1.0000 0.1065890325
C   C28       1.0  0.21355  0.75883  0.31502  1.0000 0.1065890325
C   C29       1.0  0.75883  0.31502  0.21355  1.0000 0.1065890325
C   C30       1.0  0.31502  0.21355  0.75883  1.0000 0.1065890325
C   C31       1.0  0.57275  0.04620  0.47583  1.0000 -0.1760143331
C   C32       1.0  0.04620  0.47583  0.57275  1.0000 -0.1760143331
C   C33       1.0  0.47583  0.57275  0.04620  1.0000 -0.1760143331
C   C34       1.0  0.42725  0.95380  0.52417  1.0000 -0.1760143331
C   C35       1.0  0.95380  0.52417  0.42725  1.0000 -0.1760143331
C   C36       1.0  0.52417  0.42725  0.95380  1.0000 -0.1760143331
C   C37       1.0  0.46921  0.92024  0.32346  1.0000 -0.0777576942
C   C38       1.0  0.92024  0.32346  0.46921  1.0000 -0.0777576942
C   C39       1.0  0.32346  0.46921  0.92024  1.0000 -0.0777576942
C   C40       1.0  0.53079  0.07976  0.67654  1.0000 -0.0777576942
C   C41       1.0  0.07976  0.67654  0.53079  1.0000 -0.0777576942
C   C42       1.0  0.67654  0.53079  0.07976  1.0000 -0.0777576942
C   C43       1.0  0.89649  0.37507  0.84685  1.0000 0.0109326826
C   C44       1.0  0.37507  0.84685  0.89649  1.0000 0.0109326826
C   C45       1.0  0.84685  0.89649  0.37507  1.0000 0.0109326826
C   C46       1.0  0.10351  0.62493  0.15315  1.0000 0.0109326826
C   C47       1.0  0.62493  0.15315  0.10351  1.0000 0.0109326826
C   C48       1.0  0.15315  0.10351  0.62493  1.0000 0.0109326826
C   C49       1.0  0.94318  0.47914  0.92040  1.0000 0.1188845891
C   C50       1.0  0.47914  0.92040  0.94318  1.0000 0.1188845891
C   C51       1.0  0.92040  0.94318  0.47914  1.0000 0.1188845891
C   C52       1.0  0.05682  0.52086  0.07960  1.0000 0.1188845891
C   C53       1.0  0.52086  0.07960  0.05682  1.0000 0.1188845891
C   C54       1.0  0.07960  0.05682  0.52086  1.0000 0.1188845891
C   C55       1.0  0.95449  0.39770  0.92774  1.0000 -0.2016778121
C   C56       1.0  0.39770  0.92774  0.95449  1.0000 -0.2016778121
C   C57       1.0  0.92774  0.95449  0.39770  1.0000 -0.2016778121
C   C58       1.0  0.04551  0.60230  0.07226  1.0000 -0.2016778121
C   C59       1.0  0.60230  0.07226  0.04551  1.0000 -0.2016778121
C   C60       1.0  0.07226  0.04551  0.60230  1.0000 -0.2016778121
C   C61       1.0  0.88978  0.46445  0.84257  1.0000 -0.3977879129
C   C62       1.0  0.46445  0.84257  0.88978  1.0000 -0.3977879129
C   C63       1.0  0.84257  0.88978  0.46445  1.0000 -0.3977879129
C   C64       1.0  0.11022  0.53555  0.15743  1.0000 -0.3977879129
C   C65       1.0  0.53555  0.15743  0.11022  1.0000 -0.3977879129
C   C66       1.0  0.15743  0.11022  0.53555  1.0000 -0.3977879129
O   O1        1.0  0.26107  0.66708  0.01871  1.0000 -0.5917607686
O   O2        1.0  0.66708  0.01871  0.26107  1.0000 -0.5917607686
O   O3        1.0  0.01871  0.26107  0.66708  1.0000 -0.5917607686
O   O4        1.0  0.73893  0.33292  0.98129  1.0000 -0.5917607686
O   O5        1.0  0.33292  0.98129  0.73893  1.0000 -0.5917607686
O   O6        1.0  0.98129  0.73893  0.33292  1.0000 -0.5917607686
O   O7        1.0  0.54051  0.89032  0.23915  1.0000 -0.7092666866
O   O8        1.0  0.89032  0.23915  0.54051  1.0000 -0.7092666866
O   O9        1.0  0.23915  0.54051  0.89032  1.0000 -0.7092666866
O   O10       1.0  0.45949  0.10968  0.76085  1.0000 -0.7092666866
O   O11       1.0  0.10968  0.76085  0.45949  1.0000 -0.7092666866
O   O12       1.0  0.76085  0.45949  0.10968  1.0000 -0.7092666866
O   O13       1.0  0.91832  0.26790  0.66168  1.0000 -0.7964590829
O   O14       1.0  0.26790  0.66168  0.91832  1.0000 -0.7964590829
O   O15       1.0  0.66168  0.91832  0.26790  1.0000 -0.7964590829
O   O16       1.0  0.08168  0.73210  0.33832  1.0000 -0.7964590829
O   O17       1.0  0.73210  0.33832  0.08168  1.0000 -0.7964590829
O   O18       1.0  0.33832  0.08168  0.73210  1.0000 -0.7964590829
