# DDEC6 charges by PACMAN v1.1 (https://github.com/mtap-research/PACMAN-charge/)
data_2012[Zn][nts]3[ASR]1
_chemical_formula_sum              "Zn24 H144 C264 O120"
_cell_length_a       29.3847
_cell_length_b       29.3847
_cell_length_c       29.3847
_cell_angle_alpha    120.185
_cell_angle_beta     120.185
_cell_angle_gamma    89.6803

_symmetry_space_group_name_H-M    "P 1"
_symmetry_Int_Tables_number       1

loop_
  _symmetry_equiv_pos_as_xyz
  'x, y, z'

loop_
  _atom_site_type_symbol
  _atom_site_label
  _atom_site_symmetry_multiplicity
  _atom_site_fract_x
  _atom_site_fract_y
  _atom_site_fract_z
  _atom_site_occupancy
  _atom_site_charge
Zn  Zn1       1.0  0.72335  0.98880  0.97933  1.0000 0.9628274436
Zn  Zn2       1.0  0.00947  0.74402  0.02067  1.0000 0.9628274436
Zn  Zn3       1.0  0.98880  0.00947  0.26545  1.0000 0.9628274436
Zn  Zn4       1.0  0.74402  0.72335  0.73455  1.0000 0.9628274436
Zn  Zn5       1.0  0.27665  0.01120  0.02067  1.0000 0.9628274436
Zn  Zn6       1.0  0.99053  0.25598  0.97933  1.0000 0.9628274436
Zn  Zn7       1.0  0.01120  0.99053  0.73455  1.0000 0.9628274436
Zn  Zn8       1.0  0.25598  0.27665  0.26545  1.0000 0.9628274436
Zn  Zn9       1.0  0.73471  0.97994  0.71465  1.0000 0.9670311879
Zn  Zn10      1.0  0.26529  0.02006  0.28535  1.0000 0.9670311879
Zn  Zn11      1.0  0.97994  0.26529  0.24523  1.0000 0.9670311879
Zn  Zn12      1.0  0.02006  0.73471  0.75477  1.0000 0.9670311879
Zn  Zn13      1.0  0.36735  0.02545  0.39280  1.0000 0.9670311879
Zn  Zn14      1.0  0.63265  0.97455  0.60720  1.0000 0.9670311879
Zn  Zn15      1.0  0.02545  0.63265  0.65810  1.0000 0.9670311879
Zn  Zn16      1.0  0.97455  0.36735  0.34190  1.0000 0.9670311879
Zn  Zn17      1.0  0.98662  0.01313  0.36815  1.0000 0.9628274436
Zn  Zn18      1.0  0.64498  0.61847  0.63185  1.0000 0.9628274436
Zn  Zn19      1.0  0.01313  0.64498  0.02651  1.0000 0.9628274436
Zn  Zn20      1.0  0.61847  0.98662  0.97349  1.0000 0.9628274436
Zn  Zn21      1.0  0.01338  0.98687  0.63185  1.0000 0.9628274436
Zn  Zn22      1.0  0.35502  0.38153  0.36815  1.0000 0.9628274436
Zn  Zn23      1.0  0.98687  0.35502  0.97349  1.0000 0.9628274436
Zn  Zn24      1.0  0.38153  0.01338  0.02651  1.0000 0.9628274436
H   H1        1.0  0.66960  0.99960  0.81960  1.0000 0.1417257238
H   H2        1.0  0.18000  0.85000  0.18040  1.0000 0.1417257238
H   H3        1.0  0.99960  0.18000  0.33000  1.0000 0.1417257238
H   H4        1.0  0.85000  0.66960  0.67000  1.0000 0.1417257238
H   H5        1.0  0.33040  0.00040  0.18040  1.0000 0.1417257238
H   H6        1.0  0.82000  0.15000  0.81960  1.0000 0.1417257238
H   H7        1.0  0.00040  0.82000  0.67000  1.0000 0.1417257238
H   H8        1.0  0.15000  0.33040  0.33000  1.0000 0.1417257238
H   H9        1.0  0.53650  0.01070  0.68840  1.0000 0.1464077304
H   H10       1.0  0.32230  0.84810  0.31160  1.0000 0.1464077304
H   H11       1.0  0.01070  0.32230  0.47420  1.0000 0.1464077304
H   H12       1.0  0.84810  0.53650  0.52580  1.0000 0.1464077304
H   H13       1.0  0.46350  0.98930  0.31160  1.0000 0.1464077304
H   H14       1.0  0.67770  0.15190  0.68840  1.0000 0.1464077304
H   H15       1.0  0.98930  0.67770  0.52580  1.0000 0.1464077304
H   H16       1.0  0.15190  0.46350  0.47420  1.0000 0.1464077304
H   H17       1.0  0.54410  0.02780  0.84010  1.0000 0.1281982949
H   H18       1.0  0.18770  0.70400  0.15990  1.0000 0.1281982949
H   H19       1.0  0.02780  0.18770  0.48370  1.0000 0.1281982949
H   H20       1.0  0.70400  0.54410  0.51630  1.0000 0.1281982949
H   H21       1.0  0.45590  0.97220  0.15990  1.0000 0.1281982949
H   H22       1.0  0.81230  0.29600  0.84010  1.0000 0.1281982949
H   H23       1.0  0.97220  0.81230  0.51630  1.0000 0.1281982949
H   H24       1.0  0.29600  0.45590  0.48370  1.0000 0.1281982949
H   H25       1.0  0.47810  0.06920  0.80930  1.0000 0.1195765038
H   H26       1.0  0.25990  0.66880  0.19070  1.0000 0.1195765038
H   H27       1.0  0.06920  0.25990  0.59110  1.0000 0.1195765038
H   H28       1.0  0.66880  0.47810  0.40890  1.0000 0.1195765038
H   H29       1.0  0.52190  0.93080  0.19070  1.0000 0.1195765038
H   H30       1.0  0.74010  0.33120  0.80930  1.0000 0.1195765038
H   H31       1.0  0.93080  0.74010  0.40890  1.0000 0.1195765038
H   H32       1.0  0.33120  0.52190  0.59110  1.0000 0.1195765038
H   H33       1.0  0.44900  0.00320  0.76800  1.0000 0.1195765038
H   H34       1.0  0.23520  0.68100  0.23200  1.0000 0.1195765038
H   H35       1.0  0.00320  0.23520  0.55420  1.0000 0.1195765038
H   H36       1.0  0.68100  0.44900  0.44580  1.0000 0.1195765038
H   H37       1.0  0.55100  0.99680  0.23200  1.0000 0.1195765038
H   H38       1.0  0.76480  0.31900  0.76800  1.0000 0.1195765038
H   H39       1.0  0.99680  0.76480  0.44580  1.0000 0.1195765038
H   H40       1.0  0.31900  0.55100  0.55420  1.0000 0.1195765038
H   H41       1.0  0.16030  0.03580  0.35350  1.0000 0.1417257238
H   H42       1.0  0.68230  0.80680  0.64650  1.0000 0.1417257238
H   H43       1.0  0.03580  0.68230  0.87550  1.0000 0.1417257238
H   H44       1.0  0.80680  0.16030  0.12450  1.0000 0.1417257238
H   H45       1.0  0.83970  0.96420  0.64650  1.0000 0.1417257238
H   H46       1.0  0.31770  0.19320  0.35350  1.0000 0.1417257238
H   H47       1.0  0.96420  0.31770  0.12450  1.0000 0.1417257238
H   H48       1.0  0.19320  0.83970  0.87550  1.0000 0.1417257238
H   H49       1.0  0.16610  0.05100  0.50070  1.0000 0.1417257238
H   H50       1.0  0.55030  0.66540  0.49930  1.0000 0.1417257238
H   H51       1.0  0.05100  0.55030  0.88490  1.0000 0.1417257238
H   H52       1.0  0.66540  0.16610  0.11510  1.0000 0.1417257238
H   H53       1.0  0.83390  0.94900  0.49930  1.0000 0.1417257238
H   H54       1.0  0.44970  0.33460  0.50070  1.0000 0.1417257238
H   H55       1.0  0.94900  0.44970  0.11510  1.0000 0.1417257238
H   H56       1.0  0.33460  0.83390  0.88490  1.0000 0.1417257238
H   H57       1.0  0.30540  0.05890  0.50450  1.0000 0.1195765038
H   H58       1.0  0.55440  0.80090  0.49550  1.0000 0.1195765038
H   H59       1.0  0.05890  0.55440  0.75350  1.0000 0.1195765038
H   H60       1.0  0.80090  0.30540  0.24650  1.0000 0.1195765038
H   H61       1.0  0.69460  0.94110  0.49550  1.0000 0.1195765038
H   H62       1.0  0.44560  0.19910  0.50450  1.0000 0.1195765038
H   H63       1.0  0.94110  0.44560  0.24650  1.0000 0.1195765038
H   H64       1.0  0.19910  0.69460  0.75350  1.0000 0.1195765038
H   H65       1.0  0.34610  0.08740  0.60670  1.0000 0.1195765038
H   H66       1.0  0.48070  0.73940  0.39330  1.0000 0.1195765038
H   H67       1.0  0.08740  0.48070  0.74130  1.0000 0.1195765038
H   H68       1.0  0.73940  0.34610  0.25870  1.0000 0.1195765038
H   H69       1.0  0.65390  0.91260  0.39330  1.0000 0.1195765038
H   H70       1.0  0.51930  0.26060  0.60670  1.0000 0.1195765038
H   H71       1.0  0.91260  0.51930  0.25870  1.0000 0.1195765038
H   H72       1.0  0.26060  0.65390  0.74130  1.0000 0.1195765038
H   H73       1.0  0.31740  0.02070  0.56070  1.0000 0.1195765038
H   H74       1.0  0.46000  0.75670  0.43930  1.0000 0.1195765038
H   H75       1.0  0.02070  0.46000  0.70330  1.0000 0.1195765038
H   H76       1.0  0.75670  0.31740  0.29670  1.0000 0.1195765038
H   H77       1.0  0.68260  0.97930  0.43930  1.0000 0.1195765038
H   H78       1.0  0.54000  0.24330  0.56070  1.0000 0.1195765038
H   H79       1.0  0.97930  0.54000  0.29670  1.0000 0.1195765038
H   H80       1.0  0.24330  0.68260  0.70330  1.0000 0.1195765038
H   H81       1.0  0.18760  0.01870  0.86150  1.0000 0.1417257238
H   H82       1.0  0.15720  0.32610  0.13850  1.0000 0.1417257238
H   H83       1.0  0.01870  0.15720  0.83110  1.0000 0.1417257238
H   H84       1.0  0.32610  0.18760  0.16890  1.0000 0.1417257238
H   H85       1.0  0.81240  0.98130  0.13850  1.0000 0.1417257238
H   H86       1.0  0.84280  0.67390  0.86150  1.0000 0.1417257238
H   H87       1.0  0.98130  0.84280  0.16890  1.0000 0.1417257238
H   H88       1.0  0.67390  0.81240  0.83110  1.0000 0.1417257238
H   H89       1.0  0.32920  0.04560  0.87980  1.0000 0.1417257238
H   H90       1.0  0.16580  0.44940  0.12020  1.0000 0.1417257238
H   H91       1.0  0.04560  0.16580  0.71640  1.0000 0.1417257238
H   H92       1.0  0.44940  0.32920  0.28360  1.0000 0.1417257238
H   H93       1.0  0.67080  0.95440  0.12020  1.0000 0.1417257238
H   H94       1.0  0.83420  0.55060  0.87980  1.0000 0.1417257238
H   H95       1.0  0.95440  0.83420  0.28360  1.0000 0.1417257238
H   H96       1.0  0.55060  0.67080  0.71640  1.0000 0.1417257238
H   H97       1.0  0.18790  0.02640  0.72910  1.0000 0.1195765038
H   H98       1.0  0.29730  0.45880  0.27090  1.0000 0.1195765038
H   H99       1.0  0.02640  0.29730  0.83850  1.0000 0.1195765038
H   H100      1.0  0.45880  0.18790  0.16150  1.0000 0.1195765038
H   H101      1.0  0.81210  0.97360  0.27090  1.0000 0.1195765038
H   H102      1.0  0.70270  0.54120  0.72910  1.0000 0.1195765038
H   H103      1.0  0.97360  0.70270  0.16150  1.0000 0.1195765038
H   H104      1.0  0.54120  0.81210  0.83850  1.0000 0.1195765038
H   H105      1.0  0.37220  0.03660  0.77920  1.0000 0.1281982949
H   H106      1.0  0.25740  0.59300  0.22080  1.0000 0.1281982949
H   H107      1.0  0.03660  0.25740  0.66440  1.0000 0.1281982949
H   H108      1.0  0.59300  0.37220  0.33560  1.0000 0.1281982949
H   H109      1.0  0.62780  0.96340  0.22080  1.0000 0.1281982949
H   H110      1.0  0.74260  0.40700  0.77920  1.0000 0.1281982949
H   H111      1.0  0.96340  0.74260  0.33560  1.0000 0.1281982949
H   H112      1.0  0.40700  0.62780  0.66440  1.0000 0.1281982949
H   H113      1.0  0.26110  0.07990  0.73760  1.0000 0.1195765038
H   H114      1.0  0.34230  0.52350  0.26240  1.0000 0.1195765038
H   H115      1.0  0.07990  0.34230  0.81880  1.0000 0.1195765038
H   H116      1.0  0.52350  0.26110  0.18120  1.0000 0.1195765038
H   H117      1.0  0.73890  0.92010  0.26240  1.0000 0.1195765038
H   H118      1.0  0.65770  0.47650  0.73760  1.0000 0.1195765038
H   H119      1.0  0.92010  0.65770  0.18120  1.0000 0.1195765038
H   H120      1.0  0.47650  0.73890  0.81880  1.0000 0.1195765038
H   H121      1.0  0.23990  0.01300  0.69410  1.0000 0.1126195784
H   H122      1.0  0.31890  0.54580  0.30590  1.0000 0.1126195784
H   H123      1.0  0.01300  0.31890  0.77310  1.0000 0.1126195784
H   H124      1.0  0.54580  0.23990  0.22690  1.0000 0.1126195784
H   H125      1.0  0.76010  0.98700  0.30590  1.0000 0.1126195784
H   H126      1.0  0.68110  0.45420  0.69410  1.0000 0.1126195784
H   H127      1.0  0.98700  0.68110  0.22690  1.0000 0.1126195784
H   H128      1.0  0.45420  0.76010  0.77310  1.0000 0.1126195784
H   H129      1.0  0.40980  0.04780  0.67020  1.0000 0.1281982949
H   H130      1.0  0.37760  0.73960  0.32980  1.0000 0.1281982949
H   H131      1.0  0.04780  0.37760  0.63800  1.0000 0.1281982949
H   H132      1.0  0.73960  0.40980  0.36200  1.0000 0.1281982949
H   H133      1.0  0.59020  0.95220  0.32980  1.0000 0.1281982949
H   H134      1.0  0.62240  0.26040  0.67020  1.0000 0.1281982949
H   H135      1.0  0.95220  0.62240  0.36200  1.0000 0.1281982949
H   H136      1.0  0.26040  0.59020  0.63800  1.0000 0.1281982949
H   H137      1.0  0.26150  0.05040  0.63850  1.0000 0.1281982949
H   H138      1.0  0.41190  0.62300  0.36150  1.0000 0.1281982949
H   H139      1.0  0.05040  0.41190  0.78890  1.0000 0.1281982949
H   H140      1.0  0.62300  0.26150  0.21110  1.0000 0.1281982949
H   H141      1.0  0.73850  0.94960  0.36150  1.0000 0.1281982949
H   H142      1.0  0.58810  0.37700  0.63850  1.0000 0.1281982949
H   H143      1.0  0.94960  0.58810  0.21110  1.0000 0.1281982949
H   H144      1.0  0.37700  0.73850  0.78890  1.0000 0.1281982949
C   C1        1.0  0.63360  0.00050  0.88690  1.0000 0.6069834861
C   C2        1.0  0.11360  0.74670  0.11310  1.0000 0.6069834861
C   C3        1.0  0.00050  0.11360  0.36690  1.0000 0.6069834861
C   C4        1.0  0.74670  0.63360  0.63310  1.0000 0.6069834861
C   C5        1.0  0.36640  0.99950  0.11310  1.0000 0.6069834861
C   C6        1.0  0.88640  0.25330  0.88690  1.0000 0.6069834861
C   C7        1.0  0.99950  0.88640  0.63310  1.0000 0.6069834861
C   C8        1.0  0.25330  0.36640  0.36690  1.0000 0.6069834861
C   C9        1.0  0.60720  0.00690  0.83270  1.0000 -0.0236996031
C   C10       1.0  0.17420  0.77450  0.16730  1.0000 -0.0236996031
C   C11       1.0  0.00690  0.17420  0.39970  1.0000 -0.0236996031
C   C12       1.0  0.77450  0.60720  0.60030  1.0000 -0.0236996031
C   C13       1.0  0.39280  0.99310  0.16730  1.0000 -0.0236996031
C   C14       1.0  0.82580  0.22550  0.83270  1.0000 -0.0236996031
C   C15       1.0  0.99310  0.82580  0.60030  1.0000 -0.0236996031
C   C16       1.0  0.22550  0.39280  0.39970  1.0000 -0.0236996031
C   C17       1.0  0.63330  0.00280  0.80270  1.0000 -0.1000802945
C   C18       1.0  0.20010  0.83060  0.19730  1.0000 -0.1000802945
C   C19       1.0  0.00280  0.20010  0.36950  1.0000 -0.1000802945
C   C20       1.0  0.83060  0.63330  0.63050  1.0000 -0.1000802945
C   C21       1.0  0.36670  0.99720  0.19730  1.0000 -0.1000802945
C   C22       1.0  0.79990  0.16940  0.80270  1.0000 -0.1000802945
C   C23       1.0  0.99720  0.79990  0.63050  1.0000 -0.1000802945
C   C24       1.0  0.16940  0.36670  0.36950  1.0000 -0.1000802945
C   C25       1.0  0.60640  0.00320  0.74760  1.0000 -0.0479292697
C   C26       1.0  0.25560  0.85880  0.25240  1.0000 -0.0479292697
C   C27       1.0  0.00320  0.25560  0.39680  1.0000 -0.0479292697
C   C28       1.0  0.85880  0.60640  0.60320  1.0000 -0.0479292697
C   C29       1.0  0.39360  0.99680  0.25240  1.0000 -0.0479292697
C   C30       1.0  0.74440  0.14120  0.74760  1.0000 -0.0479292697
C   C31       1.0  0.99680  0.74440  0.60320  1.0000 -0.0479292697
C   C32       1.0  0.14120  0.39360  0.39680  1.0000 -0.0479292697
C   C33       1.0  0.63230  0.99340  0.71330  1.0000 0.5981336381
C   C34       1.0  0.28010  0.91900  0.28670  1.0000 0.5981336381
C   C35       1.0  0.99340  0.28010  0.36110  1.0000 0.5981336381
C   C36       1.0  0.91900  0.63230  0.63890  1.0000 0.5981336381
C   C37       1.0  0.36770  0.00660  0.28670  1.0000 0.5981336381
C   C38       1.0  0.71990  0.08100  0.71330  1.0000 0.5981336381
C   C39       1.0  0.00660  0.71990  0.63890  1.0000 0.5981336381
C   C40       1.0  0.08100  0.36770  0.36110  1.0000 0.5981336381
C   C41       1.0  0.55500  0.00910  0.72470  1.0000 -0.1819827002
C   C42       1.0  0.28440  0.83030  0.27530  1.0000 -0.1819827002
C   C43       1.0  0.00910  0.28440  0.45410  1.0000 -0.1819827002
C   C44       1.0  0.83030  0.55500  0.54590  1.0000 -0.1819827002
C   C45       1.0  0.44500  0.99090  0.27530  1.0000 -0.1819827002
C   C46       1.0  0.71560  0.16970  0.72470  1.0000 -0.1819827002
C   C47       1.0  0.99090  0.71560  0.54590  1.0000 -0.1819827002
C   C48       1.0  0.16970  0.44500  0.45410  1.0000 -0.1819827002
C   C49       1.0  0.52950  0.01270  0.75620  1.0000 0.2677736054
C   C50       1.0  0.25650  0.77330  0.24380  1.0000 0.2677736054
C   C51       1.0  0.01270  0.25650  0.48320  1.0000 0.2677736054
C   C52       1.0  0.77330  0.52950  0.51680  1.0000 0.2677736054
C   C53       1.0  0.47050  0.98730  0.24380  1.0000 0.2677736054
C   C54       1.0  0.74350  0.22670  0.75620  1.0000 0.2677736054
C   C55       1.0  0.98730  0.74350  0.51680  1.0000 0.2677736054
C   C56       1.0  0.22670  0.47050  0.48320  1.0000 0.2677736054
C   C57       1.0  0.55820  0.01750  0.81470  1.0000 -0.2282413938
C   C58       1.0  0.20280  0.74350  0.18530  1.0000 -0.2282413938
C   C59       1.0  0.01750  0.20280  0.45930  1.0000 -0.2282413938
C   C60       1.0  0.74350  0.55820  0.54070  1.0000 -0.2282413938
C   C61       1.0  0.44180  0.98250  0.18530  1.0000 -0.2282413938
C   C62       1.0  0.79720  0.25650  0.81470  1.0000 -0.2282413938
C   C63       1.0  0.98250  0.79720  0.54070  1.0000 -0.2282413938
C   C64       1.0  0.25650  0.44180  0.45930  1.0000 -0.2282413938
C   C65       1.0  0.45390  0.03460  0.76490  1.0000 -0.090178707
C   C66       1.0  0.26970  0.68900  0.23510  1.0000 -0.090178707
C   C67       1.0  0.03460  0.26970  0.58070  1.0000 -0.090178707
C   C68       1.0  0.68900  0.45390  0.41930  1.0000 -0.090178707
C   C69       1.0  0.54610  0.96540  0.23510  1.0000 -0.090178707
C   C70       1.0  0.73030  0.31100  0.76490  1.0000 -0.090178707
C   C71       1.0  0.96540  0.73030  0.41930  1.0000 -0.090178707
C   C72       1.0  0.31100  0.54610  0.58070  1.0000 -0.090178707
C   C73       1.0  0.26250  0.03690  0.39020  1.0000 0.5918442379
C   C74       1.0  0.64670  0.87230  0.60980  1.0000 0.5918442379
C   C75       1.0  0.03690  0.64670  0.77440  1.0000 0.5918442379
C   C76       1.0  0.87230  0.26250  0.22560  1.0000 0.5918442379
C   C77       1.0  0.73750  0.96310  0.60980  1.0000 0.5918442379
C   C78       1.0  0.35330  0.12770  0.39020  1.0000 0.5918442379
C   C79       1.0  0.96310  0.35330  0.22560  1.0000 0.5918442379
C   C80       1.0  0.12770  0.73750  0.77440  1.0000 0.5918442379
C   C81       1.0  0.23590  0.04450  0.42220  1.0000 -0.0479292697
C   C82       1.0  0.62230  0.81370  0.57780  1.0000 -0.0479292697
C   C83       1.0  0.04450  0.62230  0.80860  1.0000 -0.0479292697
C   C84       1.0  0.81370  0.23590  0.19140  1.0000 -0.0479292697
C   C85       1.0  0.76410  0.95550  0.57780  1.0000 -0.0479292697
C   C86       1.0  0.37770  0.18630  0.42220  1.0000 -0.0479292697
C   C87       1.0  0.95550  0.37770  0.19140  1.0000 -0.0479292697
C   C88       1.0  0.18630  0.76410  0.80860  1.0000 -0.0479292697
C   C89       1.0  0.18070  0.03990  0.39340  1.0000 -0.1000802945
C   C90       1.0  0.64650  0.78730  0.60660  1.0000 -0.1000802945
C   C91       1.0  0.03990  0.64650  0.85920  1.0000 -0.1000802945
C   C92       1.0  0.78730  0.18070  0.14080  1.0000 -0.1000802945
C   C93       1.0  0.81930  0.96010  0.60660  1.0000 -0.1000802945
C   C94       1.0  0.35350  0.21270  0.39340  1.0000 -0.1000802945
C   C95       1.0  0.96010  0.35350  0.14080  1.0000 -0.1000802945
C   C96       1.0  0.21270  0.81930  0.85920  1.0000 -0.1000802945
C   C97       1.0  0.15450  0.04130  0.42160  1.0000 -0.0283359337
C   C98       1.0  0.61970  0.73290  0.57840  1.0000 -0.0283359337
C   C99       1.0  0.04130  0.61970  0.88680  1.0000 -0.0283359337
C   C100      1.0  0.73290  0.15450  0.11320  1.0000 -0.0283359337
C   C101      1.0  0.84550  0.95870  0.57840  1.0000 -0.0283359337
C   C102      1.0  0.38030  0.26710  0.42160  1.0000 -0.0283359337
C   C103      1.0  0.95870  0.38030  0.11320  1.0000 -0.0283359337
C   C104      1.0  0.26710  0.84550  0.88680  1.0000 -0.0283359337
C   C105      1.0  0.09450  0.03400  0.38850  1.0000 0.5981336381
C   C106      1.0  0.64550  0.70600  0.61150  1.0000 0.5981336381
C   C107      1.0  0.03400  0.64550  0.93950  1.0000 0.5981336381
C   C108      1.0  0.70600  0.09450  0.06050  1.0000 0.5981336381
C   C109      1.0  0.90550  0.96600  0.61150  1.0000 0.5981336381
C   C110      1.0  0.35450  0.29400  0.38850  1.0000 0.5981336381
C   C111      1.0  0.96600  0.35450  0.06050  1.0000 0.5981336381
C   C112      1.0  0.29400  0.90550  0.93950  1.0000 0.5981336381
C   C113      1.0  0.18400  0.04920  0.48080  1.0000 -0.1975177252
C   C114      1.0  0.56840  0.70320  0.51920  1.0000 -0.1975177252
C   C115      1.0  0.04920  0.56840  0.86520  1.0000 -0.1975177252
C   C116      1.0  0.70320  0.18400  0.13480  1.0000 -0.1975177252
C   C117      1.0  0.81600  0.95080  0.51920  1.0000 -0.1975177252
C   C118      1.0  0.43160  0.29680  0.48080  1.0000 -0.1975177252
C   C119      1.0  0.95080  0.43160  0.13480  1.0000 -0.1975177252
C   C120      1.0  0.29680  0.81600  0.86520  1.0000 -0.1975177252
C   C121      1.0  0.24020  0.05460  0.51060  1.0000 0.2485391624
C   C122      1.0  0.54400  0.72960  0.48940  1.0000 0.2485391624
C   C123      1.0  0.05460  0.54400  0.81440  1.0000 0.2485391624
C   C124      1.0  0.72960  0.24020  0.18560  1.0000 0.2485391624
C   C125      1.0  0.75980  0.94540  0.48940  1.0000 0.2485391624
C   C126      1.0  0.45600  0.27040  0.51060  1.0000 0.2485391624
C   C127      1.0  0.94540  0.45600  0.18560  1.0000 0.2485391624
C   C128      1.0  0.27040  0.75980  0.81440  1.0000 0.2485391624
C   C129      1.0  0.26650  0.05350  0.48280  1.0000 -0.2282413938
C   C130      1.0  0.57070  0.78370  0.51720  1.0000 -0.2282413938
C   C131      1.0  0.05350  0.57070  0.78700  1.0000 -0.2282413938
C   C132      1.0  0.78370  0.26650  0.21300  1.0000 -0.2282413938
C   C133      1.0  0.73350  0.94650  0.51720  1.0000 -0.2282413938
C   C134      1.0  0.42930  0.21630  0.48280  1.0000 -0.2282413938
C   C135      1.0  0.94650  0.42930  0.21300  1.0000 -0.2282413938
C   C136      1.0  0.21630  0.73350  0.78700  1.0000 -0.2282413938
C   C137      1.0  0.31870  0.05630  0.59380  1.0000 -0.090178707
C   C138      1.0  0.46250  0.72490  0.40620  1.0000 -0.090178707
C   C139      1.0  0.05630  0.46250  0.73760  1.0000 -0.090178707
C   C140      1.0  0.72490  0.31870  0.26240  1.0000 -0.090178707
C   C141      1.0  0.68130  0.94370  0.40620  1.0000 -0.090178707
C   C142      1.0  0.53750  0.27510  0.59380  1.0000 -0.090178707
C   C143      1.0  0.94370  0.53750  0.26240  1.0000 -0.090178707
C   C144      1.0  0.27510  0.68130  0.73760  1.0000 -0.090178707
C   C145      1.0  0.11800  0.01070  0.75370  1.0000 0.5918442379
C   C146      1.0  0.25700  0.36430  0.24630  1.0000 0.5918442379
C   C147      1.0  0.01070  0.25700  0.89270  1.0000 0.5918442379
C   C148      1.0  0.36430  0.11800  0.10730  1.0000 0.5918442379
C   C149      1.0  0.88200  0.98930  0.24630  1.0000 0.5918442379
C   C150      1.0  0.74300  0.63570  0.75370  1.0000 0.5918442379
C   C151      1.0  0.98930  0.74300  0.10730  1.0000 0.5918442379
C   C152      1.0  0.63570  0.88200  0.89270  1.0000 0.5918442379
C   C153      1.0  0.17800  0.01860  0.78920  1.0000 -0.0283359337
C   C154      1.0  0.22940  0.38880  0.21080  1.0000 -0.0283359337
C   C155      1.0  0.01860  0.22940  0.84060  1.0000 -0.0283359337
C   C156      1.0  0.38880  0.17800  0.15940  1.0000 -0.0283359337
C   C157      1.0  0.82200  0.98140  0.21080  1.0000 -0.0283359337
C   C158      1.0  0.77060  0.61120  0.78920  1.0000 -0.0283359337
C   C159      1.0  0.98140  0.77060  0.15940  1.0000 -0.0283359337
C   C160      1.0  0.61120  0.82200  0.84060  1.0000 -0.0283359337
C   C161      1.0  0.20680  0.02050  0.84410  1.0000 -0.1117500229
C   C162      1.0  0.17640  0.36270  0.15590  1.0000 -0.1117500229
C   C163      1.0  0.02050  0.17640  0.81370  1.0000 -0.1117500229
C   C164      1.0  0.36270  0.20680  0.18630  1.0000 -0.1117500229
C   C165      1.0  0.79320  0.97950  0.15590  1.0000 -0.1117500229
C   C166      1.0  0.82360  0.63730  0.84410  1.0000 -0.1117500229
C   C167      1.0  0.97950  0.82360  0.18630  1.0000 -0.1117500229
C   C168      1.0  0.63730  0.79320  0.81370  1.0000 -0.1117500229
C   C169      1.0  0.26070  0.02490  0.87480  1.0000 -0.0283359337
C   C170      1.0  0.15010  0.38590  0.12520  1.0000 -0.0283359337
C   C171      1.0  0.02490  0.15010  0.76420  1.0000 -0.0283359337
C   C172      1.0  0.38590  0.26070  0.23580  1.0000 -0.0283359337
C   C173      1.0  0.73930  0.97510  0.12520  1.0000 -0.0283359337
C   C174      1.0  0.84990  0.61410  0.87480  1.0000 -0.0236996031
C   C175      1.0  0.97510  0.84990  0.23580  1.0000 -0.0236996031
C   C176      1.0  0.61410  0.73930  0.76420  1.0000 -0.0236996031
C   C177      1.0  0.29190  0.02560  0.93430  1.0000 0.6069834861
C   C178      1.0  0.09130  0.35760  0.06570  1.0000 0.6069834861
C   C179      1.0  0.02560  0.09130  0.73370  1.0000 0.6069834861
C   C180      1.0  0.35760  0.29190  0.26630  1.0000 0.6069834861
C   C181      1.0  0.70810  0.97440  0.06570  1.0000 0.6069834861
C   C182      1.0  0.90870  0.64240  0.93430  1.0000 0.6069834861
C   C183      1.0  0.97440  0.90870  0.26630  1.0000 0.6069834861
C   C184      1.0  0.64240  0.70810  0.73370  1.0000 0.6069834861
C   C185      1.0  0.28980  0.03670  0.85530  1.0000 -0.1975177252
C   C186      1.0  0.18140  0.43450  0.14470  1.0000 -0.1975177252
C   C187      1.0  0.03670  0.18140  0.74690  1.0000 -0.1975177252
C   C188      1.0  0.43450  0.28980  0.25310  1.0000 -0.1975177252
C   C189      1.0  0.71020  0.96330  0.14470  1.0000 -0.1975177252
C   C190      1.0  0.81860  0.56550  0.85530  1.0000 -0.1975177252
C   C191      1.0  0.96330  0.81860  0.25310  1.0000 -0.1975177252
C   C192      1.0  0.56550  0.71020  0.74690  1.0000 -0.1975177252
C   C193      1.0  0.26280  0.03610  0.80070  1.0000 0.2380424733
C   C194      1.0  0.23540  0.46210  0.19930  1.0000 0.2380424733
C   C195      1.0  0.03610  0.23540  0.77330  1.0000 0.2380424733
C   C196      1.0  0.46210  0.26280  0.22670  1.0000 0.2380424733
C   C197      1.0  0.73720  0.96390  0.19930  1.0000 0.2380424733
C   C198      1.0  0.76460  0.53790  0.80070  1.0000 0.2380424733
C   C199      1.0  0.96390  0.76460  0.22670  1.0000 0.2380424733
C   C200      1.0  0.53790  0.73720  0.77330  1.0000 0.2380424733
C   C201      1.0  0.20680  0.02700  0.76700  1.0000 -0.2213658081
C   C202      1.0  0.26000  0.43980  0.23300  1.0000 -0.2213658081
C   C203      1.0  0.02700  0.26000  0.82020  1.0000 -0.2213658081
C   C204      1.0  0.43980  0.20680  0.17980  1.0000 -0.2213658081
C   C205      1.0  0.79320  0.97300  0.23300  1.0000 -0.2213658081
C   C206      1.0  0.74000  0.56020  0.76700  1.0000 -0.2213658081
C   C207      1.0  0.97300  0.74000  0.17980  1.0000 -0.2213658081
C   C208      1.0  0.56020  0.79320  0.82020  1.0000 -0.2213658081
C   C209      1.0  0.31290  0.04680  0.71170  1.0000 0.0407242302
C   C210      1.0  0.33510  0.60120  0.28830  1.0000 0.0347609441
C   C211      1.0  0.04680  0.33510  0.73390  1.0000 0.0347609441
C   C212      1.0  0.60120  0.31290  0.26610  1.0000 0.0347609441
C   C213      1.0  0.68710  0.95320  0.28830  1.0000 0.0347609441
C   C214      1.0  0.66490  0.39880  0.71170  1.0000 0.0407242302
C   C215      1.0  0.95320  0.66490  0.26610  1.0000 0.0347609441
C   C216      1.0  0.39880  0.68710  0.73390  1.0000 0.0407242302
C   C217      1.0  0.36310  0.04060  0.74570  1.0000 -0.1923215836
C   C218      1.0  0.29490  0.61740  0.25430  1.0000 -0.1923215836
C   C219      1.0  0.04060  0.29490  0.67750  1.0000 -0.1923215836
C   C220      1.0  0.61740  0.36310  0.32250  1.0000 -0.1923215836
C   C221      1.0  0.63690  0.95940  0.25430  1.0000 -0.1923215836
C   C222      1.0  0.70510  0.38260  0.74570  1.0000 -0.1923215836
C   C223      1.0  0.95940  0.70510  0.32250  1.0000 -0.1923215836
C   C224      1.0  0.38260  0.63690  0.67750  1.0000 -0.1923215836
C   C225      1.0  0.27340  0.04690  0.73030  1.0000 -0.090178707
C   C226      1.0  0.31660  0.54310  0.26970  1.0000 -0.084301195
C   C227      1.0  0.04690  0.31660  0.77350  1.0000 -0.090178707
C   C228      1.0  0.54310  0.27340  0.22650  1.0000 -0.084301195
C   C229      1.0  0.72660  0.95310  0.26970  1.0000 -0.084301195
C   C230      1.0  0.68340  0.45690  0.73030  1.0000 -0.084301195
C   C231      1.0  0.95310  0.68340  0.22650  1.0000 -0.084301195
C   C232      1.0  0.45690  0.72660  0.77350  1.0000 -0.090178707
C   C233      1.0  0.38480  0.04830  0.68170  1.0000 -0.2135955472
C   C234      1.0  0.36660  0.70310  0.31830  1.0000 -0.2135955472
C   C235      1.0  0.04830  0.36660  0.66350  1.0000 -0.2135955472
C   C236      1.0  0.70310  0.38480  0.33650  1.0000 -0.2135955472
C   C237      1.0  0.61520  0.95170  0.31830  1.0000 -0.2135955472
C   C238      1.0  0.63340  0.29690  0.68170  1.0000 -0.2135955472
C   C239      1.0  0.95170  0.63340  0.33650  1.0000 -0.2135955472
C   C240      1.0  0.29690  0.61520  0.66350  1.0000 -0.2135955472
C   C241      1.0  0.33550  0.05650  0.65160  1.0000 0.0461156339
C   C242      1.0  0.40490  0.68390  0.34840  1.0000 0.0461156339
C   C243      1.0  0.05650  0.40490  0.72100  1.0000 0.0461156339
C   C244      1.0  0.68390  0.33550  0.27900  1.0000 0.0461156339
C   C245      1.0  0.66450  0.94350  0.34840  1.0000 0.0461156339
C   C246      1.0  0.59510  0.31610  0.65160  1.0000 0.0461156339
C   C247      1.0  0.94350  0.59510  0.27900  1.0000 0.0461156339
C   C248      1.0  0.31610  0.66450  0.72100  1.0000 0.0461156339
C   C249      1.0  0.29830  0.05110  0.66420  1.0000 -0.1923215836
C   C250      1.0  0.38690  0.63410  0.33580  1.0000 -0.1923215836
C   C251      1.0  0.05110  0.38690  0.75280  1.0000 -0.1923215836
C   C252      1.0  0.63410  0.29830  0.24720  1.0000 -0.1923215836
C   C253      1.0  0.70170  0.94890  0.33580  1.0000 -0.1923215836
C   C254      1.0  0.61310  0.36590  0.66420  1.0000 -0.1923215836
C   C255      1.0  0.94890  0.61310  0.24720  1.0000 -0.1923215836
C   C256      1.0  0.36590  0.70170  0.75280  1.0000 -0.1923215836
C   C257      1.0  0.39810  0.04020  0.72970  1.0000 0.0461156339
C   C258      1.0  0.31050  0.66840  0.27030  1.0000 0.0407242302
C   C259      1.0  0.04020  0.31050  0.64210  1.0000 0.0461156339
C   C260      1.0  0.66840  0.39810  0.35790  1.0000 0.0407242302
C   C261      1.0  0.60190  0.95980  0.27030  1.0000 0.0407242302
C   C262      1.0  0.68950  0.33160  0.72970  1.0000 0.0461156339
C   C263      1.0  0.95980  0.68950  0.35790  1.0000 0.0407242302
C   C264      1.0  0.33160  0.60190  0.64210  1.0000 0.0461156339
O   O1        1.0  0.68058  0.99193  0.73801  1.0000 -0.5306835552
O   O2        1.0  0.25392  0.94257  0.26199  1.0000 -0.5306835552
O   O3        1.0  0.99193  0.25392  0.31135  1.0000 -0.5306835552
O   O4        1.0  0.94257  0.68058  0.68865  1.0000 -0.5306835552
O   O5        1.0  0.31942  0.00807  0.26199  1.0000 -0.5306835552
O   O6        1.0  0.74608  0.05743  0.73801  1.0000 -0.5306835552
O   O7        1.0  0.00807  0.74608  0.68865  1.0000 -0.5306835552
O   O8        1.0  0.05743  0.31942  0.31135  1.0000 -0.5306835552
O   O9        1.0  0.60328  0.99047  0.66093  1.0000 -0.5497124423
O   O10       1.0  0.32954  0.94235  0.33907  1.0000 -0.5497124423
O   O11       1.0  0.99047  0.32954  0.38719  1.0000 -0.5497124423
O   O12       1.0  0.94235  0.60328  0.61281  1.0000 -0.5497124423
O   O13       1.0  0.39672  0.00953  0.33907  1.0000 -0.5497124423
O   O14       1.0  0.67046  0.05765  0.66093  1.0000 -0.5497124423
O   O15       1.0  0.00953  0.67046  0.61281  1.0000 -0.5497124423
O   O16       1.0  0.05765  0.39672  0.38719  1.0000 -0.5497124423
O   O17       1.0  0.68137  0.99640  0.90639  1.0000 -0.5217250776
O   O18       1.0  0.09001  0.77498  0.09361  1.0000 -0.5217250776
O   O19       1.0  0.99640  0.09001  0.31503  1.0000 -0.5217250776
O   O20       1.0  0.77498  0.68137  0.68497  1.0000 -0.5217250776
O   O21       1.0  0.31863  0.00360  0.09361  1.0000 -0.5217250776
O   O22       1.0  0.90999  0.22502  0.90639  1.0000 -0.5217250776
O   O23       1.0  0.00360  0.90999  0.68497  1.0000 -0.5217250776
O   O24       1.0  0.22502  0.31863  0.31503  1.0000 -0.5217250776
O   O25       1.0  0.60553  0.99940  0.90787  1.0000 -0.5497124423
O   O26       1.0  0.09153  0.69766  0.09213  1.0000 -0.5497124423
O   O27       1.0  0.99940  0.09153  0.39387  1.0000 -0.5497124423
O   O28       1.0  0.69766  0.60553  0.60613  1.0000 -0.5497124423
O   O29       1.0  0.39447  0.00060  0.09213  1.0000 -0.5497124423
O   O30       1.0  0.90847  0.30234  0.90787  1.0000 -0.5497124423
O   O31       1.0  0.00060  0.90847  0.60613  1.0000 -0.5497124423
O   O32       1.0  0.30234  0.39447  0.39387  1.0000 -0.5497124423
O   O33       1.0  0.48010  0.02500  0.73290  1.0000 -0.1923215836
O   O34       1.0  0.29210  0.74720  0.26710  1.0000 -0.1923215836
O   O35       1.0  0.02500  0.29210  0.54490  1.0000 -0.1923215836
O   O36       1.0  0.74720  0.48010  0.45510  1.0000 -0.1923215836
O   O37       1.0  0.51990  0.97500  0.26710  1.0000 -0.1923215836
O   O38       1.0  0.70790  0.25280  0.73290  1.0000 -0.1923215836
O   O39       1.0  0.97500  0.70790  0.45510  1.0000 -0.1923215836
O   O40       1.0  0.25280  0.51990  0.54490  1.0000 -0.1923215836
O   O41       1.0  0.06994  0.02916  0.33628  1.0000 -0.5367289786
O   O42       1.0  0.69288  0.73366  0.66372  1.0000 -0.5367289786
O   O43       1.0  0.02916  0.69288  0.95922  1.0000 -0.5367289786
O   O44       1.0  0.73366  0.06994  0.04078  1.0000 -0.5367289786
O   O45       1.0  0.93006  0.97084  0.66372  1.0000 -0.5367289786
O   O46       1.0  0.30712  0.26634  0.33628  1.0000 -0.5367289786
O   O47       1.0  0.97084  0.30712  0.04078  1.0000 -0.5367289786
O   O48       1.0  0.26634  0.93006  0.95922  1.0000 -0.5367289786
O   O49       1.0  0.06944  0.02782  0.41204  1.0000 -0.5592159161
O   O50       1.0  0.61578  0.65740  0.58796  1.0000 -0.5592159161
O   O51       1.0  0.02782  0.61578  0.95838  1.0000 -0.5592159161
O   O52       1.0  0.65740  0.06944  0.04162  1.0000 -0.5592159161
O   O53       1.0  0.93056  0.97218  0.58796  1.0000 -0.5592159161
O   O54       1.0  0.38422  0.34260  0.41204  1.0000 -0.5592159161
O   O55       1.0  0.97218  0.38422  0.04162  1.0000 -0.5592159161
O   O56       1.0  0.34260  0.93056  0.95838  1.0000 -0.5592159161
O   O57       1.0  0.23595  0.03388  0.33851  1.0000 -0.5217250776
O   O58       1.0  0.69537  0.89744  0.66149  1.0000 -0.5217250776
O   O59       1.0  0.03388  0.69537  0.79793  1.0000 -0.5217250776
O   O60       1.0  0.89744  0.23595  0.20207  1.0000 -0.5217250776
O   O61       1.0  0.76405  0.96612  0.66149  1.0000 -0.5217250776
O   O62       1.0  0.30463  0.10256  0.33851  1.0000 -0.5217250776
O   O63       1.0  0.96612  0.30463  0.20207  1.0000 -0.5217250776
O   O64       1.0  0.10256  0.76405  0.79793  1.0000 -0.5217250776
O   O65       1.0  0.31327  0.03793  0.41690  1.0000 -0.5592159161
O   O66       1.0  0.62103  0.89637  0.58310  1.0000 -0.5592159161
O   O67       1.0  0.03793  0.62103  0.72466  1.0000 -0.5592159161
O   O68       1.0  0.89637  0.31327  0.27534  1.0000 -0.5592159161
O   O69       1.0  0.68673  0.96207  0.58310  1.0000 -0.5592159161
O   O70       1.0  0.37897  0.10363  0.41690  1.0000 -0.5592159161
O   O71       1.0  0.96207  0.37897  0.27534  1.0000 -0.5592159161
O   O72       1.0  0.10363  0.68673  0.72466  1.0000 -0.5592159161
O   O73       1.0  0.26540  0.06240  0.56880  1.0000 -0.1923215836
O   O74       1.0  0.49360  0.69660  0.43120  1.0000 -0.1923215836
O   O75       1.0  0.06240  0.49360  0.79700  1.0000 -0.1923215836
O   O76       1.0  0.69660  0.26540  0.20300  1.0000 -0.1923215836
O   O77       1.0  0.73460  0.93760  0.43120  1.0000 -0.1923215836
O   O78       1.0  0.50640  0.30340  0.56880  1.0000 -0.1923215836
O   O79       1.0  0.93760  0.50640  0.20300  1.0000 -0.1923215836
O   O80       1.0  0.30340  0.73460  0.79700  1.0000 -0.1923215836
O   O81       1.0  0.09429  0.00536  0.70209  1.0000 -0.5217250776
O   O82       1.0  0.30327  0.39220  0.29791  1.0000 -0.5217250776
O   O83       1.0  0.00536  0.30327  0.91107  1.0000 -0.5217250776
O   O84       1.0  0.39220  0.09429  0.08893  1.0000 -0.5217250776
O   O85       1.0  0.90571  0.99464  0.29791  1.0000 -0.5217250776
O   O86       1.0  0.69673  0.60780  0.70209  1.0000 -0.5217250776
O   O87       1.0  0.99464  0.69673  0.08893  1.0000 -0.5217250776
O   O88       1.0  0.60780  0.90571  0.91107  1.0000 -0.5217250776
O   O89       1.0  0.09363  0.00726  0.77957  1.0000 -0.5592159161
O   O90       1.0  0.22769  0.31406  0.22043  1.0000 -0.5592159161
O   O91       1.0  0.00726  0.22769  0.91363  1.0000 -0.5592159161
O   O92       1.0  0.31406  0.09363  0.08637  1.0000 -0.5592159161
O   O93       1.0  0.90637  0.99274  0.22043  1.0000 -0.5592159161
O   O94       1.0  0.77231  0.68594  0.77957  1.0000 -0.5592159161
O   O95       1.0  0.99274  0.77231  0.08637  1.0000 -0.5592159161
O   O96       1.0  0.68594  0.90637  0.91363  1.0000 -0.5592159161
O   O97       1.0  0.26305  0.01944  0.95181  1.0000 -0.5367289786
O   O98       1.0  0.06763  0.31124  0.04819  1.0000 -0.5367289786
O   O99       1.0  0.01944  0.06763  0.75639  1.0000 -0.5367289786
O   O100      1.0  0.31124  0.26305  0.24361  1.0000 -0.5367289786
O   O101      1.0  0.73695  0.98056  0.04819  1.0000 -0.5367289786
O   O102      1.0  0.93237  0.68876  0.95181  1.0000 -0.5367289786
O   O103      1.0  0.98056  0.93237  0.24361  1.0000 -0.5367289786
O   O104      1.0  0.68876  0.73695  0.75639  1.0000 -0.5367289786
O   O105      1.0  0.34007  0.02311  0.95428  1.0000 -0.5217250776
O   O106      1.0  0.06883  0.38579  0.04572  1.0000 -0.5217250776
O   O107      1.0  0.02311  0.06883  0.68304  1.0000 -0.5217250776
O   O108      1.0  0.38579  0.34007  0.31696  1.0000 -0.5217250776
O   O109      1.0  0.65993  0.97689  0.04572  1.0000 -0.5217250776
O   O110      1.0  0.93117  0.61421  0.95428  1.0000 -0.5217250776
O   O111      1.0  0.97689  0.93117  0.31696  1.0000 -0.5217250776
O   O112      1.0  0.61421  0.65993  0.68304  1.0000 -0.5217250776
O   O113      1.0  0.29830  0.04800  0.78630  1.0000 -0.1975177252
O   O114      1.0  0.26170  0.51200  0.21370  1.0000 -0.1975177252
O   O115      1.0  0.04800  0.26170  0.74970  1.0000 -0.1975177252
O   O116      1.0  0.51200  0.29830  0.25030  1.0000 -0.1975177252
O   O117      1.0  0.70170  0.95200  0.21370  1.0000 -0.1975177252
O   O118      1.0  0.73830  0.48800  0.78630  1.0000 -0.1975177252
O   O119      1.0  0.95200  0.73830  0.25030  1.0000 -0.1975177252
O   O120      1.0  0.48800  0.70170  0.74970  1.0000 -0.1975177252
