# DDEC6 charges by PACMAN v1.1 (https://github.com/mtap-research/PACMAN-charge/)
data_2012[Cd][ins]3[ASR]1
_chemical_formula_sum              "Cd8 H160 C160 N16 O32"
_cell_length_a       17.8372
_cell_length_b       21.164
_cell_length_c       21.721
_cell_angle_alpha    90
_cell_angle_beta     90.3
_cell_angle_gamma    90

_symmetry_space_group_name_H-M    "P 1"
_symmetry_Int_Tables_number       1

loop_
  _symmetry_equiv_pos_as_xyz
  'x, y, z'

loop_
  _atom_site_type_symbol
  _atom_site_label
  _atom_site_symmetry_multiplicity
  _atom_site_fract_x
  _atom_site_fract_y
  _atom_site_fract_z
  _atom_site_occupancy
  _atom_site_charge
Cd  Cd1       1.0  0.60199  0.34068  0.51448  1.0000 0.957067573
Cd  Cd2       1.0  0.39801  0.84068  0.98552  1.0000 0.957067573
Cd  Cd3       1.0  0.39801  0.65932  0.48552  1.0000 0.957067573
Cd  Cd4       1.0  0.60199  0.15932  0.01448  1.0000 0.957067573
Cd  Cd5       1.0  0.20036  0.91585  0.48289  1.0000 0.6965196818
Cd  Cd6       1.0  0.79964  0.41585  0.01711  1.0000 0.6965196818
Cd  Cd7       1.0  0.79964  0.08415  0.51711  1.0000 0.6965196818
Cd  Cd8       1.0  0.20036  0.58415  0.98289  1.0000 0.6965196818
H   H1        1.0  0.38150  0.89450  0.50860  1.0000 0.111171922
H   H2        1.0  0.61850  0.39450  0.99140  1.0000 0.111171922
H   H3        1.0  0.61850  0.10550  0.49140  1.0000 0.111171922
H   H4        1.0  0.38150  0.60550  0.00860  1.0000 0.111171922
H   H5        1.0  0.41300  0.96210  0.52930  1.0000 0.111171922
H   H6        1.0  0.58700  0.46210  0.97070  1.0000 0.111171922
H   H7        1.0  0.58700  0.03790  0.47070  1.0000 0.111171922
H   H8        1.0  0.41300  0.53790  0.02930  1.0000 0.111171922
H   H9        1.0  0.31840  0.97210  0.60360  1.0000 0.0919366574
H   H10       1.0  0.68160  0.47210  0.89640  1.0000 0.0919366574
H   H11       1.0  0.68160  0.02790  0.39640  1.0000 0.0919366574
H   H12       1.0  0.31840  0.52790  0.10360  1.0000 0.0919366574
H   H13       1.0  0.36290  0.90750  0.61520  1.0000 0.1190441071
H   H14       1.0  0.63710  0.40750  0.88480  1.0000 0.1190441071
H   H15       1.0  0.63710  0.09250  0.38480  1.0000 0.1190441071
H   H16       1.0  0.36290  0.59250  0.11520  1.0000 0.1190441071
H   H17       1.0  0.31280  0.81860  0.55670  1.0000 0.1190441071
H   H18       1.0  0.68720  0.31860  0.94330  1.0000 0.1190441071
H   H19       1.0  0.68720  0.18140  0.44330  1.0000 0.1190441071
H   H20       1.0  0.31280  0.68140  0.05670  1.0000 0.1190441071
H   H21       1.0  0.27840  0.81250  0.62410  1.0000 0.111171922
H   H22       1.0  0.72160  0.31250  0.87590  1.0000 0.111171922
H   H23       1.0  0.72160  0.18750  0.37590  1.0000 0.111171922
H   H24       1.0  0.27840  0.68750  0.12410  1.0000 0.111171922
H   H25       1.0  0.21560  0.74400  0.55830  1.0000 0.1290164901
H   H26       1.0  0.78440  0.24400  0.94170  1.0000 0.1290164901
H   H27       1.0  0.78440  0.25600  0.44170  1.0000 0.1290164901
H   H28       1.0  0.21560  0.75600  0.05830  1.0000 0.1290164901
H   H29       1.0  0.15820  0.79670  0.58180  1.0000 0.0919366574
H   H30       1.0  0.84180  0.29670  0.91820  1.0000 0.0919366574
H   H31       1.0  0.84180  0.20330  0.41820  1.0000 0.0919366574
H   H32       1.0  0.15820  0.70330  0.08180  1.0000 0.0919366574
H   H33       1.0  0.28990  0.78450  0.46570  1.0000 0.1190441071
H   H34       1.0  0.71010  0.28450  0.03430  1.0000 0.1190441071
H   H35       1.0  0.71010  0.21550  0.53430  1.0000 0.1190441071
H   H36       1.0  0.28990  0.71550  0.96570  1.0000 0.111171922
H   H37       1.0  0.22890  0.73440  0.44250  1.0000 0.1290164901
H   H38       1.0  0.77110  0.23440  0.05750  1.0000 0.1290164901
H   H39       1.0  0.77110  0.26560  0.55750  1.0000 0.1290164901
H   H40       1.0  0.22890  0.76560  0.94250  1.0000 0.1290164901
H   H41       1.0  0.27730  0.79150  0.36050  1.0000 0.1290164901
H   H42       1.0  0.72270  0.29150  0.13950  1.0000 0.1290164901
H   H43       1.0  0.72270  0.20850  0.63950  1.0000 0.1290164901
H   H44       1.0  0.27730  0.70850  0.86050  1.0000 0.1290164901
H   H45       1.0  0.18890  0.80190  0.36640  1.0000 0.1003559045
H   H46       1.0  0.81110  0.30190  0.13360  1.0000 0.1003559045
H   H47       1.0  0.81110  0.19810  0.63360  1.0000 0.1003559045
H   H48       1.0  0.18890  0.69810  0.86640  1.0000 0.1003559045
H   H49       1.0  0.35390  0.86130  0.41680  1.0000 0.1190441071
H   H50       1.0  0.64610  0.36130  0.08320  1.0000 0.1190441071
H   H51       1.0  0.64610  0.13870  0.58320  1.0000 0.1190441071
H   H52       1.0  0.35390  0.63870  0.91680  1.0000 0.1190441071
H   H53       1.0  0.35010  0.88860  0.34830  1.0000 0.111171922
H   H54       1.0  0.64990  0.38860  0.15170  1.0000 0.111171922
H   H55       1.0  0.64990  0.11140  0.65170  1.0000 0.111171922
H   H56       1.0  0.35010  0.61140  0.84830  1.0000 0.111171922
H   H57       1.0  0.40450  0.96260  0.41570  1.0000 0.111171922
H   H58       1.0  0.59550  0.46260  0.08430  1.0000 0.111171922
H   H59       1.0  0.59550  0.03740  0.58430  1.0000 0.111171922
H   H60       1.0  0.40450  0.53740  0.91570  1.0000 0.111171922
H   H61       1.0  0.32910  0.99050  0.38580  1.0000 0.1003559045
H   H62       1.0  0.67090  0.49050  0.11420  1.0000 0.1003559045
H   H63       1.0  0.67090  0.00950  0.61420  1.0000 0.1003559045
H   H64       1.0  0.32910  0.50950  0.88580  1.0000 0.1003559045
H   H65       1.0  0.44340  0.18650  0.40230  1.0000 0.1290164901
H   H66       1.0  0.55660  0.68650  0.09770  1.0000 0.1290164901
H   H67       1.0  0.55660  0.81350  0.59770  1.0000 0.1290164901
H   H68       1.0  0.44340  0.31350  0.90230  1.0000 0.1290164901
H   H69       1.0  0.35370  0.10760  0.40300  1.0000 0.1290164901
H   H70       1.0  0.64630  0.60760  0.09700  1.0000 0.1290164901
H   H71       1.0  0.64630  0.89240  0.59700  1.0000 0.1290164901
H   H72       1.0  0.35370  0.39240  0.90300  1.0000 0.1290164901
H   H73       1.0  0.40040  0.06780  0.57910  1.0000 0.1290164901
H   H74       1.0  0.59960  0.56780  0.92090  1.0000 0.1290164901
H   H75       1.0  0.59960  0.93220  0.42090  1.0000 0.1290164901
H   H76       1.0  0.40040  0.43220  0.07910  1.0000 0.1290164901
H   H77       1.0  0.48570  0.14950  0.58170  1.0000 0.1190441071
H   H78       1.0  0.51430  0.64950  0.91830  1.0000 0.1190441071
H   H79       1.0  0.51430  0.85050  0.41830  1.0000 0.1190441071
H   H80       1.0  0.48570  0.35050  0.08170  1.0000 0.1190441071
H   H81       1.0  0.27600  0.03940  0.53080  1.0000 0.1190441071
H   H82       1.0  0.72400  0.53940  0.96920  1.0000 0.1190441071
H   H83       1.0  0.72400  0.96060  0.46920  1.0000 0.1190441071
H   H84       1.0  0.27600  0.46060  0.03080  1.0000 0.1190441071
H   H85       1.0  0.26540  0.05110  0.45890  1.0000 0.1190441071
H   H86       1.0  0.73460  0.55110  0.04110  1.0000 0.1190441071
H   H87       1.0  0.73460  0.94890  0.54110  1.0000 0.1190441071
H   H88       1.0  0.26540  0.44890  0.95890  1.0000 0.1190441071
H   H89       1.0  0.24540  0.80990  0.80960  1.0000 0.111171922
H   H90       1.0  0.75460  0.30990  0.69040  1.0000 0.111171922
H   H91       1.0  0.75460  0.19010  0.19040  1.0000 0.111171922
H   H92       1.0  0.24540  0.69010  0.30960  1.0000 0.111171922
H   H93       1.0  0.19670  0.82000  0.71320  1.0000 0.1190441071
H   H94       1.0  0.80330  0.32000  0.78680  1.0000 0.1190441071
H   H95       1.0  0.80330  0.18000  0.28680  1.0000 0.111171922
H   H96       1.0  0.19670  0.68000  0.21320  1.0000 0.1190441071
H   H97       1.0  0.27780  0.99950  0.70140  1.0000 0.1190441071
H   H98       1.0  0.72220  0.49950  0.79860  1.0000 0.1190441071
H   H99       1.0  0.72220  0.00050  0.29860  1.0000 0.1190441071
H   H100      1.0  0.27780  0.50050  0.20140  1.0000 0.1190441071
H   H101      1.0  0.31880  0.99150  0.80320  1.0000 0.1190441071
H   H102      1.0  0.68120  0.49150  0.69680  1.0000 0.1190441071
H   H103      1.0  0.68120  0.00850  0.19680  1.0000 0.1190441071
H   H104      1.0  0.31880  0.50850  0.30320  1.0000 0.1190441071
H   H105      1.0  0.15690  0.88990  0.62930  1.0000 0.1190441071
H   H106      1.0  0.84310  0.38990  0.87070  1.0000 0.1190441071
H   H107      1.0  0.84310  0.11010  0.37070  1.0000 0.1190441071
H   H108      1.0  0.15690  0.61010  0.12930  1.0000 0.1190441071
H   H109      1.0  0.19050  0.95980  0.62500  1.0000 0.1290164901
H   H110      1.0  0.80950  0.45980  0.87500  1.0000 0.1290164901
H   H111      1.0  0.80950  0.04020  0.37500  1.0000 0.1290164901
H   H112      1.0  0.19050  0.54020  0.12500  1.0000 0.1290164901
H   H113      1.0  0.95790  0.94410  0.41840  1.0000 0.1290164901
H   H114      1.0  0.04210  0.44410  0.08160  1.0000 0.1290164901
H   H115      1.0  0.04210  0.05590  0.58160  1.0000 0.1290164901
H   H116      1.0  0.95790  0.55590  0.91840  1.0000 0.1290164901
H   H117      1.0  0.04580  0.86540  0.40080  1.0000 0.1190441071
H   H118      1.0  0.95420  0.36540  0.09920  1.0000 0.1190441071
H   H119      1.0  0.95420  0.13460  0.59920  1.0000 0.1190441071
H   H120      1.0  0.04580  0.63460  0.90080  1.0000 0.1190441071
H   H121      1.0  0.03030  0.81350  0.58100  1.0000 0.1190441071
H   H122      1.0  0.96970  0.31350  0.91900  1.0000 0.1190441071
H   H123      1.0  0.96970  0.18650  0.41900  1.0000 0.1190441071
H   H124      1.0  0.03030  0.68650  0.08100  1.0000 0.1190441071
H   H125      1.0  0.94210  0.89410  0.59590  1.0000 0.1190441071
H   H126      1.0  0.05790  0.39410  0.90410  1.0000 0.1190441071
H   H127      1.0  0.05790  0.10590  0.40410  1.0000 0.1190441071
H   H128      1.0  0.94210  0.60590  0.09590  1.0000 0.1190441071
H   H129      1.0  0.09690  0.74550  0.50620  1.0000 0.1190441071
H   H130      1.0  0.90310  0.24550  0.99380  1.0000 0.1190441071
H   H131      1.0  0.90310  0.25450  0.49380  1.0000 0.1190441071
H   H132      1.0  0.09690  0.75450  0.00620  1.0000 0.1290164901
H   H133      1.0  0.10240  0.76590  0.43540  1.0000 0.1190441071
H   H134      1.0  0.89760  0.26590  0.06460  1.0000 0.1190441071
H   H135      1.0  0.89760  0.23410  0.56460  1.0000 0.1190441071
H   H136      1.0  0.10240  0.73410  0.93540  1.0000 0.1190441071
H   H137      1.0  0.23420  0.80580  0.15740  1.0000 0.111171922
H   H138      1.0  0.76580  0.30580  0.34260  1.0000 0.111171922
H   H139      1.0  0.76580  0.19420  0.84260  1.0000 0.111171922
H   H140      1.0  0.23420  0.69420  0.65740  1.0000 0.111171922
H   H141      1.0  0.18580  0.82210  0.25520  1.0000 0.1190441071
H   H142      1.0  0.81420  0.32210  0.24480  1.0000 0.1190441071
H   H143      1.0  0.81420  0.17790  0.74480  1.0000 0.1190441071
H   H144      1.0  0.18580  0.67790  0.75520  1.0000 0.1190441071
H   H145      1.0  0.30160  0.98430  0.26870  1.0000 0.1190441071
H   H146      1.0  0.69840  0.48430  0.23130  1.0000 0.1190441071
H   H147      1.0  0.69840  0.01570  0.73130  1.0000 0.1190441071
H   H148      1.0  0.30160  0.51570  0.76870  1.0000 0.1190441071
H   H149      1.0  0.35640  0.96580  0.17290  1.0000 0.1290164901
H   H150      1.0  0.64360  0.46580  0.32710  1.0000 0.1290164901
H   H151      1.0  0.64360  0.03420  0.82710  1.0000 0.1290164901
H   H152      1.0  0.35640  0.53420  0.67290  1.0000 0.1290164901
H   H153      1.0  0.21330  0.96130  0.34470  1.0000 0.1190441071
H   H154      1.0  0.78670  0.46130  0.15530  1.0000 0.1190441071
H   H155      1.0  0.78670  0.03870  0.65530  1.0000 0.1190441071
H   H156      1.0  0.21330  0.53870  0.84470  1.0000 0.1190441071
H   H157      1.0  0.15710  0.90330  0.33550  1.0000 0.1190441071
H   H158      1.0  0.84290  0.40330  0.16450  1.0000 0.1190441071
H   H159      1.0  0.84290  0.09670  0.66450  1.0000 0.1190441071
H   H160      1.0  0.15710  0.59670  0.83550  1.0000 0.1190441071
C   C1        1.0  0.36690  0.93670  0.52410  1.0000 -0.1606175959
C   C2        1.0  0.63310  0.43670  0.97590  1.0000 -0.1606175959
C   C3        1.0  0.63310  0.06330  0.47590  1.0000 -0.1606175959
C   C4        1.0  0.36690  0.56330  0.02410  1.0000 -0.1606175959
C   C5        1.0  0.32830  0.92950  0.58660  1.0000 -0.1525864445
C   C6        1.0  0.67170  0.42950  0.91340  1.0000 -0.1525864445
C   C7        1.0  0.67170  0.07050  0.41340  1.0000 -0.1525864445
C   C8        1.0  0.32830  0.57050  0.08660  1.0000 -0.1525864445
C   C9        1.0  0.26780  0.82730  0.58180  1.0000 -0.1421851725
C   C10       1.0  0.73220  0.32730  0.91820  1.0000 -0.1421851725
C   C11       1.0  0.73220  0.17270  0.41820  1.0000 -0.1421851725
C   C12       1.0  0.26780  0.67270  0.08180  1.0000 -0.1421851725
C   C13       1.0  0.20310  0.78950  0.55610  1.0000 -0.1606175959
C   C14       1.0  0.79690  0.28950  0.94390  1.0000 -0.1606175959
C   C15       1.0  0.79690  0.21050  0.44390  1.0000 -0.1606175959
C   C16       1.0  0.20310  0.71050  0.05610  1.0000 -0.1606175959
C   C17       1.0  0.23920  0.78010  0.44760  1.0000 -0.1525864445
C   C18       1.0  0.76080  0.28010  0.05240  1.0000 -0.1525864445
C   C19       1.0  0.76080  0.21990  0.55240  1.0000 -0.1525864445
C   C20       1.0  0.23920  0.71990  0.94760  1.0000 -0.1525864445
C   C21       1.0  0.23780  0.81080  0.38640  1.0000 -0.1525864445
C   C22       1.0  0.76220  0.31080  0.11360  1.0000 -0.1525864445
C   C23       1.0  0.76220  0.18920  0.61360  1.0000 -0.1525864445
C   C24       1.0  0.23780  0.68920  0.88640  1.0000 -0.1525864445
C   C25       1.0  0.32940  0.89330  0.39020  1.0000 -0.1525864445
C   C26       1.0  0.67060  0.39330  0.10980  1.0000 -0.1525864445
C   C27       1.0  0.67060  0.10670  0.60980  1.0000 -0.1525864445
C   C28       1.0  0.32940  0.60670  0.89020  1.0000 -0.1525864445
C   C29       1.0  0.34930  0.95800  0.41410  1.0000 -0.1525864445
C   C30       1.0  0.65070  0.45800  0.08590  1.0000 -0.1525864445
C   C31       1.0  0.65070  0.04200  0.58590  1.0000 -0.1525864445
C   C32       1.0  0.34930  0.54200  0.91410  1.0000 -0.1525864445
C   C33       1.0  0.52650  0.23120  0.49630  1.0000 0.516856724
C   C34       1.0  0.47350  0.73120  0.00370  1.0000 0.516856724
C   C35       1.0  0.47350  0.76880  0.50370  1.0000 0.516856724
C   C36       1.0  0.52650  0.26880  0.99630  1.0000 0.516856724
C   C37       1.0  0.47430  0.17550  0.49210  1.0000 -0.016944121
C   C38       1.0  0.52570  0.67550  0.00790  1.0000 -0.016944121
C   C39       1.0  0.52570  0.82450  0.50790  1.0000 -0.016944121
C   C40       1.0  0.47430  0.32450  0.99210  1.0000 -0.016944121
C   C41       1.0  0.43430  0.16310  0.43880  1.0000 -0.1010185585
C   C42       1.0  0.56570  0.66310  0.06120  1.0000 -0.1010185585
C   C43       1.0  0.56570  0.83690  0.56120  1.0000 -0.1010185585
C   C44       1.0  0.43430  0.33690  0.93880  1.0000 -0.1010185585
C   C45       1.0  0.38090  0.11600  0.43980  1.0000 -0.1606175959
C   C46       1.0  0.61910  0.61600  0.06020  1.0000 -0.1606175959
C   C47       1.0  0.61910  0.88400  0.56020  1.0000 -0.1606175959
C   C48       1.0  0.38090  0.38400  0.93980  1.0000 -0.1606175959
C   C49       1.0  0.36480  0.08040  0.49120  1.0000 0.1003559045
C   C50       1.0  0.63520  0.58040  0.00880  1.0000 0.1003559045
C   C51       1.0  0.63520  0.91960  0.50880  1.0000 0.1003559045
C   C52       1.0  0.36480  0.41960  0.99120  1.0000 0.1003559045
C   C53       1.0  0.40740  0.09290  0.54330  1.0000 -0.1714812591
C   C54       1.0  0.59260  0.59290  0.95670  1.0000 -0.1714812591
C   C55       1.0  0.59260  0.90710  0.45670  1.0000 -0.1714812591
C   C56       1.0  0.40740  0.40710  0.04330  1.0000 -0.1714812591
C   C57       1.0  0.45950  0.14040  0.54450  1.0000 -0.1177145209
C   C58       1.0  0.54050  0.64040  0.95550  1.0000 -0.1177145209
C   C59       1.0  0.54050  0.85960  0.45550  1.0000 -0.1177145209
C   C60       1.0  0.45950  0.35960  0.04450  1.0000 -0.1177145209
C   C61       1.0  0.30140  0.03630  0.49050  1.0000 -0.205271712
C   C62       1.0  0.69860  0.53630  0.00950  1.0000 -0.1985957757
C   C63       1.0  0.69860  0.96370  0.50950  1.0000 -0.1985957757
C   C64       1.0  0.30140  0.46370  0.99050  1.0000 -0.205271712
C   C65       1.0  0.32850  0.88910  0.87990  1.0000 0.516856724
C   C66       1.0  0.67150  0.38910  0.62010  1.0000 0.516856724
C   C67       1.0  0.67150  0.11090  0.12010  1.0000 0.516856724
C   C68       1.0  0.32850  0.61090  0.37990  1.0000 0.516856724
C   C69       1.0  0.29300  0.89680  0.81600  1.0000 -0.0019010918
C   C70       1.0  0.70700  0.39680  0.68400  1.0000 -0.0019010918
C   C71       1.0  0.70700  0.10320  0.18400  1.0000 -0.0019010918
C   C72       1.0  0.29300  0.60320  0.31600  1.0000 -0.0019010918
C   C73       1.0  0.25290  0.84820  0.78780  1.0000 -0.105781929
C   C74       1.0  0.74710  0.34820  0.71220  1.0000 -0.105781929
C   C75       1.0  0.74710  0.15180  0.21220  1.0000 -0.105781929
C   C76       1.0  0.25290  0.65180  0.28780  1.0000 -0.105781929
C   C77       1.0  0.22420  0.85410  0.73050  1.0000 -0.1714812591
C   C78       1.0  0.77580  0.35410  0.76950  1.0000 -0.1714812591
C   C79       1.0  0.77580  0.14590  0.26950  1.0000 -0.1714812591
C   C80       1.0  0.22420  0.64590  0.23050  1.0000 -0.1714812591
C   C81       1.0  0.23400  0.90890  0.69590  1.0000 0.1003559045
C   C82       1.0  0.76600  0.40890  0.80410  1.0000 0.1003559045
C   C83       1.0  0.76600  0.09110  0.30410  1.0000 0.1003559045
C   C84       1.0  0.23400  0.59110  0.19590  1.0000 0.1003559045
C   C85       1.0  0.27110  0.96120  0.72370  1.0000 -0.1714812591
C   C86       1.0  0.72890  0.46120  0.77630  1.0000 -0.1714812591
C   C87       1.0  0.72890  0.03880  0.27630  1.0000 -0.1714812591
C   C88       1.0  0.27110  0.53880  0.22370  1.0000 -0.1714812591
C   C89       1.0  0.29740  0.95570  0.78340  1.0000 -0.0846903161
C   C90       1.0  0.70260  0.45570  0.71660  1.0000 -0.0911360912
C   C91       1.0  0.70260  0.04430  0.21660  1.0000 -0.0846903161
C   C92       1.0  0.29740  0.54430  0.28340  1.0000 -0.0846903161
C   C93       1.0  0.20370  0.91500  0.63250  1.0000 -0.1985957757
C   C94       1.0  0.79630  0.41500  0.86750  1.0000 -0.1985957757
C   C95       1.0  0.79630  0.08500  0.36750  1.0000 -0.1985957757
C   C96       1.0  0.20370  0.58500  0.13250  1.0000 -0.1985957757
C   C97       1.0  0.89290  0.98210  0.51890  1.0000 0.530173847
C   C98       1.0  0.10710  0.48210  0.98110  1.0000 0.530173847
C   C99       1.0  0.10710  0.01790  0.48110  1.0000 0.530173847
C   C100      1.0  0.89290  0.51790  0.01890  1.0000 0.530173847
C   C101      1.0  0.94510  0.92870  0.50870  1.0000 -0.0401496333
C   C102      1.0  0.05490  0.42870  0.99130  1.0000 -0.0401496333
C   C103      1.0  0.05490  0.07130  0.49130  1.0000 -0.0401496333
C   C104      1.0  0.94510  0.57130  0.00870  1.0000 -0.0401496333
C   C105      1.0  0.97380  0.91820  0.45170  1.0000 -0.0911360912
C   C106      1.0  0.02620  0.41820  0.04830  1.0000 -0.0911360912
C   C107      1.0  0.02620  0.08180  0.54830  1.0000 -0.0846903161
C   C108      1.0  0.97380  0.58180  0.95170  1.0000 -0.0911360912
C   C109      1.0  0.02550  0.87080  0.44080  1.0000 -0.1761082868
C   C110      1.0  0.97450  0.37080  0.05920  1.0000 -0.1714812591
C   C111      1.0  0.97450  0.12920  0.55920  1.0000 -0.1761082868
C   C112      1.0  0.02550  0.62920  0.94080  1.0000 -0.1761082868
C   C113      1.0  0.04760  0.83120  0.48840  1.0000 0.0919366574
C   C114      1.0  0.95240  0.33120  0.01160  1.0000 0.0919366574
C   C115      1.0  0.95240  0.16880  0.51160  1.0000 0.0919366574
C   C116      1.0  0.04760  0.66880  0.98840  1.0000 0.0919366574
C   C117      1.0  0.01610  0.84020  0.54770  1.0000 -0.1714812591
C   C118      1.0  0.98390  0.34020  0.95230  1.0000 -0.1714812591
C   C119      1.0  0.98390  0.15980  0.45230  1.0000 -0.1714812591
C   C120      1.0  0.01610  0.65980  0.04770  1.0000 -0.1714812591
C   C121      1.0  0.96440  0.88860  0.55660  1.0000 -0.0911360912
C   C122      1.0  0.03560  0.38860  0.94340  1.0000 -0.0911360912
C   C123      1.0  0.03560  0.11140  0.44340  1.0000 -0.0911360912
C   C124      1.0  0.96440  0.61140  0.05660  1.0000 -0.0911360912
C   C125      1.0  0.10620  0.78160  0.47820  1.0000 -0.1943306722
C   C126      1.0  0.89380  0.28160  0.02180  1.0000 -0.1943306722
C   C127      1.0  0.89380  0.21840  0.52180  1.0000 -0.1943306722
C   C128      1.0  0.10620  0.71840  0.97820  1.0000 -0.1943306722
C   C129      1.0  0.33210  0.87210  0.09170  1.0000 0.5458829293
C   C130      1.0  0.66790  0.37210  0.40830  1.0000 0.5458829293
C   C131      1.0  0.66790  0.12790  0.90830  1.0000 0.5440214961
C   C132      1.0  0.33210  0.62790  0.59170  1.0000 0.5458829293
C   C133      1.0  0.29890  0.88490  0.15410  1.0000 -0.0132144606
C   C134      1.0  0.70110  0.38490  0.34590  1.0000 -0.0132144606
C   C135      1.0  0.70110  0.11510  0.84590  1.0000 -0.0132144606
C   C136      1.0  0.29890  0.61510  0.65410  1.0000 -0.0132144606
C   C137      1.0  0.24900  0.84220  0.18010  1.0000 -0.105781929
C   C138      1.0  0.75100  0.34220  0.31990  1.0000 -0.105781929
C   C139      1.0  0.75100  0.15780  0.81990  1.0000 -0.105781929
C   C140      1.0  0.24900  0.65780  0.68010  1.0000 -0.105781929
C   C141      1.0  0.22040  0.85160  0.23860  1.0000 -0.1714812591
C   C142      1.0  0.77960  0.35160  0.26140  1.0000 -0.1714812591
C   C143      1.0  0.77960  0.14840  0.76140  1.0000 -0.1714812591
C   C144      1.0  0.22040  0.64840  0.73860  1.0000 -0.1714812591
C   C145      1.0  0.24200  0.90420  0.27340  1.0000 0.1003559045
C   C146      1.0  0.75800  0.40420  0.22660  1.0000 0.1003559045
C   C147      1.0  0.75800  0.09580  0.72660  1.0000 0.1003559045
C   C148      1.0  0.24200  0.59580  0.77340  1.0000 0.1003559045
C   C149      1.0  0.28940  0.94680  0.24690  1.0000 -0.1714812591
C   C150      1.0  0.71060  0.44680  0.25310  1.0000 -0.1606175959
C   C151      1.0  0.71060  0.05320  0.75310  1.0000 -0.1606175959
C   C152      1.0  0.28940  0.55320  0.74690  1.0000 -0.1606175959
C   C153      1.0  0.32050  0.93690  0.18870  1.0000 -0.0911360912
C   C154      1.0  0.67950  0.43690  0.31130  1.0000 -0.0911360912
C   C155      1.0  0.67950  0.06310  0.81130  1.0000 -0.0911360912
C   C156      1.0  0.32050  0.56310  0.68870  1.0000 -0.0911360912
C   C157      1.0  0.21070  0.91550  0.33590  1.0000 -0.1985957757
C   C158      1.0  0.78930  0.41550  0.16410  1.0000 -0.1985957757
C   C159      1.0  0.78930  0.08450  0.66410  1.0000 -0.1985957757
C   C160      1.0  0.21070  0.58450  0.83590  1.0000 -0.1985957757
N   N1        1.0  0.25610  0.89370  0.58337  1.0000 -0.0911360912
N   N2        1.0  0.74390  0.39370  0.91663  1.0000 -0.0911360912
N   N3        1.0  0.74390  0.10630  0.41663  1.0000 -0.0911360912
N   N4        1.0  0.25610  0.60630  0.08337  1.0000 -0.0911360912
N   N5        1.0  0.31690  0.96780  0.47842  1.0000 -0.0911360912
N   N6        1.0  0.68310  0.46780  0.02158  1.0000 -0.0911360912
N   N7        1.0  0.68310  0.03220  0.52158  1.0000 -0.0911360912
N   N8        1.0  0.31690  0.53220  0.97842  1.0000 -0.0911360912
N   N9        1.0  0.18470  0.80681  0.48960  1.0000 -0.0911360912
N   N10       1.0  0.81530  0.30681  0.01040  1.0000 -0.0911360912
N   N11       1.0  0.81530  0.19319  0.51040  1.0000 -0.0911360912
N   N12       1.0  0.18470  0.69319  0.98960  1.0000 -0.0911360912
N   N13       1.0  0.24950  0.88040  0.38791  1.0000 -0.0911360912
N   N14       1.0  0.75050  0.38040  0.11209  1.0000 -0.0911360912
N   N15       1.0  0.75050  0.11960  0.61209  1.0000 -0.1010185585
N   N16       1.0  0.24950  0.61960  0.88791  1.0000 -0.0911360912
O   O1        1.0  0.51790  0.27690  0.45840  1.0000 -0.5130700156
O   O2        1.0  0.48210  0.77690  0.04160  1.0000 -0.5130700156
O   O3        1.0  0.48210  0.72310  0.54160  1.0000 -0.5130700156
O   O4        1.0  0.51790  0.22310  0.95840  1.0000 -0.5130700156
O   O5        1.0  0.57360  0.23310  0.53360  1.0000 -0.4908370287
O   O6        1.0  0.42640  0.73310  0.96640  1.0000 -0.4908370287
O   O7        1.0  0.42640  0.76690  0.46640  1.0000 -0.4908370287
O   O8        1.0  0.57360  0.26690  0.03360  1.0000 -0.4908370287
O   O9        1.0  0.35020  0.93830  0.90610  1.0000 -0.531573689
O   O10       1.0  0.64980  0.43830  0.59390  1.0000 -0.531573689
O   O11       1.0  0.64980  0.06170  0.09390  1.0000 -0.531573689
O   O12       1.0  0.35020  0.56170  0.40610  1.0000 -0.531573689
O   O13       1.0  0.32840  0.83630  0.90062  1.0000 -0.5401311428
O   O14       1.0  0.67160  0.33630  0.59938  1.0000 -0.5401311428
O   O15       1.0  0.67160  0.16370  0.09938  1.0000 -0.5401311428
O   O16       1.0  0.32840  0.66370  0.40062  1.0000 -0.5401311428
O   O17       1.0  0.86440  0.99327  0.57002  1.0000 -0.5594177008
O   O18       1.0  0.13560  0.49327  0.92998  1.0000 -0.5594177008
O   O19       1.0  0.13560  0.00673  0.42998  1.0000 -0.5594177008
O   O20       1.0  0.86440  0.50673  0.07002  1.0000 -0.5594177008
O   O21       1.0  0.87530  0.01488  0.47126  1.0000 -0.5594177008
O   O22       1.0  0.12470  0.51488  0.02874  1.0000 -0.5594177008
O   O23       1.0  0.12470  0.98512  0.52874  1.0000 -0.5594177008
O   O24       1.0  0.87530  0.48512  0.97126  1.0000 -0.5594177008
O   O25       1.0  0.31010  0.82520  0.06300  1.0000 -0.5480180294
O   O26       1.0  0.68990  0.32520  0.43700  1.0000 -0.5480180294
O   O27       1.0  0.68990  0.17480  0.93700  1.0000 -0.5480180294
O   O28       1.0  0.31010  0.67480  0.56300  1.0000 -0.5480180294
O   O29       1.0  0.38080  0.90776  0.07123  1.0000 -0.5130700156
O   O30       1.0  0.61920  0.40776  0.42877  1.0000 -0.5130700156
O   O31       1.0  0.61920  0.09224  0.92877  1.0000 -0.5130700156
O   O32       1.0  0.38080  0.59224  0.57123  1.0000 -0.5130700156
