# DDEC6 charges by PACMAN v1.1 (https://github.com/mtap-research/PACMAN-charge/)
data_2012[Co][tsn]3[ASR]1
_chemical_formula_sum              "Co6 H104 C140 N12 O40"
_cell_length_a       15.061
_cell_length_b       28.353
_cell_length_c       17.069
_cell_angle_alpha    90
_cell_angle_beta     100.653
_cell_angle_gamma    90

_symmetry_space_group_name_H-M    "P 1"
_symmetry_Int_Tables_number       1

loop_
  _symmetry_equiv_pos_as_xyz
  'x, y, z'

loop_
  _atom_site_type_symbol
  _atom_site_label
  _atom_site_symmetry_multiplicity
  _atom_site_fract_x
  _atom_site_fract_y
  _atom_site_fract_z
  _atom_site_occupancy
  _atom_site_charge
Co  Co1       1.0  0.52174  0.02995  0.86795  1.0000 0.9693486876
Co  Co2       1.0  0.47826  0.52995  0.13205  1.0000 0.9693486876
Co  Co3       1.0  0.48635  0.43085  0.24076  1.0000 1.0169025249
Co  Co4       1.0  0.51365  0.93085  0.75924  1.0000 1.0097868429
Co  Co5       1.0  0.51467  0.03295  0.65341  1.0000 1.0097868429
Co  Co6       1.0  0.48533  0.53295  0.34659  1.0000 1.0097868429
H   H1        1.0  0.05070  0.37340  0.71920  1.0000 0.0922556941
H   H2        1.0  0.94930  0.87340  0.28080  1.0000 0.0922556941
H   H3        1.0  0.11670  0.33080  0.74460  1.0000 0.100780897
H   H4        1.0  0.88330  0.83080  0.25540  1.0000 0.100780897
H   H5        1.0  0.93720  0.37600  0.76250  1.0000 0.100780897
H   H6        1.0  0.06280  0.87600  0.23750  1.0000 0.100780897
H   H7        1.0  0.86310  0.33830  0.72980  1.0000 0.100780897
H   H8        1.0  0.13690  0.83830  0.27020  1.0000 0.100780897
H   H9        1.0  0.92410  0.31330  0.58710  1.0000 0.100780897
H   H10       1.0  0.07590  0.81330  0.41290  1.0000 0.100780897
H   H11       1.0  0.97100  0.33290  0.51880  1.0000 0.100780897
H   H12       1.0  0.02900  0.83290  0.48120  1.0000 0.100780897
H   H13       1.0  0.18540  0.35790  0.63350  1.0000 0.100780897
H   H14       1.0  0.81460  0.85790  0.36650  1.0000 0.100780897
H   H15       1.0  0.10820  0.39400  0.60070  1.0000 0.100780897
H   H16       1.0  0.89180  0.89400  0.39930  1.0000 0.100780897
H   H17       1.0  0.07420  0.27070  0.55590  1.0000 0.100780897
H   H18       1.0  0.92580  0.77070  0.44410  1.0000 0.100780897
H   H19       1.0  0.03780  0.25670  0.63330  1.0000 0.1109008518
H   H20       1.0  0.96220  0.75670  0.36670  1.0000 0.1109008518
H   H21       1.0  0.88000  0.27310  0.90930  1.0000 0.100780897
H   H22       1.0  0.12000  0.77310  0.09070  1.0000 0.100780897
H   H23       1.0  0.93240  0.25950  0.84080  1.0000 0.100780897
H   H24       1.0  0.06760  0.75950  0.15920  1.0000 0.100780897
H   H25       1.0  0.79000  0.36250  0.83790  1.0000 0.100780897
H   H26       1.0  0.21000  0.86250  0.16210  1.0000 0.100780897
H   H27       1.0  0.87040  0.39600  0.87450  1.0000 0.100780897
H   H28       1.0  0.12960  0.89600  0.12550  1.0000 0.100780897
H   H29       1.0  0.04530  0.31350  0.88830  1.0000 0.100780897
H   H30       1.0  0.95470  0.81350  0.11170  1.0000 0.100780897
H   H31       1.0  0.99680  0.33090  0.95700  1.0000 0.100780897
H   H32       1.0  0.00320  0.83090  0.04300  1.0000 0.100780897
H   H33       1.0  0.85980  0.45720  0.60460  1.0000 0.1291792519
H   H34       1.0  0.14020  0.95720  0.39540  1.0000 0.1291792519
H   H35       1.0  0.73080  0.48820  0.52810  1.0000 0.1291792519
H   H36       1.0  0.26920  0.98820  0.47190  1.0000 0.1291792519
H   H37       1.0  0.70090  0.37380  0.39530  1.0000 0.1199846778
H   H38       1.0  0.29910  0.87380  0.60470  1.0000 0.1199846778
H   H39       1.0  0.83220  0.34310  0.46920  1.0000 0.1199846778
H   H40       1.0  0.16780  0.84310  0.53080  1.0000 0.1199846778
H   H41       1.0  0.23060  0.42490  0.56960  1.0000 0.1199846778
H   H42       1.0  0.76940  0.92490  0.43040  1.0000 0.1199846778
H   H43       1.0  0.31610  0.46820  0.49400  1.0000 0.1199846778
H   H44       1.0  0.68390  0.96820  0.50600  1.0000 0.1199846778
H   H45       1.0  0.26680  0.37420  0.32220  1.0000 0.1199846778
H   H46       1.0  0.73320  0.87420  0.67780  1.0000 0.1199846778
H   H47       1.0  0.17170  0.33320  0.39030  1.0000 0.1378678736
H   H48       1.0  0.82830  0.83320  0.60970  1.0000 0.1378678736
H   H49       1.0  0.10070  0.19510  0.57120  1.0000 0.1199846778
H   H50       1.0  0.89930  0.69510  0.42880  1.0000 0.1199846778
H   H51       1.0  0.16950  0.12380  0.56480  1.0000 0.1199846778
H   H52       1.0  0.83050  0.62380  0.43520  1.0000 0.1199846778
H   H53       1.0  0.39040  0.17320  0.70410  1.0000 0.1199846778
H   H54       1.0  0.60960  0.67320  0.29590  1.0000 0.1199846778
H   H55       1.0  0.31970  0.24150  0.71150  1.0000 0.1378678736
H   H56       1.0  0.68030  0.74150  0.28850  1.0000 0.1378678736
H   H57       1.0  0.80010  0.20810  0.91100  1.0000 0.1199846778
H   H58       1.0  0.19990  0.70810  0.08900  1.0000 0.1199846778
H   H59       1.0  0.72030  0.13910  0.89520  1.0000 0.1199846778
H   H60       1.0  0.27970  0.63910  0.10480  1.0000 0.1199846778
H   H61       1.0  0.65620  0.15970  0.67170  1.0000 0.1199846778
H   H62       1.0  0.34380  0.65970  0.32830  1.0000 0.1199846778
H   H63       1.0  0.69820  0.24090  0.68810  1.0000 0.1378678736
H   H64       1.0  0.30180  0.74090  0.31190  1.0000 0.1378678736
H   H65       1.0  0.80790  0.33560  0.08750  1.0000 0.1378678736
H   H66       1.0  0.19210  0.83560  0.91250  1.0000 0.1378678736
H   H67       1.0  0.70290  0.36970  0.15150  1.0000 0.1199846778
H   H68       1.0  0.29710  0.86970  0.84850  1.0000 0.1199846778
H   H69       1.0  0.64820  0.46640  0.98040  1.0000 0.1199846778
H   H70       1.0  0.35180  0.96640  0.01960  1.0000 0.1199846778
H   H71       1.0  0.73460  0.42560  0.90490  1.0000 0.1199846778
H   H72       1.0  0.26540  0.92560  0.09510  1.0000 0.1199846778
H   H73       1.0  0.09920  0.46050  0.89960  1.0000 0.1378678736
H   H74       1.0  0.90080  0.96050  0.10040  1.0000 0.1378678736
H   H75       1.0  0.23410  0.49000  0.97580  1.0000 0.1199846778
H   H76       1.0  0.76590  0.99000  0.02420  1.0000 0.1199846778
H   H77       1.0  0.28030  0.36510  0.07710  1.0000 0.1199846778
H   H78       1.0  0.71970  0.86510  0.92290  1.0000 0.1291792519
H   H79       1.0  0.15020  0.33630  0.00120  1.0000 0.1199846778
H   H80       1.0  0.84980  0.83630  0.99880  1.0000 0.1199846778
H   H81       1.0  0.51870  0.04670  0.16040  1.0000 0.1378678736
H   H82       1.0  0.48130  0.54670  0.83960  1.0000 0.1378678736
H   H83       1.0  0.53220  0.01000  0.04670  1.0000 0.1199846778
H   H84       1.0  0.46780  0.51000  0.95330  1.0000 0.1199846778
H   H85       1.0  0.53360  0.12880  0.93610  1.0000 0.1109008518
H   H86       1.0  0.46640  0.62880  0.06390  1.0000 0.1109008518
H   H87       1.0  0.52110  0.16840  0.04870  1.0000 0.1378678736
H   H88       1.0  0.47890  0.66840  0.95130  1.0000 0.1378678736
H   H89       1.0  0.51660  0.04850  0.35870  1.0000 0.1378678736
H   H90       1.0  0.48340  0.54850  0.64130  1.0000 0.1378678736
H   H91       1.0  0.51700  0.01240  0.47840  1.0000 0.1109008518
H   H92       1.0  0.48300  0.51240  0.52160  1.0000 0.1109008518
H   H93       1.0  0.51590  0.13210  0.58430  1.0000 0.100780897
H   H94       1.0  0.48410  0.63210  0.41570  1.0000 0.100780897
H   H95       1.0  0.51680  0.17310  0.46750  1.0000 0.1378678736
H   H96       1.0  0.48320  0.67310  0.53250  1.0000 0.1378678736
H   H97       1.0  0.50590  0.26570  0.13620  1.0000 0.1378678736
H   H98       1.0  0.49410  0.76570  0.86380  1.0000 0.1378678736
H   H99       1.0  0.49340  0.34630  0.13280  1.0000 0.1109008518
H   H100      1.0  0.50660  0.84630  0.86720  1.0000 0.1109008518
H   H101      1.0  0.48900  0.34920  0.35980  1.0000 0.1199846778
H   H102      1.0  0.51100  0.84920  0.64020  1.0000 0.1199846778
H   H103      1.0  0.49330  0.26950  0.36650  1.0000 0.1378678736
H   H104      1.0  0.50670  0.76950  0.63350  1.0000 0.1378678736
C   C1        1.0  0.05890  0.33980  0.71290  1.0000 -0.0795025714
C   C2        1.0  0.94110  0.83980  0.28710  1.0000 -0.0795025714
C   C3        1.0  0.92100  0.34300  0.76470  1.0000 -0.0795025714
C   C4        1.0  0.07900  0.84300  0.23530  1.0000 -0.0795025714
C   C5        1.0  0.05650  0.32790  0.62470  1.0000 0.0610739234
C   C6        1.0  0.94350  0.82790  0.37530  1.0000 0.0610739234
C   C7        1.0  0.91360  0.33000  0.84900  1.0000 0.0610739234
C   C8        1.0  0.08640  0.83000  0.15100  1.0000 0.0610739234
C   C9        1.0  0.96710  0.33620  0.57460  1.0000 -0.0981300362
C   C10       1.0  0.03290  0.83620  0.42540  1.0000 -0.0981300362
C   C11       1.0  0.12740  0.36150  0.59830  1.0000 -0.059620383
C   C12       1.0  0.87260  0.86150  0.40170  1.0000 -0.059620383
C   C13       1.0  0.07930  0.27720  0.61240  1.0000 -0.0795025714
C   C14       1.0  0.92070  0.77720  0.38760  1.0000 -0.0795025714
C   C15       1.0  0.88670  0.28030  0.85510  1.0000 -0.0870643526
C   C16       1.0  0.11330  0.78030  0.14490  1.0000 -0.0870643526
C   C17       1.0  0.84750  0.36400  0.87440  1.0000 -0.0795025714
C   C18       1.0  0.15250  0.86400  0.12560  1.0000 -0.0795025714
C   C19       1.0  0.00260  0.33620  0.90200  1.0000 -0.0795025714
C   C20       1.0  0.99740  0.83620  0.09800  1.0000 -0.0795025714
C   C21       1.0  0.85900  0.39760  0.54210  1.0000 0.2319992891
C   C22       1.0  0.14100  0.89760  0.45790  1.0000 0.2319992891
C   C23       1.0  0.82860  0.44040  0.56140  1.0000 -0.2299801447
C   C24       1.0  0.17140  0.94040  0.43860  1.0000 -0.2299801447
C   C25       1.0  0.75040  0.45850  0.51550  1.0000 -0.059620383
C   C26       1.0  0.24960  0.95850  0.48450  1.0000 -0.059620383
C   C27       1.0  0.70080  0.43470  0.45250  1.0000 -0.0679514195
C   C28       1.0  0.29920  0.93470  0.54750  1.0000 -0.0679514195
C   C29       1.0  0.73290  0.39150  0.43700  1.0000 -0.0679514195
C   C30       1.0  0.26710  0.89150  0.56300  1.0000 -0.0679514195
C   C31       1.0  0.81200  0.37270  0.48150  1.0000 -0.240649952
C   C32       1.0  0.18800  0.87270  0.51850  1.0000 -0.240649952
C   C33       1.0  0.61950  0.45360  0.40280  1.0000 0.5868313945
C   C34       1.0  0.38050  0.95360  0.59720  1.0000 0.5868313945
C   C35       1.0  0.19150  0.37620  0.48460  1.0000 0.2418049349
C   C36       1.0  0.80850  0.87620  0.51540  1.0000 0.2418049349
C   C37       1.0  0.23570  0.41530  0.51860  1.0000 -0.240649952
C   C38       1.0  0.76430  0.91530  0.48140  1.0000 -0.240649952
C   C39       1.0  0.28880  0.44030  0.47360  1.0000 -0.0795025714
C   C40       1.0  0.71120  0.94030  0.52640  1.0000 -0.0795025714
C   C41       1.0  0.30170  0.42510  0.40100  1.0000 -0.0679514195
C   C42       1.0  0.69830  0.92510  0.59900  1.0000 -0.0679514195
C   C43       1.0  0.25830  0.38520  0.37160  1.0000 -0.0795025714
C   C44       1.0  0.74170  0.88520  0.62840  1.0000 -0.0795025714
C   C45       1.0  0.20170  0.36020  0.41230  1.0000 -0.2188418322
C   C46       1.0  0.79830  0.86020  0.58770  1.0000 -0.2188418322
C   C47       1.0  0.36240  0.44970  0.35620  1.0000 0.5848009176
C   C48       1.0  0.63760  0.94970  0.64380  1.0000 0.5848009176
C   C49       1.0  0.20460  0.22520  0.64110  1.0000 0.2187425605
C   C50       1.0  0.79540  0.72520  0.35890  1.0000 0.2187425605
C   C51       1.0  0.15970  0.19050  0.59790  1.0000 -0.2299801447
C   C52       1.0  0.84030  0.69050  0.40210  1.0000 -0.2299801447
C   C53       1.0  0.20160  0.14830  0.59340  1.0000 -0.0679514195
C   C54       1.0  0.79840  0.64830  0.40660  1.0000 -0.0679514195
C   C55       1.0  0.28880  0.14070  0.62920  1.0000 -0.0507556555
C   C56       1.0  0.71120  0.64070  0.37080  1.0000 -0.0507556555
C   C57       1.0  0.33190  0.17730  0.67600  1.0000 -0.0870643526
C   C58       1.0  0.66810  0.67730  0.32400  1.0000 -0.0870643526
C   C59       1.0  0.28970  0.21750  0.68020  1.0000 -0.1881188267
C   C60       1.0  0.71030  0.71750  0.31980  1.0000 -0.1881188267
C   C61       1.0  0.33610  0.09530  0.62620  1.0000 0.5503843016
C   C62       1.0  0.66390  0.59530  0.37380  1.0000 0.5503843016
C   C63       1.0  0.76280  0.23000  0.79700  1.0000 0.2418049349
C   C64       1.0  0.23720  0.73000  0.20300  1.0000 0.2418049349
C   C65       1.0  0.76600  0.20010  0.86150  1.0000 -0.240649952
C   C66       1.0  0.23400  0.70010  0.13850  1.0000 -0.2466002815
C   C67       1.0  0.71890  0.15880  0.85140  1.0000 -0.0870643526
C   C68       1.0  0.28110  0.65880  0.14860  1.0000 -0.0870643526
C   C69       1.0  0.67110  0.14550  0.78180  1.0000 -0.0427151146
C   C70       1.0  0.32890  0.64550  0.21820  1.0000 -0.0427151146
C   C71       1.0  0.67630  0.17180  0.72260  1.0000 -0.0981300362
C   C72       1.0  0.32370  0.67180  0.27740  1.0000 -0.0981300362
C   C73       1.0  0.71150  0.21930  0.72950  1.0000 -0.2188418322
C   C74       1.0  0.28850  0.71930  0.27050  1.0000 -0.2188418322
C   C75       1.0  0.62000  0.09950  0.77380  1.0000 0.5965178794
C   C76       1.0  0.38000  0.59950  0.22620  1.0000 0.5965178794
C   C77       1.0  0.78110  0.37760  0.98880  1.0000 0.2552076912
C   C78       1.0  0.21890  0.87760  0.01120  1.0000 0.2552076912
C   C79       1.0  0.77320  0.36090  0.06460  1.0000 -0.2188418322
C   C80       1.0  0.22680  0.86090  0.93540  1.0000 -0.2188418322
C   C81       1.0  0.71370  0.38260  0.10410  1.0000 -0.0870643526
C   C82       1.0  0.28630  0.88260  0.89590  1.0000 -0.0870643526
C   C83       1.0  0.66850  0.42400  0.07450  1.0000 -0.059620383
C   C84       1.0  0.33150  0.92400  0.92550  1.0000 -0.059620383
C   C85       1.0  0.67840  0.43920  0.00110  1.0000 -0.0795025714
C   C86       1.0  0.32160  0.93920  0.99890  1.0000 -0.0795025714
C   C87       1.0  0.73200  0.41560  0.95640  1.0000 -0.240649952
C   C88       1.0  0.26800  0.91560  0.04360  1.0000 -0.240649952
C   C89       1.0  0.60410  0.44670  0.11990  1.0000 0.5868313945
C   C90       1.0  0.39590  0.94670  0.88010  1.0000 0.5868313945
C   C91       1.0  0.11520  0.39680  0.94470  1.0000 0.212352205
C   C92       1.0  0.88480  0.89680  0.05530  1.0000 0.212352205
C   C93       1.0  0.13640  0.44120  0.93570  1.0000 -0.2096180492
C   C94       1.0  0.86360  0.94120  0.06430  1.0000 -0.2096180492
C   C95       1.0  0.21680  0.45900  0.98210  1.0000 -0.0870643526
C   C96       1.0  0.78320  0.95900  0.01790  1.0000 -0.0870643526
C   C97       1.0  0.26860  0.43050  0.03600  1.0000 -0.0427151146
C   C98       1.0  0.73140  0.93050  0.96400  1.0000 -0.0427151146
C   C99       1.0  0.24380  0.38500  0.04150  1.0000 -0.0870643526
C   C100      1.0  0.75620  0.88500  0.95850  1.0000 -0.0870643526
C   C101      1.0  0.16680  0.36760  0.99650  1.0000 -0.2188418322
C   C102      1.0  0.83320  0.86760  0.00350  1.0000 -0.2188418322
C   C103      1.0  0.35130  0.44960  0.08930  1.0000 0.5965178794
C   C104      1.0  0.64870  0.94960  0.91070  1.0000 0.5965178794
C   C105      1.0  0.51820  0.13860  0.19340  1.0000 0.3649809546
C   C106      1.0  0.48180  0.63860  0.80660  1.0000 0.3649809546
C   C107      1.0  0.51540  0.14020  0.32480  1.0000 0.3699469156
C   C108      1.0  0.48460  0.64020  0.67520  1.0000 0.3699469156
C   C109      1.0  0.50920  0.20680  0.25580  1.0000 0.34906492
C   C110      1.0  0.49080  0.70680  0.74420  1.0000 0.34906492
C   C111      1.0  0.52260  0.11280  0.11950  1.0000 0.0676577053
C   C112      1.0  0.47740  0.61280  0.88050  1.0000 0.0676577053
C   C113      1.0  0.52290  0.06440  0.11540  1.0000 -0.1801806381
C   C114      1.0  0.47710  0.56440  0.88460  1.0000 -0.1801806381
C   C115      1.0  0.52900  0.04270  0.04720  1.0000 0.0676577053
C   C116      1.0  0.47100  0.54270  0.95280  1.0000 0.0676577053
C   C117      1.0  0.53010  0.11180  0.98200  1.0000 0.100780897
C   C118      1.0  0.46990  0.61180  0.01800  1.0000 0.100780897
C   C119      1.0  0.52410  0.13560  0.05000  1.0000 -0.1881188267
C   C120      1.0  0.47590  0.63560  0.95000  1.0000 -0.1801806381
C   C121      1.0  0.51540  0.11490  0.40000  1.0000 0.0610739234
C   C122      1.0  0.48460  0.61490  0.60000  1.0000 0.0610739234
C   C123      1.0  0.51620  0.06650  0.40420  1.0000 -0.1678442819
C   C124      1.0  0.48380  0.56650  0.59580  1.0000 -0.1678442819
C   C125      1.0  0.51640  0.04520  0.47620  1.0000 0.100780897
C   C126      1.0  0.48360  0.54520  0.52380  1.0000 0.100780897
C   C127      1.0  0.51590  0.11510  0.53770  1.0000 0.100780897
C   C128      1.0  0.48410  0.61510  0.46230  1.0000 0.100780897
C   C129      1.0  0.51620  0.14030  0.46780  1.0000 -0.1560917311
C   C130      1.0  0.48380  0.64030  0.53220  1.0000 -0.1560917311
C   C131      1.0  0.50340  0.25820  0.25270  1.0000 0.0610739234
C   C132      1.0  0.49660  0.75820  0.74730  1.0000 0.0610739234
C   C133      1.0  0.50210  0.28220  0.18250  1.0000 -0.1678442819
C   C134      1.0  0.49790  0.78220  0.81750  1.0000 -0.1678442819
C   C135      1.0  0.49520  0.33060  0.18090  1.0000 0.0922556941
C   C136      1.0  0.50480  0.83060  0.81910  1.0000 0.0922556941
C   C137      1.0  0.49160  0.33220  0.31370  1.0000 0.0922556941
C   C138      1.0  0.50840  0.83220  0.68630  1.0000 0.0922556941
C   C139      1.0  0.49570  0.28450  0.31840  1.0000 -0.1678442819
C   C140      1.0  0.50430  0.78450  0.68160  1.0000 -0.1678442819
N   N1        1.0  0.51950  0.11390  0.26090  1.0000 -0.41844536
N   N2        1.0  0.48050  0.61390  0.73910  1.0000 -0.41844536
N   N3        1.0  0.51220  0.18580  0.32640  1.0000 -0.4000605159
N   N4        1.0  0.48780  0.68580  0.67360  1.0000 -0.4000605159
N   N5        1.0  0.51440  0.18550  0.18850  1.0000 -0.4066561573
N   N6        1.0  0.48560  0.68550  0.81150  1.0000 -0.4000605159
N   N7        1.0  0.53090  0.06610  0.97930  1.0000 -0.2299801447
N   N8        1.0  0.46910  0.56610  0.02070  1.0000 -0.2299801447
N   N9        1.0  0.51570  0.06880  0.54220  1.0000 -0.2039621287
N   N10       1.0  0.48430  0.56880  0.45780  1.0000 -0.2096180492
N   N11       1.0  0.49110  0.35580  0.24640  1.0000 -0.2188418322
N   N12       1.0  0.50890  0.85580  0.75360  1.0000 -0.2188418322
O   O1        1.0  0.98800  0.31450  0.73810  1.0000 -0.1801806381
O   O2        1.0  0.01200  0.81450  0.26190  1.0000 -0.1801806381
O   O3        1.0  0.93780  0.38300  0.58960  1.0000 -0.2096180492
O   O4        1.0  0.06220  0.88300  0.41040  1.0000 -0.2096180492
O   O5        1.0  0.13480  0.34990  0.52090  1.0000 -0.1801806381
O   O6        1.0  0.86520  0.84990  0.47910  1.0000 -0.1801806381
O   O7        1.0  0.16900  0.26880  0.65250  1.0000 -0.1801806381
O   O8        1.0  0.83100  0.76880  0.34750  1.0000 -0.1801806381
O   O9        1.0  0.80170  0.27340  0.80100  1.0000 -0.1881188267
O   O10       1.0  0.19830  0.77340  0.19900  1.0000 -0.1881188267
O   O11       1.0  0.83660  0.35120  0.95110  1.0000 -0.1801806381
O   O12       1.0  0.16340  0.85120  0.04890  1.0000 -0.1801806381
O   O13       1.0  0.03450  0.38210  0.89360  1.0000 -0.2188418322
O   O14       1.0  0.96550  0.88210  0.10640  1.0000 -0.2188418322
O   O15       1.0  0.57380  0.42650  0.35350  1.0000 -0.5396159602
O   O16       1.0  0.42620  0.92650  0.64650  1.0000 -0.5396159602
O   O17       1.0  0.59850  0.49600  0.41110  1.0000 -0.4843267017
O   O18       1.0  0.40150  0.99600  0.58890  1.0000 -0.4843267017
O   O19       1.0  0.39510  0.48820  0.38200  1.0000 -0.5184742921
O   O20       1.0  0.60490  0.98820  0.61800  1.0000 -0.5184742921
O   O21       1.0  0.37640  0.43090  0.29440  1.0000 -0.5100468808
O   O22       1.0  0.62360  0.93090  0.70560  1.0000 -0.5100468808
O   O23       1.0  0.29550  0.06680  0.56850  1.0000 -0.5498796665
O   O24       1.0  0.70450  0.56680  0.43150  1.0000 -0.5498796665
O   O25       1.0  0.40780  0.08650  0.66850  1.0000 -0.5100468808
O   O26       1.0  0.59220  0.58650  0.33150  1.0000 -0.5100468808
O   O27       1.0  0.60190  0.08270  0.70710  1.0000 -0.4869669938
O   O28       1.0  0.39810  0.58270  0.29290  1.0000 -0.4869669938
O   O29       1.0  0.59960  0.08330  0.83530  1.0000 -0.5184742921
O   O30       1.0  0.40040  0.58330  0.16470  1.0000 -0.5184742921
O   O31       1.0  0.56610  0.48290  0.09120  1.0000 -0.5396159602
O   O32       1.0  0.43390  0.98290  0.90880  1.0000 -0.5396159602
O   O33       1.0  0.59600  0.42710  0.18360  1.0000 -0.5184742921
O   O34       1.0  0.40400  0.92710  0.81640  1.0000 -0.5184742921
O   O35       1.0  0.40050  0.42150  0.13470  1.0000 -0.5498796665
O   O36       1.0  0.59950  0.92150  0.86530  1.0000 -0.5498796665
O   O37       1.0  0.36560  0.49370  0.08420  1.0000 -0.5396159602
O   O38       1.0  0.63440  0.99370  0.91580  1.0000 -0.5396159602
O   O39       1.0  0.49230  0.00270  0.75570  1.0000 -0.8092084342
O   O40       1.0  0.50770  0.50270  0.24430  1.0000 -0.8092084342
