# DDEC6 charges by PACMAN v1.1 (https://github.com/mtap-research/PACMAN-charge/)
data_2012[Zn][nan]3[ASR]2
_chemical_formula_sum              "Zn8 H100 C156 N4 O28"
_cell_length_a       11.9887
_cell_length_b       18.6365
_cell_length_c       17.9807
_cell_angle_alpha    90
_cell_angle_beta     90
_cell_angle_gamma    90

_symmetry_space_group_name_H-M    "P 1"
_symmetry_Int_Tables_number       1

loop_
  _symmetry_equiv_pos_as_xyz
  'x, y, z'

loop_
  _atom_site_type_symbol
  _atom_site_label
  _atom_site_symmetry_multiplicity
  _atom_site_fract_x
  _atom_site_fract_y
  _atom_site_fract_z
  _atom_site_occupancy
  _atom_site_charge
Zn  Zn1       1.0  0.61039  0.99103  0.69758  1.0000 0.9369056862
Zn  Zn2       1.0  0.88961  0.00897  0.69758  1.0000 0.9369056862
Zn  Zn3       1.0  0.38961  0.99103  0.80242  1.0000 0.9369056862
Zn  Zn4       1.0  0.11039  0.00897  0.80242  1.0000 0.9369056862
Zn  Zn5       1.0  0.38961  0.00897  0.30242  1.0000 0.9369056862
Zn  Zn6       1.0  0.11039  0.99103  0.30242  1.0000 0.9369056862
Zn  Zn7       1.0  0.61039  0.00897  0.19758  1.0000 0.9369056862
Zn  Zn8       1.0  0.88961  0.99103  0.19758  1.0000 0.9369056862
H   H1        1.0  0.12600  0.20730  0.24330  1.0000 0.127588727
H   H2        1.0  0.44950  0.07740  0.51030  1.0000 0.1193733171
H   H3        1.0  0.11660  0.76460  0.32960  1.0000 0.1112309588
H   H4        1.0  0.35090  0.13840  0.42030  1.0000 0.1193733171
H   H5        1.0  0.11390  0.64150  0.33070  1.0000 0.1112309588
H   H6        1.0  0.14530  0.40990  0.30380  1.0000 0.1193733171
H   H7        1.0  0.10350  0.17360  0.56510  1.0000 0.1112309588
H   H8        1.0  0.20420  0.11530  0.65520  1.0000 0.1193733171
H   H9        1.0  0.20970  0.14310  0.33700  1.0000 0.1193733171
H   H10       1.0  0.14190  0.53240  0.30550  1.0000 0.1112309588
H   H11       1.0  0.99140  0.33910  0.39360  1.0000 0.127588727
H   H12       1.0  0.07450  0.27380  0.48850  1.0000 0.1112309588
H   H13       1.0  0.25000  0.00000  0.90882  1.0000 0.3741220873
H   H14       1.0  0.37400  0.79270  0.24330  1.0000 0.127588727
H   H15       1.0  0.05050  0.92260  0.51030  1.0000 0.1193733171
H   H16       1.0  0.38340  0.23540  0.32960  1.0000 0.1112309588
H   H17       1.0  0.14910  0.86160  0.42030  1.0000 0.1193733171
H   H18       1.0  0.38610  0.35850  0.33070  1.0000 0.1112309588
H   H19       1.0  0.35470  0.59010  0.30380  1.0000 0.1193733171
H   H20       1.0  0.39650  0.82640  0.56510  1.0000 0.1112309588
H   H21       1.0  0.29580  0.88470  0.65520  1.0000 0.1193733171
H   H22       1.0  0.29030  0.85690  0.33700  1.0000 0.1193733171
H   H23       1.0  0.35810  0.46760  0.30550  1.0000 0.1112309588
H   H24       1.0  0.50860  0.66090  0.39360  1.0000 0.127588727
H   H25       1.0  0.42550  0.72620  0.48850  1.0000 0.1112309588
H   H26       1.0  0.87400  0.20730  0.25670  1.0000 0.127588727
H   H27       1.0  0.55050  0.07740  0.98970  1.0000 0.1193733171
H   H28       1.0  0.88340  0.76460  0.17040  1.0000 0.1112309588
H   H29       1.0  0.64910  0.13840  0.07970  1.0000 0.1193733171
H   H30       1.0  0.88610  0.64150  0.16930  1.0000 0.1112309588
H   H31       1.0  0.85470  0.40990  0.19620  1.0000 0.1193733171
H   H32       1.0  0.89650  0.17360  0.93490  1.0000 0.1112309588
H   H33       1.0  0.79580  0.11530  0.84480  1.0000 0.1193733171
H   H34       1.0  0.79030  0.14310  0.16300  1.0000 0.1193733171
H   H35       1.0  0.85810  0.53240  0.19450  1.0000 0.1112309588
H   H36       1.0  0.00860  0.33910  0.10640  1.0000 0.127588727
H   H37       1.0  0.92550  0.27380  0.01150  1.0000 0.1112309588
H   H38       1.0  0.75000  0.00000  0.59118  1.0000 0.3741220873
H   H39       1.0  0.62600  0.79270  0.25670  1.0000 0.127588727
H   H40       1.0  0.94950  0.92260  0.98970  1.0000 0.1193733171
H   H41       1.0  0.61660  0.23540  0.17040  1.0000 0.1112309588
H   H42       1.0  0.85090  0.86160  0.07970  1.0000 0.1193733171
H   H43       1.0  0.61390  0.35850  0.16930  1.0000 0.1112309588
H   H44       1.0  0.64530  0.59010  0.19620  1.0000 0.1193733171
H   H45       1.0  0.60350  0.82640  0.93490  1.0000 0.1112309588
H   H46       1.0  0.70420  0.88470  0.84480  1.0000 0.1193733171
H   H47       1.0  0.70970  0.85690  0.16300  1.0000 0.1193733171
H   H48       1.0  0.64190  0.46760  0.19450  1.0000 0.1112309588
H   H49       1.0  0.49140  0.66090  0.10640  1.0000 0.127588727
H   H50       1.0  0.57450  0.72620  0.01150  1.0000 0.1112309588
H   H51       1.0  0.87400  0.79270  0.75670  1.0000 0.127588727
H   H52       1.0  0.55050  0.92260  0.48970  1.0000 0.1193733171
H   H53       1.0  0.88340  0.23540  0.67040  1.0000 0.1112309588
H   H54       1.0  0.64910  0.86160  0.57970  1.0000 0.1193733171
H   H55       1.0  0.88610  0.35850  0.66930  1.0000 0.1112309588
H   H56       1.0  0.85470  0.59010  0.69620  1.0000 0.1193733171
H   H57       1.0  0.89650  0.82640  0.43490  1.0000 0.1112309588
H   H58       1.0  0.79580  0.88470  0.34480  1.0000 0.1193733171
H   H59       1.0  0.79030  0.85690  0.66300  1.0000 0.1193733171
H   H60       1.0  0.85810  0.46760  0.69450  1.0000 0.1112309588
H   H61       1.0  0.00860  0.66090  0.60640  1.0000 0.127588727
H   H62       1.0  0.92550  0.72620  0.51150  1.0000 0.1112309588
H   H63       1.0  0.75000  0.00000  0.09118  1.0000 0.3741220873
H   H64       1.0  0.62600  0.20730  0.75670  1.0000 0.127588727
H   H65       1.0  0.94950  0.07740  0.48970  1.0000 0.1193733171
H   H66       1.0  0.61660  0.76460  0.67040  1.0000 0.1112309588
H   H67       1.0  0.85090  0.13840  0.57970  1.0000 0.1193733171
H   H68       1.0  0.61390  0.64150  0.66930  1.0000 0.1112309588
H   H69       1.0  0.64530  0.40990  0.69620  1.0000 0.1193733171
H   H70       1.0  0.60350  0.17360  0.43490  1.0000 0.1112309588
H   H71       1.0  0.70420  0.11530  0.34480  1.0000 0.1193733171
H   H72       1.0  0.70970  0.14310  0.66300  1.0000 0.1193733171
H   H73       1.0  0.64190  0.53240  0.69450  1.0000 0.1112309588
H   H74       1.0  0.49140  0.33910  0.60640  1.0000 0.127588727
H   H75       1.0  0.57450  0.27380  0.51150  1.0000 0.1112309588
H   H76       1.0  0.12600  0.79270  0.74330  1.0000 0.127588727
H   H77       1.0  0.44950  0.92260  0.01030  1.0000 0.1193733171
H   H78       1.0  0.11660  0.23540  0.82960  1.0000 0.1112309588
H   H79       1.0  0.35090  0.86160  0.92030  1.0000 0.1193733171
H   H80       1.0  0.11390  0.35850  0.83070  1.0000 0.1112309588
H   H81       1.0  0.14530  0.59010  0.80380  1.0000 0.1193733171
H   H82       1.0  0.10350  0.82640  0.06510  1.0000 0.1112309588
H   H83       1.0  0.20420  0.88470  0.15520  1.0000 0.1193733171
H   H84       1.0  0.20970  0.85690  0.83700  1.0000 0.1193733171
H   H85       1.0  0.14190  0.46760  0.80550  1.0000 0.1112309588
H   H86       1.0  0.99140  0.66090  0.89360  1.0000 0.127588727
H   H87       1.0  0.07450  0.72620  0.98850  1.0000 0.1112309588
H   H88       1.0  0.25000  0.00000  0.40882  1.0000 0.3741220873
H   H89       1.0  0.37400  0.20730  0.74330  1.0000 0.127588727
H   H90       1.0  0.05050  0.07740  0.01030  1.0000 0.1193733171
H   H91       1.0  0.38340  0.76460  0.82960  1.0000 0.1112309588
H   H92       1.0  0.14910  0.13840  0.92030  1.0000 0.1193733171
H   H93       1.0  0.38610  0.64150  0.83070  1.0000 0.1112309588
H   H94       1.0  0.35470  0.40990  0.80380  1.0000 0.1193733171
H   H95       1.0  0.39650  0.17360  0.06510  1.0000 0.1112309588
H   H96       1.0  0.29580  0.11530  0.15520  1.0000 0.1193733171
H   H97       1.0  0.29030  0.14310  0.83700  1.0000 0.1193733171
H   H98       1.0  0.35810  0.53240  0.80550  1.0000 0.1112309588
H   H99       1.0  0.50860  0.33910  0.89360  1.0000 0.127588727
H   H100      1.0  0.42550  0.27380  0.98850  1.0000 0.1112309588
C   C1        1.0  0.40150  0.05240  0.65070  1.0000 0.590548276
C   C2        1.0  0.33730  0.09000  0.59230  1.0000 -0.0404693816
C   C3        1.0  0.11630  0.22140  0.29250  1.0000 -0.1683797646
C   C4        1.0  0.05190  0.28040  0.30850  1.0000 0.1691430252
C   C5        1.0  0.38030  0.09710  0.52170  1.0000 -0.0921805604
C   C6        1.0  0.06910  0.74010  0.29750  1.0000 -0.0998704094
C   C7        1.0  0.32050  0.13360  0.46760  1.0000 -0.1564876992
C   C8        1.0  0.21640  0.16330  0.48230  1.0000 0.0795835298
C   C9        1.0  0.15500  0.20220  0.42330  1.0000 0.0507853258
C   C10       1.0  0.06790  0.66590  0.29770  1.0000 -0.1535314877
C   C11       1.0  0.08580  0.43410  0.28210  1.0000 -0.1805990827
C   C12       1.0  0.17340  0.15500  0.55370  1.0000 -0.1404633481
C   C13       1.0  0.23370  0.11960  0.60750  1.0000 -0.0921805604
C   C14       1.0  0.16670  0.18300  0.34900  1.0000 -0.1155459393
C   C15       1.0  0.08380  0.50790  0.28240  1.0000 -0.12931151
C   C16       1.0  0.03600  0.29980  0.38210  1.0000 -0.1805990827
C   C17       1.0  0.08660  0.26070  0.43920  1.0000 -0.12931151
C   C18       1.0  0.09850  0.94760  0.65070  1.0000 0.590548276
C   C19       1.0  0.16270  0.91000  0.59230  1.0000 -0.0404693816
C   C20       1.0  0.38370  0.77860  0.29250  1.0000 -0.1683797646
C   C21       1.0  0.44810  0.71960  0.30850  1.0000 0.1691430252
C   C22       1.0  0.11970  0.90290  0.52170  1.0000 -0.0921805604
C   C23       1.0  0.43090  0.25990  0.29750  1.0000 -0.0998704094
C   C24       1.0  0.17950  0.86640  0.46760  1.0000 -0.1564876992
C   C25       1.0  0.28360  0.83670  0.48230  1.0000 0.0795835298
C   C26       1.0  0.34500  0.79780  0.42330  1.0000 0.0507853258
C   C27       1.0  0.43210  0.33410  0.29770  1.0000 -0.1535314877
C   C28       1.0  0.41420  0.56590  0.28210  1.0000 -0.1805990827
C   C29       1.0  0.32660  0.84500  0.55370  1.0000 -0.1404633481
C   C30       1.0  0.26630  0.88040  0.60750  1.0000 -0.0921805604
C   C31       1.0  0.33333  0.81700  0.34900  1.0000 -0.1155459393
C   C32       1.0  0.41620  0.49210  0.28240  1.0000 -0.12931151
C   C33       1.0  0.46400  0.70020  0.38210  1.0000 -0.1872295127
C   C34       1.0  0.41340  0.73930  0.43920  1.0000 -0.12931151
C   C35       1.0  0.59850  0.05240  0.84930  1.0000 0.590548276
C   C36       1.0  0.66270  0.09000  0.90770  1.0000 -0.0404693816
C   C37       1.0  0.88370  0.22140  0.20750  1.0000 -0.1683797646
C   C38       1.0  0.94810  0.28040  0.19150  1.0000 0.1691430252
C   C39       1.0  0.61970  0.09710  0.97830  1.0000 -0.0921805604
C   C40       1.0  0.93090  0.74010  0.20250  1.0000 -0.0998704094
C   C41       1.0  0.67950  0.13360  0.03240  1.0000 -0.1564876992
C   C42       1.0  0.78360  0.16330  0.01770  1.0000 0.0795835298
C   C43       1.0  0.84500  0.20220  0.07670  1.0000 0.0507853258
C   C44       1.0  0.93210  0.66590  0.20230  1.0000 -0.1535314877
C   C45       1.0  0.91420  0.43410  0.21790  1.0000 -0.1805990827
C   C46       1.0  0.82660  0.15500  0.94630  1.0000 -0.1404633481
C   C47       1.0  0.76630  0.11960  0.89250  1.0000 -0.0921805604
C   C48       1.0  0.83330  0.18300  0.15100  1.0000 -0.1155459393
C   C49       1.0  0.91620  0.50790  0.21760  1.0000 -0.12931151
C   C50       1.0  0.96400  0.29980  0.11790  1.0000 -0.1872295127
C   C51       1.0  0.91340  0.26070  0.06080  1.0000 -0.12931151
C   C52       1.0  0.90150  0.94760  0.84930  1.0000 0.590548276
C   C53       1.0  0.83730  0.91000  0.90770  1.0000 -0.0404693816
C   C54       1.0  0.61630  0.77860  0.20750  1.0000 -0.1683797646
C   C55       1.0  0.55190  0.71960  0.19150  1.0000 0.1691430252
C   C56       1.0  0.88030  0.90290  0.97830  1.0000 -0.0921805604
C   C57       1.0  0.56910  0.25990  0.20250  1.0000 -0.0998704094
C   C58       1.0  0.82050  0.86640  0.03240  1.0000 -0.1564876992
C   C59       1.0  0.71640  0.83670  0.01770  1.0000 0.0795835298
C   C60       1.0  0.65500  0.79780  0.07670  1.0000 0.0507853258
C   C61       1.0  0.56790  0.33410  0.20230  1.0000 -0.1535314877
C   C62       1.0  0.58580  0.56590  0.21790  1.0000 -0.1805990827
C   C63       1.0  0.67340  0.84500  0.94630  1.0000 -0.1404633481
C   C64       1.0  0.73370  0.88040  0.89250  1.0000 -0.0921805604
C   C65       1.0  0.66667  0.81700  0.15100  1.0000 -0.1155459393
C   C66       1.0  0.58380  0.49210  0.21760  1.0000 -0.12931151
C   C67       1.0  0.53600  0.70020  0.11790  1.0000 -0.1872295127
C   C68       1.0  0.58660  0.73930  0.06080  1.0000 -0.12931151
C   C69       1.0  0.59850  0.94760  0.34930  1.0000 0.590548276
C   C70       1.0  0.66270  0.91000  0.40770  1.0000 -0.0404693816
C   C71       1.0  0.88370  0.77860  0.70750  1.0000 -0.1683797646
C   C72       1.0  0.94810  0.71960  0.69150  1.0000 0.1691430252
C   C73       1.0  0.61970  0.90290  0.47830  1.0000 -0.0921805604
C   C74       1.0  0.93090  0.25990  0.70250  1.0000 -0.0998704094
C   C75       1.0  0.67950  0.86640  0.53240  1.0000 -0.1564876992
C   C76       1.0  0.78360  0.83670  0.51770  1.0000 0.0795835298
C   C77       1.0  0.84500  0.79780  0.57670  1.0000 0.0507853258
C   C78       1.0  0.93210  0.33410  0.70230  1.0000 -0.1535314877
C   C79       1.0  0.91420  0.56590  0.71790  1.0000 -0.1805990827
C   C80       1.0  0.82660  0.84500  0.44630  1.0000 -0.1404633481
C   C81       1.0  0.76630  0.88040  0.39250  1.0000 -0.0921805604
C   C82       1.0  0.83330  0.81700  0.65100  1.0000 -0.1155459393
C   C83       1.0  0.91620  0.49210  0.71760  1.0000 -0.12931151
C   C84       1.0  0.96400  0.70020  0.61790  1.0000 -0.1872295127
C   C85       1.0  0.91340  0.73930  0.56080  1.0000 -0.12931151
C   C86       1.0  0.90150  0.05240  0.34930  1.0000 0.590548276
C   C87       1.0  0.83730  0.09000  0.40770  1.0000 -0.0404693816
C   C88       1.0  0.61630  0.22140  0.70750  1.0000 -0.1683797646
C   C89       1.0  0.55190  0.28040  0.69150  1.0000 0.1691430252
C   C90       1.0  0.88030  0.09710  0.47830  1.0000 -0.0921805604
C   C91       1.0  0.56910  0.74010  0.70250  1.0000 -0.0998704094
C   C92       1.0  0.82050  0.13360  0.53240  1.0000 -0.1564876992
C   C93       1.0  0.71640  0.16330  0.51770  1.0000 0.0795835298
C   C94       1.0  0.65500  0.20220  0.57670  1.0000 0.0507853258
C   C95       1.0  0.56790  0.66590  0.70230  1.0000 -0.1535314877
C   C96       1.0  0.58580  0.43410  0.71790  1.0000 -0.1805990827
C   C97       1.0  0.67340  0.15500  0.44630  1.0000 -0.1404633481
C   C98       1.0  0.73370  0.11960  0.39250  1.0000 -0.0921805604
C   C99       1.0  0.66667  0.18300  0.65100  1.0000 -0.1155459393
C   C100      1.0  0.58380  0.50790  0.71760  1.0000 -0.12931151
C   C101      1.0  0.53600  0.29980  0.61790  1.0000 -0.1872295127
C   C102      1.0  0.58660  0.26070  0.56080  1.0000 -0.12931151
C   C103      1.0  0.40150  0.94760  0.15070  1.0000 0.590548276
C   C104      1.0  0.33730  0.91000  0.09230  1.0000 -0.0404693816
C   C105      1.0  0.11630  0.77860  0.79250  1.0000 -0.1683797646
C   C106      1.0  0.05190  0.71960  0.80850  1.0000 0.1691430252
C   C107      1.0  0.38030  0.90290  0.02170  1.0000 -0.0921805604
C   C108      1.0  0.06910  0.25990  0.79750  1.0000 -0.0998704094
C   C109      1.0  0.32050  0.86640  0.96760  1.0000 -0.1564876992
C   C110      1.0  0.21640  0.83670  0.98230  1.0000 0.0795835298
C   C111      1.0  0.15500  0.79780  0.92330  1.0000 0.0507853258
C   C112      1.0  0.06790  0.33410  0.79770  1.0000 -0.1535314877
C   C113      1.0  0.08580  0.56590  0.78210  1.0000 -0.1805990827
C   C114      1.0  0.17340  0.84500  0.05370  1.0000 -0.1404633481
C   C115      1.0  0.23370  0.88040  0.10750  1.0000 -0.0921805604
C   C116      1.0  0.16670  0.81700  0.84900  1.0000 -0.1155459393
C   C117      1.0  0.08380  0.49210  0.78240  1.0000 -0.12931151
C   C118      1.0  0.03600  0.70020  0.88210  1.0000 -0.1872295127
C   C119      1.0  0.08660  0.73930  0.93920  1.0000 -0.12931151
C   C120      1.0  0.09850  0.05240  0.15070  1.0000 0.590548276
C   C121      1.0  0.16270  0.09000  0.09230  1.0000 -0.0404693816
C   C122      1.0  0.38370  0.22140  0.79250  1.0000 -0.1683797646
C   C123      1.0  0.44810  0.28040  0.80850  1.0000 0.1691430252
C   C124      1.0  0.11970  0.09710  0.02170  1.0000 -0.0921805604
C   C125      1.0  0.43090  0.74010  0.79750  1.0000 -0.0998704094
C   C126      1.0  0.17950  0.13360  0.96760  1.0000 -0.1564876992
C   C127      1.0  0.28360  0.16330  0.98230  1.0000 0.0795835298
C   C128      1.0  0.34500  0.20220  0.92330  1.0000 0.0507853258
C   C129      1.0  0.43210  0.66590  0.79770  1.0000 -0.1535314877
C   C130      1.0  0.41420  0.43410  0.78210  1.0000 -0.1805990827
C   C131      1.0  0.32660  0.15500  0.05370  1.0000 -0.1404633481
C   C132      1.0  0.26630  0.11960  0.10750  1.0000 -0.0921805604
C   C133      1.0  0.33333  0.18300  0.84900  1.0000 -0.1155459393
C   C134      1.0  0.41620  0.50790  0.78240  1.0000 -0.12931151
C   C135      1.0  0.46400  0.29980  0.88210  1.0000 -0.1872295127
C   C136      1.0  0.41340  0.26070  0.93920  1.0000 -0.12931151
C   C137      1.0  0.00000  0.39580  0.25000  1.0000 0.1796064865
C   C138      1.0  0.00000  0.62680  0.25000  1.0000 0.0859416429
C   C139      1.0  0.00000  0.85870  0.25000  1.0000 0.590548276
C   C140      1.0  0.00000  0.54710  0.25000  1.0000 0.0507853258
C   C141      1.0  0.00000  0.77820  0.25000  1.0000 -0.031822329
C   C142      1.0  0.50000  0.60420  0.25000  1.0000 0.1796064865
C   C143      1.0  0.50000  0.37320  0.25000  1.0000 0.0859416429
C   C144      1.0  0.50000  0.14130  0.25000  1.0000 0.590548276
C   C145      1.0  0.50000  0.45290  0.25000  1.0000 0.0507853258
C   C146      1.0  0.50000  0.22180  0.25000  1.0000 -0.031822329
C   C147      1.0  0.00000  0.60420  0.75000  1.0000 0.1796064865
C   C148      1.0  0.00000  0.37320  0.75000  1.0000 0.0859416429
C   C149      1.0  0.00000  0.14130  0.75000  1.0000 0.590548276
C   C150      1.0  0.00000  0.45290  0.75000  1.0000 0.0507853258
C   C151      1.0  0.00000  0.22180  0.75000  1.0000 -0.031822329
C   C152      1.0  0.50000  0.39580  0.75000  1.0000 0.1796064865
C   C153      1.0  0.50000  0.62680  0.75000  1.0000 0.0859416429
C   C154      1.0  0.50000  0.85870  0.75000  1.0000 0.590548276
C   C155      1.0  0.50000  0.54710  0.75000  1.0000 0.0507853258
C   C156      1.0  0.50000  0.77820  0.75000  1.0000 -0.031822329
N   N1        1.0  0.00000  0.31960  0.25000  1.0000 -0.1872295127
N   N2        1.0  0.50000  0.68040  0.25000  1.0000 -0.1872295127
N   N3        1.0  0.00000  0.68040  0.75000  1.0000 -0.1872295127
N   N4        1.0  0.50000  0.31960  0.75000  1.0000 -0.1872295127
O   O1        1.0  0.49480  0.02658  0.63231  1.0000 -0.5563594062
O   O2        1.0  0.07770  0.88950  0.28368  1.0000 -0.5509166001
O   O3        1.0  0.35980  0.04900  0.71458  1.0000 -0.5509166001
O   O4        1.0  0.00520  0.97342  0.63231  1.0000 -0.5563594062
O   O5        1.0  0.42230  0.11050  0.28368  1.0000 -0.5509166001
O   O6        1.0  0.14020  0.95100  0.71458  1.0000 -0.5509166001
O   O7        1.0  0.50520  0.02658  0.86769  1.0000 -0.5563594062
O   O8        1.0  0.92230  0.88950  0.21632  1.0000 -0.5509166001
O   O9        1.0  0.64020  0.04900  0.78542  1.0000 -0.5509166001
O   O10       1.0  0.99480  0.97342  0.86769  1.0000 -0.5563594062
O   O11       1.0  0.57770  0.11050  0.21632  1.0000 -0.5509166001
O   O12       1.0  0.85980  0.95100  0.78542  1.0000 -0.5509166001
O   O13       1.0  0.50520  0.97342  0.36769  1.0000 -0.5563594062
O   O14       1.0  0.92230  0.11050  0.71632  1.0000 -0.5509166001
O   O15       1.0  0.64020  0.95100  0.28542  1.0000 -0.5509166001
O   O16       1.0  0.99480  0.02658  0.36769  1.0000 -0.5563594062
O   O17       1.0  0.57770  0.88950  0.71632  1.0000 -0.5509166001
O   O18       1.0  0.85980  0.04900  0.28542  1.0000 -0.5563594062
O   O19       1.0  0.49480  0.97342  0.13231  1.0000 -0.5563594062
O   O20       1.0  0.07770  0.11050  0.78368  1.0000 -0.5509166001
O   O21       1.0  0.35980  0.95100  0.21458  1.0000 -0.5509166001
O   O22       1.0  0.00520  0.02658  0.13231  1.0000 -0.5563594062
O   O23       1.0  0.42230  0.88950  0.78368  1.0000 -0.5509166001
O   O24       1.0  0.14020  0.04900  0.21458  1.0000 -0.5509166001
O   O25       1.0  0.75000  0.00000  0.64680  1.0000 -0.8446226079
O   O26       1.0  0.25000  0.00000  0.85320  1.0000 -0.8455203731
O   O27       1.0  0.25000  0.00000  0.35320  1.0000 -0.8455203731
O   O28       1.0  0.75000  0.00000  0.14680  1.0000 -0.8446226079
