# DDEC6 charges by PACMAN v1.1 (https://github.com/mtap-research/PACMAN-charge/)
data_2012[Cu][dia]3[ASR]2
_chemical_formula_sum              "Cu8 H88 C72 N24 O24"
_cell_length_a       9.724
_cell_length_b       10.764
_cell_length_c       26.969
_cell_angle_alpha    90
_cell_angle_beta     90
_cell_angle_gamma    90

_symmetry_space_group_name_H-M    "P 1"
_symmetry_Int_Tables_number       1

loop_
  _symmetry_equiv_pos_as_xyz
  'x, y, z'

loop_
  _atom_site_type_symbol
  _atom_site_label
  _atom_site_symmetry_multiplicity
  _atom_site_fract_x
  _atom_site_fract_y
  _atom_site_fract_z
  _atom_site_occupancy
  _atom_site_charge
Cu  Cu1       1.0  0.18680  0.89000  0.16609  1.0000 0.7661390832
Cu  Cu2       1.0  0.18680  0.11000  0.83391  1.0000 0.7661390832
Cu  Cu3       1.0  0.81320  0.61000  0.66609  1.0000 0.7661390832
Cu  Cu4       1.0  0.81320  0.39000  0.33391  1.0000 0.7661390832
Cu  Cu5       1.0  0.31354  0.11481  0.33226  1.0000 0.7169335863
Cu  Cu6       1.0  0.31354  0.88519  0.66774  1.0000 0.7169335863
Cu  Cu7       1.0  0.68646  0.38519  0.83226  1.0000 0.7169335863
Cu  Cu8       1.0  0.68646  0.61481  0.16774  1.0000 0.7169335863
H   H1        1.0  0.96560  0.81910  0.26310  1.0000 0.1114639646
H   H2        1.0  0.96560  0.18090  0.73690  1.0000 0.1114639646
H   H3        1.0  0.03440  0.68090  0.76310  1.0000 0.1114639646
H   H4        1.0  0.03440  0.31910  0.23690  1.0000 0.1114639646
H   H5        1.0  0.58170  0.07590  0.24380  1.0000 0.1114639646
H   H6        1.0  0.58170  0.92410  0.75620  1.0000 0.1114639646
H   H7        1.0  0.41830  0.42410  0.74380  1.0000 0.1114639646
H   H8        1.0  0.41830  0.57590  0.25620  1.0000 0.1114639646
H   H9        1.0  0.08710  0.21170  0.39850  1.0000 0.2900834015
H   H10       1.0  0.08710  0.78830  0.60150  1.0000 0.2900834015
H   H11       1.0  0.91290  0.28830  0.89850  1.0000 0.2900834015
H   H12       1.0  0.91290  0.71170  0.10150  1.0000 0.2900834015
H   H13       1.0  0.05680  0.04060  0.09870  1.0000 0.1493669382
H   H14       1.0  0.05680  0.95940  0.90130  1.0000 0.1493669382
H   H15       1.0  0.94320  0.45940  0.59870  1.0000 0.1493669382
H   H16       1.0  0.94320  0.54060  0.40130  1.0000 0.1493669382
H   H17       1.0  0.03870  0.04560  0.04100  1.0000 0.1493669382
H   H18       1.0  0.03870  0.95440  0.95900  1.0000 0.1493669382
H   H19       1.0  0.96130  0.45440  0.54100  1.0000 0.1493669382
H   H20       1.0  0.96130  0.54560  0.45900  1.0000 0.1493669382
H   H21       1.0  0.13260  0.14320  0.06780  1.0000 0.155065172
H   H22       1.0  0.13260  0.85680  0.93220  1.0000 0.155065172
H   H23       1.0  0.86740  0.35680  0.56780  1.0000 0.155065172
H   H24       1.0  0.86740  0.64320  0.43220  1.0000 0.155065172
H   H25       1.0  0.45710  0.96860  0.40010  1.0000 0.1415485512
H   H26       1.0  0.45710  0.03140  0.59990  1.0000 0.1415485512
H   H27       1.0  0.54290  0.53140  0.90010  1.0000 0.1415485512
H   H28       1.0  0.54290  0.46860  0.09990  1.0000 0.1415485512
H   H29       1.0  0.39780  0.86730  0.43590  1.0000 0.1493669382
H   H30       1.0  0.39780  0.13270  0.56410  1.0000 0.1493669382
H   H31       1.0  0.60220  0.63270  0.93590  1.0000 0.1493669382
H   H32       1.0  0.60220  0.36730  0.06410  1.0000 0.1493669382
H   H33       1.0  0.47980  0.98050  0.45740  1.0000 0.1493669382
H   H34       1.0  0.47980  0.01950  0.54260  1.0000 0.1493669382
H   H35       1.0  0.52020  0.51950  0.95740  1.0000 0.1493669382
H   H36       1.0  0.52020  0.48050  0.04260  1.0000 0.1493669382
H   H37       1.0  0.92040  0.22090  0.46310  1.0000 0.1493669382
H   H38       1.0  0.92040  0.77910  0.53690  1.0000 0.1493669382
H   H39       1.0  0.07960  0.27910  0.96310  1.0000 0.1493669382
H   H40       1.0  0.07960  0.72090  0.03690  1.0000 0.1493669382
H   H41       1.0  0.98990  0.20560  0.51520  1.0000 0.1493669382
H   H42       1.0  0.98990  0.79440  0.48480  1.0000 0.1493669382
H   H43       1.0  0.01010  0.29440  0.01520  1.0000 0.1493669382
H   H44       1.0  0.01010  0.70560  0.98480  1.0000 0.1493669382
H   H45       1.0  0.90800  0.09470  0.49180  1.0000 0.1415485512
H   H46       1.0  0.90800  0.90530  0.50820  1.0000 0.1415485512
H   H47       1.0  0.09200  0.40530  0.99180  1.0000 0.1415485512
H   H48       1.0  0.09200  0.59470  0.00820  1.0000 0.1415485512
H   H49       1.0  0.41390  0.77730  0.09940  1.0000 0.2900834015
H   H50       1.0  0.41390  0.22270  0.90060  1.0000 0.2900834015
H   H51       1.0  0.58610  0.72270  0.59940  1.0000 0.2900834015
H   H52       1.0  0.58610  0.27730  0.40060  1.0000 0.2900834015
H   H53       1.0  0.48260  0.22510  0.19120  1.0000 0.1493669382
H   H54       1.0  0.48260  0.77490  0.80880  1.0000 0.1493669382
H   H55       1.0  0.51740  0.27490  0.69120  1.0000 0.1493669382
H   H56       1.0  0.51740  0.72510  0.30880  1.0000 0.1493669382
H   H57       1.0  0.60940  0.28410  0.21830  1.0000 0.1415485512
H   H58       1.0  0.60940  0.71590  0.78170  1.0000 0.1415485512
H   H59       1.0  0.39060  0.21590  0.71830  1.0000 0.1415485512
H   H60       1.0  0.39060  0.78410  0.28170  1.0000 0.1415485512
H   H61       1.0  0.45980  0.31480  0.23620  1.0000 0.1415485512
H   H62       1.0  0.45980  0.68520  0.76380  1.0000 0.1415485512
H   H63       1.0  0.54020  0.18520  0.73620  1.0000 0.1415485512
H   H64       1.0  0.54020  0.81480  0.26380  1.0000 0.1415485512
H   H65       1.0  0.54880  0.86730  0.98310  1.0000 0.1493669382
H   H66       1.0  0.54880  0.13270  0.01690  1.0000 0.1493669382
H   H67       1.0  0.45120  0.63270  0.48310  1.0000 0.1493669382
H   H68       1.0  0.45120  0.36730  0.51690  1.0000 0.1493669382
H   H69       1.0  0.52630  0.74040  0.01040  1.0000 0.1415485512
H   H70       1.0  0.52630  0.25960  0.98960  1.0000 0.1415485512
H   H71       1.0  0.47370  0.75960  0.51040  1.0000 0.1415485512
H   H72       1.0  0.47370  0.24040  0.48960  1.0000 0.1415485512
H   H73       1.0  0.61470  0.84480  0.03540  1.0000 0.1493669382
H   H74       1.0  0.61470  0.15520  0.96460  1.0000 0.1493669382
H   H75       1.0  0.38530  0.65520  0.53540  1.0000 0.1493669382
H   H76       1.0  0.38530  0.34480  0.46460  1.0000 0.1493669382
H   H77       1.0  0.90400  0.02210  0.28380  1.0000 0.1415485512
H   H78       1.0  0.90400  0.97790  0.71620  1.0000 0.1415485512
H   H79       1.0  0.09600  0.47790  0.78380  1.0000 0.1415485512
H   H80       1.0  0.09600  0.52210  0.21620  1.0000 0.1415485512
H   H81       1.0  0.77940  0.95910  0.25690  1.0000 0.1338293186
H   H82       1.0  0.77940  0.04090  0.74310  1.0000 0.1338293186
H   H83       1.0  0.22060  0.54090  0.75690  1.0000 0.1338293186
H   H84       1.0  0.22060  0.45910  0.24310  1.0000 0.1338293186
H   H85       1.0  0.87360  0.05260  0.22810  1.0000 0.1415485512
H   H86       1.0  0.87360  0.94740  0.77190  1.0000 0.1415485512
H   H87       1.0  0.12640  0.44740  0.72810  1.0000 0.1415485512
H   H88       1.0  0.12640  0.55260  0.27190  1.0000 0.1415485512
C   C1        1.0  0.17960  0.98800  0.26030  1.0000 0.3608288846
C   C2        1.0  0.17960  0.01200  0.73970  1.0000 0.3608288846
C   C3        1.0  0.82040  0.51200  0.76030  1.0000 0.3608288846
C   C4        1.0  0.82040  0.48800  0.23970  1.0000 0.3608288846
C   C5        1.0  0.31450  0.02650  0.23766  1.0000 0.3454891524
C   C6        1.0  0.31450  0.97350  0.76234  1.0000 0.3454891524
C   C7        1.0  0.68550  0.47350  0.73766  1.0000 0.3454891524
C   C8        1.0  0.68550  0.52650  0.26234  1.0000 0.3454891524
C   C9        1.0  0.19160  0.03550  0.47664  1.0000 -0.1282595967
C   C10       1.0  0.19160  0.96450  0.52336  1.0000 -0.1282595967
C   C11       1.0  0.80840  0.46450  0.97664  1.0000 -0.1282595967
C   C12       1.0  0.80840  0.53550  0.02336  1.0000 -0.1282595967
C   C13       1.0  0.09410  0.11950  0.46070  1.0000 0.1798664114
C   C14       1.0  0.09410  0.88050  0.53930  1.0000 0.1798664114
C   C15       1.0  0.90590  0.38050  0.96070  1.0000 0.1798664114
C   C16       1.0  0.90590  0.61950  0.03930  1.0000 0.1798664114
C   C17       1.0  0.58370  0.18190  0.30870  1.0000 0.5660501501
C   C18       1.0  0.58370  0.81810  0.69130  1.0000 0.5660501501
C   C19       1.0  0.41630  0.31810  0.80870  1.0000 0.5660501501
C   C20       1.0  0.41630  0.68190  0.19130  1.0000 0.5660501501
C   C21       1.0  0.96350  0.88310  0.23720  1.0000 0.0498768507
C   C22       1.0  0.96350  0.11690  0.76280  1.0000 0.0498768507
C   C23       1.0  0.03650  0.61690  0.73720  1.0000 0.0498768507
C   C24       1.0  0.03650  0.38310  0.26280  1.0000 0.0498768507
C   C25       1.0  0.91610  0.82680  0.18830  1.0000 0.5618474862
C   C26       1.0  0.91610  0.17320  0.81170  1.0000 0.5618474862
C   C27       1.0  0.08390  0.67320  0.68830  1.0000 0.5618474862
C   C28       1.0  0.08390  0.32680  0.31170  1.0000 0.5618474862
C   C29       1.0  0.28230  0.02850  0.43650  1.0000 0.2073157957
C   C30       1.0  0.28230  0.97150  0.56350  1.0000 0.2073157957
C   C31       1.0  0.71770  0.47150  0.93650  1.0000 0.2073157957
C   C32       1.0  0.71770  0.52850  0.06350  1.0000 0.2073157957
C   C33       1.0  0.52310  0.14080  0.25810  1.0000 0.0498768507
C   C34       1.0  0.52310  0.85920  0.74190  1.0000 0.0498768507
C   C35       1.0  0.47690  0.35920  0.75810  1.0000 0.0498768507
C   C36       1.0  0.47690  0.64080  0.24190  1.0000 0.0498768507
C   C37       1.0  0.10190  0.05840  0.06790  1.0000 -0.4807092467
C   C38       1.0  0.10190  0.94160  0.93210  1.0000 -0.4807092467
C   C39       1.0  0.89810  0.44160  0.56790  1.0000 -0.4807092467
C   C40       1.0  0.89810  0.55840  0.43210  1.0000 -0.4807092467
C   C41       1.0  0.41690  0.95430  0.43210  1.0000 -0.4807092467
C   C42       1.0  0.41690  0.04570  0.56790  1.0000 -0.4807092467
C   C43       1.0  0.58310  0.54570  0.93210  1.0000 -0.4807092467
C   C44       1.0  0.58310  0.45430  0.06790  1.0000 -0.4807092467
C   C45       1.0  0.96700  0.16400  0.48480  1.0000 -0.4807092467
C   C46       1.0  0.96700  0.83600  0.51520  1.0000 -0.4807092467
C   C47       1.0  0.03300  0.33600  0.98480  1.0000 -0.4807092467
C   C48       1.0  0.03300  0.66400  0.01520  1.0000 -0.4807092467
C   C49       1.0  0.31570  0.96480  0.02354  1.0000 -0.1184067273
C   C50       1.0  0.31570  0.03520  0.97646  1.0000 -0.1184067273
C   C51       1.0  0.68430  0.53520  0.52354  1.0000 -0.1184067273
C   C52       1.0  0.68430  0.46480  0.47646  1.0000 -0.1184067273
C   C53       1.0  0.51830  0.25150  0.22260  1.0000 -0.3988708028
C   C54       1.0  0.51830  0.74850  0.77740  1.0000 -0.3988708028
C   C55       1.0  0.48170  0.24850  0.72260  1.0000 -0.3988708028
C   C56       1.0  0.48170  0.75150  0.27740  1.0000 -0.3988708028
C   C57       1.0  0.22170  0.97470  0.06190  1.0000 0.1859604797
C   C58       1.0  0.22170  0.02530  0.93810  1.0000 0.1859604797
C   C59       1.0  0.77830  0.52530  0.56190  1.0000 0.1859604797
C   C60       1.0  0.77830  0.47470  0.43810  1.0000 0.1859604797
C   C61       1.0  0.41220  0.87840  0.03850  1.0000 0.1798664114
C   C62       1.0  0.41220  0.12160  0.96150  1.0000 0.1798664114
C   C63       1.0  0.58780  0.62160  0.53850  1.0000 0.1798664114
C   C64       1.0  0.58780  0.37840  0.46150  1.0000 0.1798664114
C   C65       1.0  0.53620  0.82840  0.01480  1.0000 -0.4861960926
C   C66       1.0  0.53620  0.17160  0.98520  1.0000 -0.4861960926
C   C67       1.0  0.46380  0.67160  0.51480  1.0000 -0.4861960926
C   C68       1.0  0.46380  0.32840  0.48520  1.0000 -0.4861960926
C   C69       1.0  0.87180  0.98880  0.25290  1.0000 -0.4061523745
C   C70       1.0  0.87180  0.01120  0.74710  1.0000 -0.4061523745
C   C71       1.0  0.12820  0.51120  0.75290  1.0000 -0.4061523745
C   C72       1.0  0.12820  0.48880  0.24710  1.0000 -0.4061523745
N   N1        1.0  0.24780  0.10380  0.40089  1.0000 -0.2359782228
N   N2        1.0  0.24780  0.89620  0.59911  1.0000 -0.2359782228
N   N3        1.0  0.75220  0.39620  0.90089  1.0000 -0.2359782228
N   N4        1.0  0.75220  0.60380  0.09911  1.0000 -0.2359782228
N   N5        1.0  0.25300  0.89280  0.09869  1.0000 -0.2724847862
N   N6        1.0  0.25300  0.10720  0.90131  1.0000 -0.2724847862
N   N7        1.0  0.74700  0.60720  0.59869  1.0000 -0.2724847862
N   N8        1.0  0.74700  0.39280  0.40131  1.0000 -0.2724847862
N   N9        1.0  0.39090  0.09050  0.26795  1.0000 -0.3988708028
N   N10       1.0  0.39090  0.90950  0.73205  1.0000 -0.3988708028
N   N11       1.0  0.60910  0.40950  0.76795  1.0000 -0.3988708028
N   N12       1.0  0.60910  0.59050  0.23205  1.0000 -0.3988708028
N   N13       1.0  0.10340  0.93010  0.22797  1.0000 -0.4196232774
N   N14       1.0  0.10340  0.06990  0.77203  1.0000 -0.4196232774
N   N15       1.0  0.89660  0.56990  0.72797  1.0000 -0.4196232774
N   N16       1.0  0.89660  0.43010  0.27203  1.0000 -0.4196232774
N   N17       1.0  0.13200  0.15810  0.41578  1.0000 -0.1282595967
N   N18       1.0  0.13200  0.84190  0.58422  1.0000 -0.1282595967
N   N19       1.0  0.86800  0.34190  0.91578  1.0000 -0.1282595967
N   N20       1.0  0.86800  0.65810  0.08422  1.0000 -0.1282595967
N   N21       1.0  0.37160  0.83430  0.08301  1.0000 -0.1501987719
N   N22       1.0  0.37160  0.16570  0.91699  1.0000 -0.1501987719
N   N23       1.0  0.62840  0.66570  0.58301  1.0000 -0.1501987719
N   N24       1.0  0.62840  0.33430  0.41699  1.0000 -0.1501987719
O   O1        1.0  0.15560  0.01360  0.30481  1.0000 -0.4415443534
O   O2        1.0  0.15560  0.98640  0.69519  1.0000 -0.4415443534
O   O3        1.0  0.84440  0.48640  0.80481  1.0000 -0.4415443534
O   O4        1.0  0.84440  0.51360  0.19519  1.0000 -0.4415443534
O   O5        1.0  0.34120  0.99820  0.19220  1.0000 -0.4474936941
O   O6        1.0  0.34120  0.00180  0.80780  1.0000 -0.4474936941
O   O7        1.0  0.65880  0.50180  0.69220  1.0000 -0.4474936941
O   O8        1.0  0.65880  0.49820  0.30780  1.0000 -0.4474936941
O   O9        1.0  0.00500  0.81600  0.15320  1.0000 -0.5315887847
O   O10       1.0  0.00500  0.18400  0.84680  1.0000 -0.5315887847
O   O11       1.0  0.99500  0.68400  0.65320  1.0000 -0.5315887847
O   O12       1.0  0.99500  0.31600  0.34680  1.0000 -0.5315887847
O   O13       1.0  0.50250  0.17990  0.34607  1.0000 -0.5218607405
O   O14       1.0  0.50250  0.82010  0.65393  1.0000 -0.5218607405
O   O15       1.0  0.49750  0.32010  0.84607  1.0000 -0.5218607405
O   O16       1.0  0.49750  0.67990  0.15393  1.0000 -0.5218607405
O   O17       1.0  0.70620  0.21530  0.31211  1.0000 -0.5315887847
O   O18       1.0  0.70620  0.78470  0.68789  1.0000 -0.5315887847
O   O19       1.0  0.29380  0.28470  0.81211  1.0000 -0.5315887847
O   O20       1.0  0.29380  0.71530  0.18789  1.0000 -0.5315887847
O   O21       1.0  0.79370  0.79660  0.18591  1.0000 -0.5376775184
O   O22       1.0  0.79370  0.20340  0.81409  1.0000 -0.5376775184
O   O23       1.0  0.20630  0.70340  0.68591  1.0000 -0.5376775184
O   O24       1.0  0.20630  0.29660  0.31409  1.0000 -0.5376775184
