# DDEC6 charges by PACMAN v1.1 (https://github.com/mtap-research/PACMAN-charge/)
data_2012[Co][dia]3[ASR]6
_chemical_formula_sum              "Co4 H76 C88 N20 O16"
_cell_length_a       20.96
_cell_length_b       11.53
_cell_length_c       14.211
_cell_angle_alpha    90
_cell_angle_beta     116.24
_cell_angle_gamma    90

_symmetry_space_group_name_H-M    "P 1"
_symmetry_Int_Tables_number       1

loop_
  _symmetry_equiv_pos_as_xyz
  'x, y, z'

loop_
  _atom_site_type_symbol
  _atom_site_label
  _atom_site_symmetry_multiplicity
  _atom_site_fract_x
  _atom_site_fract_y
  _atom_site_fract_z
  _atom_site_occupancy
  _atom_site_charge
Co  Co1       1.0  0.65297  0.54120  0.56019  1.0000 0.6615261968
Co  Co2       1.0  0.65297  0.45880  0.06019  1.0000 0.6615261968
Co  Co3       1.0  0.15297  0.04120  0.56019  1.0000 0.6615261968
Co  Co4       1.0  0.15297  0.95880  0.06019  1.0000 0.6615261968
H   H1        1.0  0.80883  0.82145  0.69869  1.0000 0.1103802047
H   H2        1.0  0.80883  0.17855  0.19869  1.0000 0.1103802047
H   H3        1.0  0.30883  0.32145  0.69869  1.0000 0.1103802047
H   H4        1.0  0.30883  0.67855  0.19869  1.0000 0.1103802047
H   H5        1.0  0.02527  0.64319  0.98048  1.0000 0.1103802047
H   H6        1.0  0.02527  0.35681  0.48048  1.0000 0.1103802047
H   H7        1.0  0.52527  0.14319  0.98048  1.0000 0.1103802047
H   H8        1.0  0.52527  0.85681  0.48048  1.0000 0.1103802047
H   H9        1.0  0.92665  0.51627  0.85760  1.0000 0.1103802047
H   H10       1.0  0.92665  0.48373  0.35760  1.0000 0.1103802047
H   H11       1.0  0.42665  0.01627  0.85760  1.0000 0.1103802047
H   H12       1.0  0.42665  0.98373  0.35760  1.0000 0.1103802047
H   H13       1.0  0.74941  0.38488  0.76788  1.0000 0.1103802047
H   H14       1.0  0.74941  0.61512  0.26788  1.0000 0.1103802047
H   H15       1.0  0.24941  0.88488  0.76788  1.0000 0.1103802047
H   H16       1.0  0.24941  0.11512  0.26788  1.0000 0.1103802047
H   H17       1.0  0.52706  0.44952  0.61281  1.0000 0.1103802047
H   H18       1.0  0.52706  0.55048  0.11281  1.0000 0.1103802047
H   H19       1.0  0.02706  0.94952  0.61281  1.0000 0.1103802047
H   H20       1.0  0.02706  0.05048  0.11281  1.0000 0.1103802047
H   H21       1.0  0.55403  0.30447  0.78153  1.0000 0.1212843245
H   H22       1.0  0.55403  0.69553  0.28153  1.0000 0.1212843245
H   H23       1.0  0.05403  0.80447  0.78153  1.0000 0.1212843245
H   H24       1.0  0.05403  0.19553  0.28153  1.0000 0.1212843245
H   H25       1.0  0.75830  0.27118  0.92523  1.0000 0.1103802047
H   H26       1.0  0.75830  0.72882  0.42523  1.0000 0.1103802047
H   H27       1.0  0.25830  0.77118  0.92523  1.0000 0.1103802047
H   H28       1.0  0.25830  0.22882  0.42523  1.0000 0.1103802047
H   H29       1.0  0.68556  0.27554  0.95702  1.0000 0.1018294523
H   H30       1.0  0.68556  0.72446  0.45702  1.0000 0.1018294523
H   H31       1.0  0.18556  0.77554  0.95702  1.0000 0.1018294523
H   H32       1.0  0.18556  0.22446  0.45702  1.0000 0.1018294523
H   H33       1.0  0.76631  0.11047  0.80795  1.0000 0.0906175008
H   H34       1.0  0.76631  0.88953  0.30795  1.0000 0.0906175008
H   H35       1.0  0.26631  0.61047  0.80795  1.0000 0.0906175008
H   H36       1.0  0.26631  0.38953  0.30795  1.0000 0.0906175008
H   H37       1.0  0.73843  0.90438  0.75113  1.0000 0.0906175008
H   H38       1.0  0.73843  0.09562  0.25113  1.0000 0.0906175008
H   H39       1.0  0.23843  0.40438  0.75113  1.0000 0.0906175008
H   H40       1.0  0.23843  0.59562  0.25113  1.0000 0.0906175008
H   H41       1.0  0.57587  0.90183  0.86010  1.0000 0.1018294523
H   H42       1.0  0.57587  0.09817  0.36010  1.0000 0.1018294523
H   H43       1.0  0.07587  0.40183  0.86010  1.0000 0.1018294523
H   H44       1.0  0.07587  0.59817  0.36010  1.0000 0.1018294523
H   H45       1.0  0.60302  0.10602  0.91585  1.0000 0.1018294523
H   H46       1.0  0.60302  0.89398  0.41585  1.0000 0.1018294523
H   H47       1.0  0.10302  0.60602  0.91585  1.0000 0.1018294523
H   H48       1.0  0.10302  0.39398  0.41585  1.0000 0.1018294523
H   H49       1.0  0.58448  0.74268  0.73357  1.0000 0.1103802047
H   H50       1.0  0.58448  0.25732  0.23357  1.0000 0.1103802047
H   H51       1.0  0.08448  0.24268  0.73357  1.0000 0.1103802047
H   H52       1.0  0.08448  0.75732  0.23357  1.0000 0.1103802047
H   H53       1.0  0.66300  0.73751  0.71608  1.0000 0.1212843245
H   H54       1.0  0.66300  0.26249  0.21608  1.0000 0.1212843245
H   H55       1.0  0.16300  0.23751  0.71608  1.0000 0.1212843245
H   H56       1.0  0.16300  0.76249  0.21608  1.0000 0.1212843245
H   H57       1.0  0.78607  0.69611  0.89453  1.0000 0.1260741736
H   H58       1.0  0.78607  0.30389  0.39453  1.0000 0.1260741736
H   H59       1.0  0.28607  0.19611  0.89453  1.0000 0.1260741736
H   H60       1.0  0.28607  0.80389  0.39453  1.0000 0.1260741736
H   H61       1.0  0.80263  0.55999  0.06627  1.0000 0.1212843245
H   H62       1.0  0.80263  0.44001  0.56627  1.0000 0.1212843245
H   H63       1.0  0.30263  0.05999  0.06627  1.0000 0.1212843245
H   H64       1.0  0.30263  0.94001  0.56627  1.0000 0.1212843245
H   H65       1.0  0.58369  0.63710  0.88883  1.0000 0.1103802047
H   H66       1.0  0.58369  0.36290  0.38883  1.0000 0.1103802047
H   H67       1.0  0.08369  0.13710  0.88883  1.0000 0.1103802047
H   H68       1.0  0.08369  0.86290  0.38883  1.0000 0.1103802047
H   H69       1.0  0.94668  0.02518  0.86221  1.0000 0.3062461774
H   H70       1.0  0.94668  0.97482  0.36221  1.0000 0.3062461774
H   H71       1.0  0.44668  0.52518  0.86221  1.0000 0.3062461774
H   H72       1.0  0.44668  0.47482  0.36221  1.0000 0.3062461774
H   H73       1.0  0.86087  0.00867  0.76051  1.0000 0.3035112555
H   H74       1.0  0.86087  0.99133  0.26051  1.0000 0.3035112555
H   H75       1.0  0.36087  0.50867  0.76051  1.0000 0.3035112555
H   H76       1.0  0.36087  0.49133  0.26051  1.0000 0.3035112555
C   C1        1.0  0.80280  0.57611  0.70636  1.0000 0.5458001431
C   C2        1.0  0.80280  0.42389  0.20636  1.0000 0.5458001431
C   C3        1.0  0.30280  0.07611  0.70636  1.0000 0.5458001431
C   C4        1.0  0.30280  0.92389  0.20636  1.0000 0.5458001431
C   C5        1.0  0.86077  0.66092  0.77099  1.0000 0.0002818167
C   C6        1.0  0.86077  0.33908  0.27099  1.0000 0.0002818167
C   C7        1.0  0.36077  0.16092  0.77099  1.0000 0.0002818167
C   C8        1.0  0.36077  0.83908  0.27099  1.0000 0.0002818167
C   C9        1.0  0.85665  0.78158  0.75972  1.0000 -0.2409408902
C   C10       1.0  0.85665  0.21842  0.25972  1.0000 -0.2409408902
C   C11       1.0  0.35665  0.28158  0.75972  1.0000 -0.2409408902
C   C12       1.0  0.35665  0.71842  0.25972  1.0000 -0.2409408902
C   C13       1.0  0.91332  0.85512  0.82522  1.0000 0.3062461774
C   C14       1.0  0.91332  0.14488  0.32522  1.0000 0.3062461774
C   C15       1.0  0.41332  0.35512  0.82522  1.0000 0.3062461774
C   C16       1.0  0.41332  0.64488  0.32522  1.0000 0.3062461774
C   C17       1.0  0.97537  0.80325  0.90631  1.0000 -0.1666714241
C   C18       1.0  0.97537  0.19675  0.40631  1.0000 -0.1666714241
C   C19       1.0  0.47537  0.30325  0.90631  1.0000 -0.1666714241
C   C20       1.0  0.47537  0.69675  0.40631  1.0000 -0.1666714241
C   C21       1.0  0.03995  0.86797  0.97242  1.0000 0.4977321561
C   C22       1.0  0.03995  0.13203  0.47242  1.0000 0.4977321561
C   C23       1.0  0.53995  0.36797  0.97242  1.0000 0.4977321561
C   C24       1.0  0.53995  0.63203  0.47242  1.0000 0.4977321561
C   C25       1.0  0.97766  0.68090  0.91745  1.0000 -0.0859985546
C   C26       1.0  0.97766  0.31910  0.41745  1.0000 -0.0859985546
C   C27       1.0  0.47766  0.18090  0.91745  1.0000 -0.0859985546
C   C28       1.0  0.47766  0.81910  0.41745  1.0000 -0.0859985546
C   C29       1.0  0.92274  0.61061  0.85105  1.0000 -0.1396321072
C   C30       1.0  0.92274  0.38939  0.35105  1.0000 -0.1396321072
C   C31       1.0  0.42274  0.11061  0.85105  1.0000 -0.1451103453
C   C32       1.0  0.42274  0.88939  0.35105  1.0000 -0.1451103453
C   C33       1.0  0.69258  0.38298  0.74857  1.0000 0.0906175008
C   C34       1.0  0.69258  0.61702  0.24857  1.0000 0.0906175008
C   C35       1.0  0.19258  0.88298  0.74857  1.0000 0.0906175008
C   C36       1.0  0.19258  0.11702  0.24857  1.0000 0.0906175008
C   C37       1.0  0.57762  0.41536  0.67055  1.0000 -0.0410146284
C   C38       1.0  0.57762  0.58464  0.17055  1.0000 -0.0410146284
C   C39       1.0  0.07762  0.91536  0.67055  1.0000 -0.0410146284
C   C40       1.0  0.07762  0.08464  0.17055  1.0000 -0.0410146284
C   C41       1.0  0.59010  0.34318  0.75407  1.0000 -0.1106349266
C   C42       1.0  0.59010  0.65682  0.25407  1.0000 -0.1106349266
C   C43       1.0  0.09010  0.84318  0.75407  1.0000 -0.1106349266
C   C44       1.0  0.09010  0.15682  0.25407  1.0000 -0.1106349266
C   C45       1.0  0.70136  0.24931  0.89544  1.0000 -0.0999479618
C   C46       1.0  0.70136  0.75069  0.39544  1.0000 -0.0999479618
C   C47       1.0  0.20136  0.74931  0.89544  1.0000 -0.0999479618
C   C48       1.0  0.20136  0.25069  0.39544  1.0000 -0.0999479618
C   C49       1.0  0.68781  0.12207  0.86810  1.0000 0.0836173605
C   C50       1.0  0.68781  0.87793  0.36810  1.0000 0.0836173605
C   C51       1.0  0.18781  0.62207  0.86810  1.0000 0.0836173605
C   C52       1.0  0.18781  0.37793  0.36810  1.0000 0.0836173605
C   C53       1.0  0.72546  0.06368  0.82162  1.0000 -0.1396321072
C   C54       1.0  0.72546  0.93632  0.32162  1.0000 -0.1396321072
C   C55       1.0  0.22546  0.56368  0.82162  1.0000 -0.1396321072
C   C56       1.0  0.22546  0.43632  0.32162  1.0000 -0.1396321072
C   C57       1.0  0.70990  0.94831  0.78958  1.0000 -0.1302297452
C   C58       1.0  0.70990  0.05169  0.28958  1.0000 -0.1302297452
C   C59       1.0  0.20990  0.44831  0.78958  1.0000 -0.1302297452
C   C60       1.0  0.20990  0.55169  0.28958  1.0000 -0.1302297452
C   C61       1.0  0.65678  0.88759  0.80410  1.0000 0.0906175008
C   C62       1.0  0.65678  0.11241  0.30410  1.0000 0.0906175008
C   C63       1.0  0.15678  0.38759  0.80410  1.0000 0.0906175008
C   C64       1.0  0.15678  0.61241  0.30410  1.0000 0.0906175008
C   C65       1.0  0.61903  0.94597  0.85045  1.0000 -0.1302297452
C   C66       1.0  0.61903  0.05403  0.35045  1.0000 -0.1302297452
C   C67       1.0  0.11903  0.44597  0.85045  1.0000 -0.1302297452
C   C68       1.0  0.11903  0.55403  0.35045  1.0000 -0.1302297452
C   C69       1.0  0.63443  0.06145  0.88227  1.0000 -0.1302297452
C   C70       1.0  0.63443  0.93855  0.38227  1.0000 -0.1302297452
C   C71       1.0  0.13443  0.56145  0.88227  1.0000 -0.1302297452
C   C72       1.0  0.13443  0.43855  0.38227  1.0000 -0.1302297452
C   C73       1.0  0.64213  0.76167  0.77223  1.0000 -0.1106349266
C   C74       1.0  0.64213  0.23833  0.27223  1.0000 -0.1106349266
C   C75       1.0  0.14213  0.26167  0.77223  1.0000 -0.1106349266
C   C76       1.0  0.14213  0.73833  0.27223  1.0000 -0.1106349266
C   C77       1.0  0.74714  0.66110  0.91831  1.0000 -0.0999479618
C   C78       1.0  0.74714  0.33890  0.41831  1.0000 -0.0999479618
C   C79       1.0  0.24714  0.16110  0.91831  1.0000 -0.0999479618
C   C80       1.0  0.24714  0.83890  0.41831  1.0000 -0.0999479618
C   C81       1.0  0.75470  0.59240  0.00210  1.0000 -0.0305089717
C   C82       1.0  0.75470  0.40760  0.50210  1.0000 -0.0305089717
C   C83       1.0  0.25470  0.09240  0.00210  1.0000 -0.0305089717
C   C84       1.0  0.25470  0.90760  0.50210  1.0000 -0.0305089717
C   C85       1.0  0.64087  0.63217  0.91439  1.0000 0.0612139768
C   C86       1.0  0.64087  0.36783  0.41439  1.0000 0.0612139768
C   C87       1.0  0.14087  0.13217  0.91439  1.0000 0.0612139768
C   C88       1.0  0.14087  0.86783  0.41439  1.0000 0.0612139768
N   N1        1.0  0.90882  0.97316  0.80785  1.0000 -0.6245335404
N   N2        1.0  0.90882  0.02684  0.30785  1.0000 -0.6245335404
N   N3        1.0  0.40882  0.47316  0.80785  1.0000 -0.6251844232
N   N4        1.0  0.40882  0.52684  0.30785  1.0000 -0.6251844232
N   N5        1.0  0.64192  0.44073  0.66781  1.0000 -0.2827282612
N   N6        1.0  0.64192  0.55927  0.16781  1.0000 -0.2827282612
N   N7        1.0  0.14192  0.94073  0.66781  1.0000 -0.2827282612
N   N8        1.0  0.14192  0.05927  0.16781  1.0000 -0.2827282612
N   N9        1.0  0.66302  0.32386  0.80314  1.0000 0.040950277
N   N10       1.0  0.66302  0.67614  0.30314  1.0000 0.040950277
N   N11       1.0  0.16302  0.82386  0.80314  1.0000 0.040950277
N   N12       1.0  0.16302  0.17614  0.30314  1.0000 0.040950277
N   N13       1.0  0.67480  0.68441  0.86335  1.0000 0.0506549265
N   N14       1.0  0.67480  0.31559  0.36335  1.0000 0.0506549265
N   N15       1.0  0.17480  0.18441  0.86335  1.0000 0.0506549265
N   N16       1.0  0.17480  0.81559  0.36335  1.0000 0.0506549265
N   N17       1.0  0.68789  0.57320  0.99840  1.0000 -0.2742290412
N   N18       1.0  0.68789  0.42680  0.49840  1.0000 -0.2742290412
N   N19       1.0  0.18789  0.07320  0.99840  1.0000 -0.2742290412
N   N20       1.0  0.18789  0.92680  0.49840  1.0000 -0.2742290412
O   O1        1.0  0.81727  0.47007  0.72343  1.0000 -0.5470453416
O   O2        1.0  0.81727  0.52993  0.22343  1.0000 -0.5470453416
O   O3        1.0  0.31727  0.97007  0.72343  1.0000 -0.5470453416
O   O4        1.0  0.31727  0.02993  0.22343  1.0000 -0.5470453416
O   O5        1.0  0.74117  0.61998  0.63927  1.0000 -0.5365899567
O   O6        1.0  0.74117  0.38002  0.13927  1.0000 -0.5365899567
O   O7        1.0  0.24117  0.11998  0.63927  1.0000 -0.5365899567
O   O8        1.0  0.24117  0.88002  0.13927  1.0000 -0.5365899567
O   O9        1.0  0.09503  0.81749  0.04536  1.0000 -0.4764027585
O   O10       1.0  0.09503  0.18251  0.54536  1.0000 -0.4764027585
O   O11       1.0  0.59503  0.31749  0.04536  1.0000 -0.4764027585
O   O12       1.0  0.59503  0.68251  0.54536  1.0000 -0.4764027585
O   O13       1.0  0.05031  0.97740  0.95821  1.0000 -0.497860453
O   O14       1.0  0.05031  0.02260  0.45821  1.0000 -0.497860453
O   O15       1.0  0.55031  0.47740  0.95821  1.0000 -0.497860453
O   O16       1.0  0.55031  0.52260  0.45821  1.0000 -0.497860453
