# DDEC6 charges by PACMAN v1.1 (https://github.com/mtap-research/PACMAN-charge/)
data_2012[Zn][nan]3[ASR]8
_chemical_formula_sum              "Zn3 H50 C48 N18 O20"
_cell_length_a       12.618
_cell_length_b       12.927
_cell_length_c       13.012
_cell_angle_alpha    78.3
_cell_angle_beta     62.22
_cell_angle_gamma    62.07

_symmetry_space_group_name_H-M    "P 1"
_symmetry_Int_Tables_number       1

loop_
  _symmetry_equiv_pos_as_xyz
  'x, y, z'

loop_
  _atom_site_type_symbol
  _atom_site_label
  _atom_site_symmetry_multiplicity
  _atom_site_fract_x
  _atom_site_fract_y
  _atom_site_fract_z
  _atom_site_occupancy
  _atom_site_charge
Zn  Zn1       1.0  0.65823  0.14125  0.39387  1.0000 0.8271085948
Zn  Zn2       1.0  0.34177  0.85875  0.60613  1.0000 0.8271085948
Zn  Zn3       1.0  0.00000  0.00000  0.00000  1.0000 0.9002940983
H   H1        1.0  0.11230  0.81670  0.87900  1.0000 0.3626798719
H   H2        1.0  0.98500  0.16610  0.55440  1.0000 0.1299899474
H   H3        1.0  0.83100  0.94360  0.59830  1.0000 0.1219848499
H   H4        1.0  0.69500  0.11710  0.71260  1.0000 0.1299899474
H   H5        1.0  0.73420  0.22200  0.66980  1.0000 0.1493990265
H   H6        1.0  0.95320  0.98490  0.77780  1.0000 0.1299899474
H   H7        1.0  0.61680  0.93570  0.58610  1.0000 0.1381438732
H   H8        1.0  0.35720  0.96070  0.85830  1.0000 0.1493990265
H   H9        1.0  0.50680  0.87090  0.79680  1.0000 0.1299899474
H   H10       1.0  0.28580  0.07900  0.02030  1.0000 0.1381438732
H   H11       1.0  0.67180  0.88140  0.84200  1.0000 0.1299899474
H   H12       1.0  0.90550  0.77310  0.18310  1.0000 0.1599354253
H   H13       1.0  0.01070  0.78290  0.20800  1.0000 0.1381438732
H   H14       1.0  0.78630  0.75170  0.38080  1.0000 0.100216678
H   H15       1.0  0.88390  0.76970  0.41000  1.0000 0.100216678
H   H16       1.0  0.93430  0.37310  0.22100  1.0000 0.1219848499
H   H17       1.0  0.02300  0.26590  0.27120  1.0000 0.109253268
H   H18       1.0  0.84500  0.32480  0.45970  1.0000 0.1381438732
H   H19       1.0  0.75700  0.42070  0.40140  1.0000 0.1493990265
H   H20       1.0  0.25220  0.44960  0.42710  1.0000 0.100216678
H   H21       1.0  0.27590  0.32270  0.40990  1.0000 0.100216678
H   H22       1.0  0.38830  0.34890  0.20350  1.0000 0.1381438732
H   H23       1.0  0.38570  0.46000  0.23750  1.0000 0.1493990265
H   H24       1.0  0.41689  0.28865  0.62056  1.0000 0.100216678
H   H25       1.0  0.29092  0.77544  0.95505  1.0000 0.0886285037
H   H26       1.0  0.88770  0.18330  0.12100  1.0000 0.3626798719
H   H27       1.0  0.01500  0.83390  0.44560  1.0000 0.1299899474
H   H28       1.0  0.16900  0.05640  0.40170  1.0000 0.1219848499
H   H29       1.0  0.30500  0.88290  0.28740  1.0000 0.1299899474
H   H30       1.0  0.26580  0.77800  0.33020  1.0000 0.1493990265
H   H31       1.0  0.04680  0.01510  0.22220  1.0000 0.1299899474
H   H32       1.0  0.38320  0.06430  0.41390  1.0000 0.1381438732
H   H33       1.0  0.64280  0.03930  0.14170  1.0000 0.1493990265
H   H34       1.0  0.49320  0.12910  0.20320  1.0000 0.1299899474
H   H35       1.0  0.71420  0.92100  0.97970  1.0000 0.1381438732
H   H36       1.0  0.32820  0.11860  0.15800  1.0000 0.1299899474
H   H37       1.0  0.09450  0.22690  0.81690  1.0000 0.1599354253
H   H38       1.0  0.98930  0.21710  0.79200  1.0000 0.1381438732
H   H39       1.0  0.21370  0.24830  0.61920  1.0000 0.100216678
H   H40       1.0  0.11610  0.23030  0.59000  1.0000 0.100216678
H   H41       1.0  0.06570  0.62690  0.77900  1.0000 0.1219848499
H   H42       1.0  0.97700  0.73410  0.72880  1.0000 0.109253268
H   H43       1.0  0.15500  0.67520  0.54030  1.0000 0.1381438732
H   H44       1.0  0.24300  0.57930  0.59860  1.0000 0.1493990265
H   H45       1.0  0.74780  0.55040  0.57290  1.0000 0.100216678
H   H46       1.0  0.72410  0.67730  0.59010  1.0000 0.100216678
H   H47       1.0  0.61170  0.65110  0.79650  1.0000 0.1381438732
H   H48       1.0  0.61430  0.54000  0.76250  1.0000 0.1493990265
H   H49       1.0  0.58311  0.71135  0.37944  1.0000 0.100216678
H   H50       1.0  0.70908  0.22456  0.04495  1.0000 0.0886285037
C   C1        1.0  0.99080  0.09870  0.53260  1.0000 -0.1242683649
C   C2        1.0  0.88620  0.06730  0.59470  1.0000 0.0886285037
C   C3        1.0  0.89940  0.96670  0.55870  1.0000 -0.1290230572
C   C4        1.0  0.76440  0.14100  0.69330  1.0000 -0.188626644
C   C5        1.0  0.75020  0.17950  0.95900  1.0000 0.1684021421
C   C6        1.0  0.88330  0.05040  0.82360  1.0000 0.0761292979
C   C7        1.0  0.44760  0.19240  0.64460  1.0000 0.1599354253
C   C8        1.0  0.55660  0.01000  0.61930  1.0000 0.100216678
C   C9        1.0  0.44790  0.95110  0.82510  1.0000 -0.188626644
C   C10       1.0  0.47470  0.97600  0.91670  1.0000 0.100216678
C   C11       1.0  0.37270  0.04690  0.01180  1.0000 -0.1290230572
C   C12       1.0  0.60200  0.92940  0.90570  1.0000 -0.1410630613
C   C13       1.0  0.83720  0.93280  0.25240  1.0000 0.6405321091
C   C14       1.0  0.91730  0.80130  0.23890  1.0000 -0.3541543454
C   C15       1.0  0.87800  0.73760  0.35260  1.0000 -0.0311129582
C   C16       1.0  0.92210  0.54080  0.31290  1.0000 0.5310945243
C   C17       1.0  0.07320  0.56850  0.35810  1.0000 0.5310945243
C   C18       1.0  0.10820  0.37130  0.33200  1.0000 0.535495314
C   C19       1.0  0.95250  0.34490  0.28860  1.0000 -0.0311129582
C   C20       1.0  0.83000  0.34330  0.39020  1.0000 -0.336044383
C   C21       1.0  0.79200  0.25510  0.37360  1.0000 0.5963332385
C   C22       1.0  0.26420  0.39830  0.37370  1.0000 -0.0311129582
C   C23       1.0  0.38780  0.38350  0.26340  1.0000 -0.336044383
C   C24       1.0  0.51470  0.30710  0.27810  1.0000 0.6111853451
C   C25       1.0  0.00920  0.90130  0.46740  1.0000 -0.1242683649
C   C26       1.0  0.11380  0.93270  0.40530  1.0000 0.0886285037
C   C27       1.0  0.10060  0.03330  0.44130  1.0000 -0.1290230572
C   C28       1.0  0.23560  0.85900  0.30670  1.0000 -0.188626644
C   C29       1.0  0.24980  0.82050  0.04100  1.0000 0.1684021421
C   C30       1.0  0.11670  0.94960  0.17640  1.0000 0.0761292979
C   C31       1.0  0.55240  0.80760  0.35540  1.0000 0.1599354253
C   C32       1.0  0.44340  0.99000  0.38070  1.0000 0.100216678
C   C33       1.0  0.55210  0.04890  0.17490  1.0000 -0.188626644
C   C34       1.0  0.52530  0.02400  0.08330  1.0000 0.100216678
C   C35       1.0  0.62730  0.95310  0.98820  1.0000 -0.1290230572
C   C36       1.0  0.39800  0.07060  0.09430  1.0000 -0.1410630613
C   C37       1.0  0.16280  0.06720  0.74760  1.0000 0.6405321091
C   C38       1.0  0.08270  0.19870  0.76110  1.0000 -0.3541543454
C   C39       1.0  0.12200  0.26240  0.64740  1.0000 -0.0311129582
C   C40       1.0  0.07790  0.45920  0.68710  1.0000 0.5310945243
C   C41       1.0  0.92680  0.43150  0.64190  1.0000 0.5310945243
C   C42       1.0  0.89180  0.62870  0.66800  1.0000 0.5310945243
C   C43       1.0  0.04750  0.65510  0.71140  1.0000 -0.0311129582
C   C44       1.0  0.17000  0.65670  0.60980  1.0000 -0.336044383
C   C45       1.0  0.20800  0.74490  0.62640  1.0000 0.5963332385
C   C46       1.0  0.73580  0.60170  0.62630  1.0000 -0.0311129582
C   C47       1.0  0.61220  0.61650  0.73660  1.0000 -0.336044383
C   C48       1.0  0.48530  0.69290  0.72190  1.0000 0.6111853451
N   N1        1.0  0.96210  0.61060  0.34080  1.0000 -0.2411806703
N   N2        1.0  0.14450  0.44710  0.35400  1.0000 -0.2411806703
N   N3        1.0  0.99640  0.42120  0.31360  1.0000 -0.2411806703
N   N4        1.0  0.54630  0.10880  0.56390  1.0000 -0.3157770306
N   N5        1.0  0.39720  0.14820  0.74660  1.0000 -0.2411806703
N   N6        1.0  0.46930  0.03180  0.72820  1.0000 0.1779287487
N   N7        1.0  0.86360  0.07790  0.92610  1.0000 -0.3095015108
N   N8        1.0  0.70100  0.21360  0.88340  1.0000 -0.2644039363
N   N9        1.0  0.78580  0.13240  0.79790  1.0000 0.1684021421
N   N10       1.0  0.03790  0.38940  0.65920  1.0000 -0.2411806703
N   N11       1.0  0.85550  0.55290  0.64600  1.0000 -0.2411806703
N   N12       1.0  0.00360  0.57880  0.68640  1.0000 -0.2411806703
N   N13       1.0  0.45370  0.89120  0.43610  1.0000 -0.3157770306
N   N14       1.0  0.60280  0.85180  0.25340  1.0000 -0.2411806703
N   N15       1.0  0.53070  0.96820  0.27180  1.0000 0.1779287487
N   N16       1.0  0.13640  0.92210  0.07390  1.0000 -0.3095015108
N   N17       1.0  0.29900  0.78640  0.11660  1.0000 -0.2644039363
N   N18       1.0  0.21420  0.86760  0.20210  1.0000 0.1684021421
O   O1        1.0  0.68150  0.25990  0.45100  1.0000 -0.5159160763
O   O2        1.0  0.85800  0.18440  0.29700  1.0000 -0.4619734853
O   O3        1.0  0.51380  0.22710  0.34770  1.0000 -0.5387467265
O   O4        1.0  0.61670  0.31850  0.21140  1.0000 -0.5094335347
O   O5        1.0  0.84890  0.99450  0.16510  1.0000 -0.5387467265
O   O6        1.0  0.75920  0.97320  0.35410  1.0000 -0.5460709602
O   O7        1.0  0.82420  0.58290  0.29450  1.0000 -0.4720336467
O   O8        1.0  0.10990  0.63200  0.37610  1.0000 -0.4775699347
O   O9        1.0  0.17220  0.26590  0.33130  1.0000 -0.4888662368
O   O10       1.0  0.05030  0.83220  0.94400  1.0000 -0.7404899865
O   O11       1.0  0.31850  0.74010  0.54900  1.0000 -0.5159160763
O   O12       1.0  0.14200  0.81560  0.70300  1.0000 -0.4619734853
O   O13       1.0  0.48620  0.77290  0.65230  1.0000 -0.5387467265
O   O14       1.0  0.38330  0.68150  0.78860  1.0000 -0.5094335347
O   O15       1.0  0.15110  0.00550  0.83490  1.0000 -0.5387467265
O   O16       1.0  0.24080  0.02680  0.64590  1.0000 -0.5460709602
O   O17       1.0  0.17580  0.41710  0.70550  1.0000 -0.4720336467
O   O18       1.0  0.89010  0.36800  0.62390  1.0000 -0.4775699347
O   O19       1.0  0.82780  0.73410  0.66870  1.0000 -0.4888662368
O   O20       1.0  0.94970  0.16780  0.05600  1.0000 -0.7404899865
