# DDEC6 charges by PACMAN v1.1 (https://github.com/mtap-research/PACMAN-charge/)
data_2012[Fe][bpq]3[ASR]1
_chemical_formula_sum              "Fe4 H20 C32 O20"
_cell_length_a       6.9035
_cell_length_b       15.9959
_cell_length_c       14.3406
_cell_angle_alpha    90
_cell_angle_beta     90
_cell_angle_gamma    90

_symmetry_space_group_name_H-M    "P 1"
_symmetry_Int_Tables_number       1

loop_
  _symmetry_equiv_pos_as_xyz
  'x, y, z'

loop_
  _atom_site_type_symbol
  _atom_site_label
  _atom_site_symmetry_multiplicity
  _atom_site_fract_x
  _atom_site_fract_y
  _atom_site_fract_z
  _atom_site_occupancy
  _atom_site_charge
Fe  Fe1       1.0  0.75000  0.25000  0.25000  1.0000 1.2885472794
Fe  Fe2       1.0  0.25000  0.25000  0.25000  1.0000 1.2885472794
Fe  Fe3       1.0  0.25000  0.75000  0.75000  1.0000 1.2885472794
Fe  Fe4       1.0  0.75000  0.75000  0.75000  1.0000 1.2885472794
H   H1        1.0  0.70334  0.55495  0.55515  1.0000 0.1259463915
H   H2        1.0  0.20334  0.05495  0.05515  1.0000 0.1259463915
H   H3        1.0  0.29666  0.94505  0.55515  1.0000 0.1259463915
H   H4        1.0  0.79666  0.44505  0.05515  1.0000 0.1259463915
H   H5        1.0  0.29666  0.05495  0.44485  1.0000 0.1259463915
H   H6        1.0  0.79666  0.55495  0.94485  1.0000 0.1259463915
H   H7        1.0  0.70334  0.44505  0.44485  1.0000 0.1259463915
H   H8        1.0  0.20334  0.94505  0.94485  1.0000 0.1259463915
H   H9        1.0  0.29666  0.44505  0.44485  1.0000 0.1259463915
H   H10       1.0  0.79666  0.94505  0.94485  1.0000 0.1259463915
H   H11       1.0  0.70334  0.05495  0.44485  1.0000 0.1259463915
H   H12       1.0  0.20334  0.55495  0.94485  1.0000 0.1259463915
H   H13       1.0  0.70334  0.94505  0.55515  1.0000 0.1259463915
H   H14       1.0  0.20334  0.44505  0.05515  1.0000 0.1259463915
H   H15       1.0  0.29666  0.55495  0.55515  1.0000 0.1259463915
H   H16       1.0  0.79666  0.05495  0.05515  1.0000 0.1259463915
H   H17       1.0  0.50000  0.25000  0.38215  1.0000 0.4069677089
H   H18       1.0  0.00000  0.75000  0.88215  1.0000 0.4069677089
H   H19       1.0  0.50000  0.75000  0.61785  1.0000 0.4069677089
H   H20       1.0  0.00000  0.25000  0.11785  1.0000 0.4069677089
C   C1        1.0  0.82627  0.53218  0.53229  1.0000 -0.0945512782
C   C2        1.0  0.32627  0.03218  0.03229  1.0000 -0.0953612606
C   C3        1.0  0.17373  0.96782  0.53229  1.0000 -0.0953612606
C   C4        1.0  0.67373  0.46782  0.03229  1.0000 -0.0953612606
C   C5        1.0  0.17373  0.03218  0.46771  1.0000 -0.0953612606
C   C6        1.0  0.67373  0.53218  0.96771  1.0000 -0.0945512782
C   C7        1.0  0.82627  0.46782  0.46771  1.0000 -0.0953612606
C   C8        1.0  0.32627  0.96782  0.96771  1.0000 -0.0953612606
C   C9        1.0  0.17373  0.46782  0.46771  1.0000 -0.0953612606
C   C10       1.0  0.67373  0.96782  0.96771  1.0000 -0.0953612606
C   C11       1.0  0.82627  0.03218  0.46771  1.0000 -0.0953612606
C   C12       1.0  0.32627  0.53218  0.96771  1.0000 -0.0945512782
C   C13       1.0  0.82627  0.96782  0.53229  1.0000 -0.0953612606
C   C14       1.0  0.32627  0.46782  0.03229  1.0000 -0.0953612606
C   C15       1.0  0.17373  0.53218  0.53229  1.0000 -0.0953612606
C   C16       1.0  0.67373  0.03218  0.03229  1.0000 -0.0953612606
C   C17       1.0  0.00000  0.56436  0.56459  1.0000 -0.0321998893
C   C18       1.0  0.00000  0.63268  0.63314  1.0000 0.6058748384
C   C19       1.0  0.50000  0.06436  0.06459  1.0000 -0.0321998893
C   C20       1.0  0.50000  0.13268  0.13314  1.0000 0.6058748384
C   C21       1.0  0.00000  0.93564  0.56459  1.0000 -0.0321998893
C   C22       1.0  0.00000  0.86732  0.63314  1.0000 0.6058748384
C   C23       1.0  0.50000  0.43564  0.06459  1.0000 -0.0321998893
C   C24       1.0  0.50000  0.36732  0.13314  1.0000 0.6058748384
C   C25       1.0  0.00000  0.06436  0.43541  1.0000 -0.0321998893
C   C26       1.0  0.00000  0.13268  0.36686  1.0000 0.6058748384
C   C27       1.0  0.50000  0.56436  0.93541  1.0000 -0.0321998893
C   C28       1.0  0.50000  0.63268  0.86686  1.0000 0.6058748384
C   C29       1.0  0.00000  0.43564  0.43541  1.0000 -0.0321998893
C   C30       1.0  0.00000  0.36732  0.36686  1.0000 0.6058748384
C   C31       1.0  0.50000  0.93564  0.93541  1.0000 -0.0321998893
C   C32       1.0  0.50000  0.86732  0.86686  1.0000 0.6058748384
O   O1        1.0  0.84082  0.66219  0.66276  1.0000 -0.5340417529
O   O2        1.0  0.34082  0.16219  0.16276  1.0000 -0.5340417529
O   O3        1.0  0.15918  0.83781  0.66276  1.0000 -0.5340417529
O   O4        1.0  0.65918  0.33781  0.16276  1.0000 -0.5340417529
O   O5        1.0  0.15918  0.16219  0.33724  1.0000 -0.5340417529
O   O6        1.0  0.65918  0.66219  0.83724  1.0000 -0.5340417529
O   O7        1.0  0.84082  0.33781  0.33724  1.0000 -0.5340417529
O   O8        1.0  0.34082  0.83781  0.83724  1.0000 -0.5340417529
O   O9        1.0  0.15918  0.33781  0.33724  1.0000 -0.5340417529
O   O10       1.0  0.65918  0.83781  0.83724  1.0000 -0.5340417529
O   O11       1.0  0.84082  0.16219  0.33724  1.0000 -0.5340417529
O   O12       1.0  0.34082  0.66219  0.83724  1.0000 -0.5340417529
O   O13       1.0  0.84082  0.83781  0.66276  1.0000 -0.5340417529
O   O14       1.0  0.34082  0.33781  0.16276  1.0000 -0.5340417529
O   O15       1.0  0.15918  0.66219  0.66276  1.0000 -0.5340417529
O   O16       1.0  0.65918  0.16219  0.16276  1.0000 -0.5340417529
O   O17       1.0  0.50000  0.75000  0.68758  1.0000 -0.8296458851
O   O18       1.0  0.00000  0.25000  0.18758  1.0000 -0.8296458851
O   O19       1.0  0.50000  0.25000  0.31242  1.0000 -0.8296458851
O   O20       1.0  0.00000  0.75000  0.81242  1.0000 -0.8296458851
