# DDEC6 charges by PACMAN v1.1 (https://github.com/mtap-research/PACMAN-charge/)
data_2012[Zn][qtz]3[ASR]1
_chemical_formula_sum              "Zn2 H32 C41 N4 O14"
_cell_length_a       9.0056
_cell_length_b       10.7263
_cell_length_c       12.9899
_cell_angle_alpha    104.047
_cell_angle_beta     90
_cell_angle_gamma    90

_symmetry_space_group_name_H-M    "P 1"
_symmetry_Int_Tables_number       1

loop_
  _symmetry_equiv_pos_as_xyz
  'x, y, z'

loop_
  _atom_site_type_symbol
  _atom_site_label
  _atom_site_symmetry_multiplicity
  _atom_site_fract_x
  _atom_site_fract_y
  _atom_site_fract_z
  _atom_site_occupancy
  _atom_site_charge
Zn  Zn1       1.0  0.61926  0.50000  0.00000  1.0000 0.7235202116
Zn  Zn2       1.0  0.93446  0.00000  0.50000  1.0000 0.7455015702
H   H1        1.0  0.77580  0.17950  0.38680  1.0000 0.1094887765
H   H2        1.0  0.60280  0.17000  0.25630  1.0000 0.1416580302
H   H3        1.0  0.61950  0.78750  0.20130  1.0000 0.1605355514
H   H4        1.0  0.77450  0.81010  0.34070  1.0000 0.1094887765
H   H5        1.0  0.51170  0.11530  0.07730  1.0000 0.1094887765
H   H6        1.0  0.37730  0.10810  0.15340  1.0000 0.1094887765
H   H7        1.0  0.30260  0.82160  0.02970  1.0000 0.1208108915
H   H8        1.0  0.20030  0.92910  0.09830  1.0000 0.1094887765
H   H9        1.0  0.90030  0.80880  0.84390  1.0000 0.1416580302
H   H10       1.0  0.70770  0.68080  0.86600  1.0000 0.1094887765
H   H11       1.0  0.88790  0.61900  0.11830  1.0000 0.1094887765
H   H12       1.0  0.08900  0.74240  0.10210  1.0000 0.1605355514
H   H13       1.0  0.31150  0.29570  0.75570  1.0000 0.1208108915
H   H14       1.0  0.99240  0.40700  0.58310  1.0000 0.1297588967
H   H15       1.0  0.23770  0.66760  0.78260  1.0000 0.1208108915
H   H16       1.0  0.77580  0.82050  0.61320  1.0000 0.1094887765
H   H17       1.0  0.60280  0.83000  0.74370  1.0000 0.1416580302
H   H18       1.0  0.61950  0.21250  0.79870  1.0000 0.1605355514
H   H19       1.0  0.77450  0.18990  0.65930  1.0000 0.1094887765
H   H20       1.0  0.51170  0.88470  0.92270  1.0000 0.1094887765
H   H21       1.0  0.37730  0.89190  0.84660  1.0000 0.1094887765
H   H22       1.0  0.30260  0.17840  0.97030  1.0000 0.1208108915
H   H23       1.0  0.20030  0.07090  0.90170  1.0000 0.1094887765
H   H24       1.0  0.90030  0.19120  0.15610  1.0000 0.1605355514
H   H25       1.0  0.70770  0.31920  0.13400  1.0000 0.1094887765
H   H26       1.0  0.88790  0.38100  0.88170  1.0000 0.1094887765
H   H27       1.0  0.08900  0.25760  0.89790  1.0000 0.1541137618
H   H28       1.0  0.31150  0.70430  0.24430  1.0000 0.1208108915
H   H29       1.0  0.99240  0.59300  0.41690  1.0000 0.1297588967
H   H30       1.0  0.23770  0.33240  0.21740  1.0000 0.1297588967
H   H31       1.0  0.04992  0.74251  0.70593  1.0000 0.329057656
H   H32       1.0  0.96771  0.39052  0.42730  1.0000 0.329057656
C   C1        1.0  0.74220  0.09930  0.34940  1.0000 0.1022813467
C   C2        1.0  0.64080  0.09490  0.26980  1.0000 -0.2791853823
C   C3        1.0  0.59630  0.97470  0.20960  1.0000 0.2885254843
C   C4        1.0  0.64870  0.86920  0.23840  1.0000 -0.2508640639
C   C5        1.0  0.74320  0.88360  0.32090  1.0000 0.0710221676
C   C6        1.0  0.43760  0.05890  0.09580  1.0000 -0.0816224108
C   C7        1.0  0.24330  0.89680  0.02850  1.0000 -0.0816224108
C   C8        1.0  0.01830  0.78840  0.96970  1.0000 0.2838372363
C   C9        1.0  0.90110  0.76960  0.90040  1.0000 -0.2791853823
C   C10       1.0  0.78570  0.69320  0.91430  1.0000 0.0795009581
C   C11       1.0  0.89140  0.65690  0.06110  1.0000 0.0901333688
C   C12       1.0  0.01250  0.73130  0.05250  1.0000 -0.266880803
C   C13       1.0  0.42170  0.52350  0.85670  1.0000 0.534223519
C   C14       1.0  0.29570  0.48760  0.77980  1.0000 0.0082351102
C   C15       1.0  0.25910  0.36100  0.73610  1.0000 -0.1680484094
C   C16       1.0  0.14540  0.33080  0.66370  1.0000 0.0033936042
C   C17       1.0  0.06830  0.42750  0.63290  1.0000 -0.2394352583
C   C18       1.0  0.21590  0.58220  0.75090  1.0000 -0.2632433253
C   C19       1.0  0.10410  0.19140  0.61680  1.0000 0.5361221356
C   C20       1.0  0.10470  0.55490  0.67650  1.0000 0.3053680581
C   C21       1.0  0.74220  0.90070  0.65060  1.0000 0.0901333688
C   C22       1.0  0.64080  0.90510  0.73020  1.0000 -0.2791853823
C   C23       1.0  0.59630  0.02530  0.79040  1.0000 0.2885254843
C   C24       1.0  0.64870  0.13080  0.76160  1.0000 -0.2508640639
C   C25       1.0  0.74320  0.11640  0.67910  1.0000 0.0710221676
C   C26       1.0  0.43760  0.94110  0.90420  1.0000 -0.0816224108
C   C27       1.0  0.24330  0.10320  0.97150  1.0000 -0.0816224108
C   C28       1.0  0.01830  0.21160  0.03030  1.0000 0.2838372363
C   C29       1.0  0.90110  0.23040  0.09960  1.0000 -0.2508640639
C   C30       1.0  0.78570  0.30680  0.08570  1.0000 0.0710221676
C   C31       1.0  0.89140  0.34310  0.93890  1.0000 0.0795009581
C   C32       1.0  0.01250  0.26870  0.94750  1.0000 -0.266880803
C   C33       1.0  0.42170  0.47650  0.14330  1.0000 0.534223519
C   C34       1.0  0.29570  0.51240  0.22020  1.0000 -0.0031501994
C   C35       1.0  0.25910  0.63900  0.26390  1.0000 -0.1680484094
C   C36       1.0  0.14540  0.66920  0.33630  1.0000 0.0082351102
C   C37       1.0  0.06830  0.57250  0.36710  1.0000 -0.2508640639
C   C38       1.0  0.21590  0.41780  0.24910  1.0000 -0.2336875873
C   C39       1.0  0.10410  0.80860  0.38320  1.0000 0.5361221356
C   C40       1.0  0.10470  0.44510  0.32350  1.0000 0.3008779509
C   C41       1.0  0.34100  0.00000  0.00000  1.0000 0.0795009581
N   N1        1.0  0.79480  0.99760  0.37620  1.0000 -0.2394352583
N   N2        1.0  0.77950  0.63560  0.99380  1.0000 -0.2508640639
N   N3        1.0  0.79480  0.00240  0.62380  1.0000 -0.2394352583
N   N4        1.0  0.77950  0.36440  0.00620  1.0000 -0.2508640639
O   O1        1.0  0.44400  0.63510  0.90130  1.0000 -0.530736156
O   O2        1.0  0.50350  0.43320  0.87200  1.0000 -0.530736156
O   O3        1.0  0.01390  0.17210  0.54020  1.0000 -0.5483412521
O   O4        1.0  0.15350  0.10910  0.65460  1.0000 -0.5191880243
O   O5        1.0  0.12890  0.86330  0.95130  1.0000 -0.1680484094
O   O6        1.0  0.50620  0.95450  0.12580  1.0000 -0.152790271
O   O7        1.0  0.02940  0.65000  0.64730  1.0000 -0.4391436653
O   O8        1.0  0.44400  0.36490  0.09870  1.0000 -0.530736156
O   O9        1.0  0.50350  0.56680  0.12800  1.0000 -0.530736156
O   O10       1.0  0.01390  0.82790  0.45980  1.0000 -0.5483412521
O   O11       1.0  0.15350  0.89090  0.34540  1.0000 -0.5191880243
O   O12       1.0  0.12890  0.13670  0.04870  1.0000 -0.152790271
O   O13       1.0  0.50620  0.04550  0.87420  1.0000 -0.152790271
O   O14       1.0  0.02940  0.35000  0.35270  1.0000 -0.4391436653
