# DDEC6 charges by PACMAN v1.1 (https://github.com/mtap-research/PACMAN-charge/)
data_2012[Gd][pcu]3[ASR]5
_chemical_formula_sum              "Gd4 H24 C84 N24 O72"
_cell_length_a       19.4868
_cell_length_b       19.4868
_cell_length_c       13.362
_cell_angle_alpha    86.9606
_cell_angle_beta     93.0394
_cell_angle_gamma    78.0989

_symmetry_space_group_name_H-M    "P 1"
_symmetry_Int_Tables_number       1

loop_
  _symmetry_equiv_pos_as_xyz
  'x, y, z'

loop_
  _atom_site_type_symbol
  _atom_site_label
  _atom_site_symmetry_multiplicity
  _atom_site_fract_x
  _atom_site_fract_y
  _atom_site_fract_z
  _atom_site_occupancy
  _atom_site_charge
Gd  Gd1       1.0  0.96326  0.51254  0.35252  1.0000 1.9954119973
Gd  Gd2       1.0  0.51254  0.96326  0.14748  1.0000 1.9954119973
Gd  Gd3       1.0  0.03674  0.48746  0.64748  1.0000 1.9934771113
Gd  Gd4       1.0  0.48746  0.03674  0.85252  1.0000 1.9934771113
H   H1        1.0  0.19700  0.61400  0.56900  1.0000 0.1407967858
H   H2        1.0  0.61400  0.19700  0.93100  1.0000 0.1407967858
H   H3        1.0  0.80300  0.38600  0.43100  1.0000 0.1407967858
H   H4        1.0  0.38600  0.80300  0.06900  1.0000 0.1407967858
H   H5        1.0  0.09860  0.66800  0.29950  1.0000 0.1526114943
H   H6        1.0  0.66800  0.09860  0.20050  1.0000 0.1526114943
H   H7        1.0  0.90140  0.33200  0.70050  1.0000 0.1526114943
H   H8        1.0  0.33200  0.90140  0.79950  1.0000 0.1526114943
H   H9        1.0  0.44420  0.75180  0.28650  1.0000 0.1526114943
H   H10       1.0  0.75180  0.44420  0.21350  1.0000 0.1526114943
H   H11       1.0  0.55580  0.24820  0.71350  1.0000 0.1526114943
H   H12       1.0  0.24820  0.55580  0.78650  1.0000 0.1526114943
H   H13       1.0  0.30880  0.92700  0.34010  1.0000 0.1407967858
H   H14       1.0  0.92700  0.30880  0.15990  1.0000 0.1407967858
H   H15       1.0  0.69120  0.07300  0.65990  1.0000 0.1407967858
H   H16       1.0  0.07300  0.69120  0.84010  1.0000 0.1407967858
H   H17       1.0  0.93220  0.65060  0.67330  1.0000 0.1407967858
H   H18       1.0  0.65060  0.93220  0.82670  1.0000 0.1407967858
H   H19       1.0  0.06780  0.34940  0.32670  1.0000 0.1407967858
H   H20       1.0  0.34940  0.06780  0.17330  1.0000 0.1407967858
H   H21       1.0  0.75940  0.66260  0.49380  1.0000 0.1526114943
H   H22       1.0  0.66260  0.75940  0.00620  1.0000 0.1556815557
H   H23       1.0  0.24060  0.33740  0.50620  1.0000 0.1556815557
H   H24       1.0  0.33740  0.24060  0.99380  1.0000 0.1556815557
C   C1        1.0  0.08770  0.58750  0.46000  1.0000 0.6338076644
C   C2        1.0  0.58750  0.08770  0.04000  1.0000 0.6338076644
C   C3        1.0  0.91230  0.41250  0.54000  1.0000 0.6338076644
C   C4        1.0  0.41250  0.91230  0.96000  1.0000 0.6338076644
C   C5        1.0  0.13920  0.63540  0.43810  1.0000 0.0018957788
C   C6        1.0  0.63540  0.13920  0.06190  1.0000 0.0018957788
C   C7        1.0  0.86080  0.36460  0.56190  1.0000 0.0018957788
C   C8        1.0  0.36460  0.86080  0.93810  1.0000 0.0018957788
C   C9        1.0  0.19200  0.63960  0.50740  1.0000 -0.1297824906
C   C10       1.0  0.63960  0.19200  0.99260  1.0000 -0.1297824906
C   C11       1.0  0.80800  0.36040  0.49260  1.0000 -0.1297824906
C   C12       1.0  0.36040  0.80800  0.00740  1.0000 -0.1297824906
C   C13       1.0  0.23770  0.68290  0.48370  1.0000 0.0289837323
C   C14       1.0  0.68290  0.23770  0.01630  1.0000 0.0289837323
C   C15       1.0  0.76230  0.31710  0.51630  1.0000 0.0289837323
C   C16       1.0  0.31710  0.76230  0.98370  1.0000 0.0289837323
C   C17       1.0  0.23430  0.72330  0.39330  1.0000 -0.0163863794
C   C18       1.0  0.72330  0.23430  0.10670  1.0000 -0.0101599955
C   C19       1.0  0.76570  0.27670  0.60670  1.0000 -0.0101599955
C   C20       1.0  0.27670  0.76570  0.89330  1.0000 -0.0163863794
C   C21       1.0  0.18140  0.71200  0.32170  1.0000 0.0182828107
C   C22       1.0  0.71200  0.18140  0.17830  1.0000 0.0289837323
C   C23       1.0  0.81860  0.28800  0.67830  1.0000 0.0289837323
C   C24       1.0  0.28800  0.81860  0.82170  1.0000 0.0289837323
C   C25       1.0  0.13450  0.67130  0.34640  1.0000 -0.1109831758
C   C26       1.0  0.67130  0.13450  0.15360  1.0000 -0.1109831758
C   C27       1.0  0.86550  0.32870  0.65360  1.0000 -0.1043523647
C   C28       1.0  0.32870  0.86550  0.84640  1.0000 -0.1043523647
C   C29       1.0  0.28770  0.76570  0.36750  1.0000 -0.0033189824
C   C30       1.0  0.76570  0.28770  0.13250  1.0000 -0.0033189824
C   C31       1.0  0.71230  0.23430  0.63250  1.0000 -0.0033189824
C   C32       1.0  0.23430  0.71230  0.86750  1.0000 -0.0033189824
C   C33       1.0  0.35160  0.73620  0.33320  1.0000 0.0389810704
C   C34       1.0  0.73620  0.35160  0.16680  1.0000 0.0389810704
C   C35       1.0  0.64840  0.26380  0.66680  1.0000 0.0389810704
C   C36       1.0  0.26380  0.64840  0.83320  1.0000 0.0389810704
C   C37       1.0  0.40030  0.77470  0.30490  1.0000 -0.1297824906
C   C38       1.0  0.77470  0.40030  0.19510  1.0000 -0.1297824906
C   C39       1.0  0.59970  0.22530  0.69510  1.0000 -0.1207003169
C   C40       1.0  0.22530  0.59970  0.80490  1.0000 -0.1297824906
C   C41       1.0  0.38370  0.84690  0.30400  1.0000 0.0182828107
C   C42       1.0  0.84690  0.38370  0.19600  1.0000 0.0182828107
C   C43       1.0  0.61630  0.15310  0.69600  1.0000 0.0182828107
C   C44       1.0  0.15310  0.61630  0.80400  1.0000 0.0182828107
C   C45       1.0  0.32110  0.87830  0.33960  1.0000 -0.1207003169
C   C46       1.0  0.87830  0.32110  0.16040  1.0000 -0.1207003169
C   C47       1.0  0.67890  0.12170  0.66040  1.0000 -0.1207003169
C   C48       1.0  0.12170  0.67890  0.83960  1.0000 -0.1207003169
C   C49       1.0  0.27580  0.83700  0.37520  1.0000 0.0182828107
C   C50       1.0  0.83700  0.27580  0.12480  1.0000 0.0182828107
C   C51       1.0  0.72420  0.16300  0.62480  1.0000 0.0182828107
C   C52       1.0  0.16300  0.72420  0.87520  1.0000 0.0182828107
C   C53       1.0  0.43330  0.89010  0.26260  1.0000 0.5672308557
C   C54       1.0  0.89010  0.43330  0.23740  1.0000 0.5672308557
C   C55       1.0  0.56670  0.10990  0.73740  1.0000 0.5672308557
C   C56       1.0  0.10990  0.56670  0.76260  1.0000 0.5672308557
C   C57       1.0  0.89540  0.59960  0.50600  1.0000 0.6220165842
C   C58       1.0  0.59960  0.89540  0.99400  1.0000 0.6220165842
C   C59       1.0  0.10460  0.40040  0.49400  1.0000 0.6220165842
C   C60       1.0  0.40040  0.10460  0.00600  1.0000 0.6220165842
C   C61       1.0  0.85180  0.64460  0.57650  1.0000 -0.0033189824
C   C62       1.0  0.64460  0.85180  0.92350  1.0000 -0.0033189824
C   C63       1.0  0.14820  0.35540  0.42350  1.0000 -0.0033189824
C   C64       1.0  0.35540  0.14820  0.07650  1.0000 -0.0033189824
C   C65       1.0  0.88370  0.66450  0.66060  1.0000 -0.1297824906
C   C66       1.0  0.66450  0.88370  0.83940  1.0000 -0.1297824906
C   C67       1.0  0.11630  0.33550  0.33940  1.0000 -0.1297824906
C   C68       1.0  0.33550  0.11630  0.16060  1.0000 -0.1297824906
C   C69       1.0  0.84340  0.70580  0.72760  1.0000 0.0018957788
C   C70       1.0  0.70580  0.84340  0.77240  1.0000 0.0018957788
C   C71       1.0  0.15660  0.29420  0.27240  1.0000 0.0018957788
C   C72       1.0  0.29420  0.15660  0.22760  1.0000 0.0018957788
C   C73       1.0  0.77060  0.72520  0.71300  1.0000 -0.0101599955
C   C74       1.0  0.72520  0.77060  0.78700  1.0000 -0.0101599955
C   C75       1.0  0.22940  0.27480  0.28700  1.0000 -0.0101599955
C   C76       1.0  0.27480  0.22940  0.21300  1.0000 -0.0101599955
C   C77       1.0  0.74180  0.70820  0.62300  1.0000 0.0556904502
C   C78       1.0  0.70820  0.74180  0.87700  1.0000 0.0556904502
C   C79       1.0  0.25820  0.29180  0.37700  1.0000 0.0556904502
C   C80       1.0  0.29180  0.25820  0.12300  1.0000 0.0556904502
C   C81       1.0  0.78060  0.67060  0.55500  1.0000 -0.1109831758
C   C82       1.0  0.67060  0.78060  0.94500  1.0000 -0.1109831758
C   C83       1.0  0.21940  0.32940  0.44500  1.0000 -0.1207003169
C   C84       1.0  0.32940  0.21940  0.05500  1.0000 -0.1109831758
N   N1        1.0  0.29590  0.68370  0.55940  1.0000 0.4779377185
N   N2        1.0  0.68370  0.29590  0.94060  1.0000 0.4779377185
N   N3        1.0  0.70410  0.31630  0.44060  1.0000 0.4779377185
N   N4        1.0  0.31630  0.70410  0.05940  1.0000 0.4779377185
N   N5        1.0  0.17340  0.74720  0.22300  1.0000 0.4908060398
N   N6        1.0  0.74720  0.17340  0.27700  1.0000 0.4908060398
N   N7        1.0  0.82660  0.25280  0.77700  1.0000 0.4956695728
N   N8        1.0  0.25280  0.82660  0.72300  1.0000 0.4956695728
N   N9        1.0  0.37550  0.65710  0.32930  1.0000 0.5172719561
N   N10       1.0  0.65710  0.37550  0.17070  1.0000 0.5172719561
N   N11       1.0  0.62450  0.34290  0.67070  1.0000 0.5172719561
N   N12       1.0  0.34290  0.62450  0.82930  1.0000 0.5172719561
N   N13       1.0  0.21180  0.87280  0.41470  1.0000 0.4956695728
N   N14       1.0  0.87280  0.21180  0.08530  1.0000 0.4956695728
N   N15       1.0  0.78820  0.12720  0.58530  1.0000 0.4956695728
N   N16       1.0  0.12720  0.78820  0.91470  1.0000 0.4908060398
N   N17       1.0  0.87840  0.72580  0.81690  1.0000 0.4908060398
N   N18       1.0  0.72580  0.87840  0.68310  1.0000 0.4908060398
N   N19       1.0  0.12160  0.27420  0.18310  1.0000 0.4908060398
N   N20       1.0  0.27420  0.12160  0.31690  1.0000 0.4908060398
N   N21       1.0  0.66280  0.72780  0.60200  1.0000 0.5122058891
N   N22       1.0  0.72780  0.66280  0.89800  1.0000 0.5122058891
N   N23       1.0  0.33720  0.27220  0.39800  1.0000 0.5122058891
N   N24       1.0  0.27220  0.33720  0.10200  1.0000 0.5122058891
O   O1        1.0  0.04510  0.58310  0.38980  1.0000 -0.6609082468
O   O2        1.0  0.58310  0.04510  0.11020  1.0000 -0.6609082468
O   O3        1.0  0.95490  0.41690  0.61020  1.0000 -0.6609082468
O   O4        1.0  0.41690  0.95490  0.88980  1.0000 -0.6609082468
O   O5        1.0  0.09820  0.55600  0.54540  1.0000 -0.6297892429
O   O6        1.0  0.55600  0.09820  0.95460  1.0000 -0.6297892429
O   O7        1.0  0.90180  0.44400  0.45460  1.0000 -0.6297892429
O   O8        1.0  0.44400  0.90180  0.04540  1.0000 -0.6297892429
O   O9        1.0  0.49420  0.86080  0.25080  1.0000 -0.5922627993
O   O10       1.0  0.86080  0.49420  0.24920  1.0000 -0.5922627993
O   O11       1.0  0.50580  0.13920  0.74920  1.0000 -0.5922627993
O   O12       1.0  0.13920  0.50580  0.75080  1.0000 -0.5922627993
O   O13       1.0  0.40710  0.95210  0.23610  1.0000 -0.6297892429
O   O14       1.0  0.95210  0.40710  0.26390  1.0000 -0.6297892429
O   O15       1.0  0.59290  0.04790  0.76390  1.0000 -0.6297892429
O   O16       1.0  0.04790  0.59290  0.73610  1.0000 -0.6297892429
O   O17       1.0  0.31030  0.63430  0.61900  1.0000 -0.2166317016
O   O18       1.0  0.63430  0.31030  0.88100  1.0000 -0.2166317016
O   O19       1.0  0.68970  0.36570  0.38100  1.0000 -0.2166317016
O   O20       1.0  0.36570  0.68970  0.11900  1.0000 -0.2166317016
O   O21       1.0  0.33660  0.71480  0.55220  1.0000 -0.1704310275
O   O22       1.0  0.71480  0.33660  0.94780  1.0000 -0.1771829076
O   O23       1.0  0.66340  0.28520  0.44780  1.0000 -0.1704310275
O   O24       1.0  0.28520  0.66340  0.05220  1.0000 -0.1771829076
O   O25       1.0  0.14050  0.72630  0.15870  1.0000 -0.2729360707
O   O26       1.0  0.72630  0.14050  0.34130  1.0000 -0.2729360707
O   O27       1.0  0.85950  0.27370  0.84130  1.0000 -0.2773623961
O   O28       1.0  0.27370  0.85950  0.65870  1.0000 -0.2773623961
O   O29       1.0  0.20710  0.79110  0.20300  1.0000 -0.3320870877
O   O30       1.0  0.79110  0.20710  0.29700  1.0000 -0.3320870877
O   O31       1.0  0.79290  0.20890  0.79700  1.0000 -0.3320870877
O   O32       1.0  0.20890  0.79290  0.70300  1.0000 -0.3320870877
O   O33       1.0  0.32990  0.62430  0.31800  1.0000 -0.3320870877
O   O34       1.0  0.62430  0.32990  0.18200  1.0000 -0.3320870877
O   O35       1.0  0.67010  0.37570  0.68200  1.0000 -0.3320870877
O   O36       1.0  0.37570  0.67010  0.81800  1.0000 -0.3375777749
O   O37       1.0  0.43910  0.63310  0.33500  1.0000 -0.3202309109
O   O38       1.0  0.63310  0.43910  0.16500  1.0000 -0.311377987
O   O39       1.0  0.56090  0.36690  0.66500  1.0000 -0.311377987
O   O40       1.0  0.36690  0.56090  0.83500  1.0000 -0.3202309109
O   O41       1.0  0.17140  0.84260  0.45200  1.0000 -0.2773623961
O   O42       1.0  0.84260  0.17140  0.04800  1.0000 -0.2773623961
O   O43       1.0  0.82860  0.15740  0.54800  1.0000 -0.2773623961
O   O44       1.0  0.15740  0.82860  0.95200  1.0000 -0.2773623961
O   O45       1.0  0.20470  0.93570  0.42500  1.0000 -0.2619349495
O   O46       1.0  0.93570  0.20470  0.07500  1.0000 -0.2619349495
O   O47       1.0  0.79530  0.06430  0.57500  1.0000 -0.2619349495
O   O48       1.0  0.06430  0.79530  0.92500  1.0000 -0.2619349495
O   O49       1.0  0.87010  0.60090  0.41590  1.0000 -0.6140875566
O   O50       1.0  0.60090  0.87010  0.08410  1.0000 -0.6140875566
O   O51       1.0  0.12990  0.39910  0.58410  1.0000 -0.6154445358
O   O52       1.0  0.39910  0.12990  0.91590  1.0000 -0.6140875566
O   O53       1.0  0.95210  0.56070  0.53880  1.0000 -0.7298625208
O   O54       1.0  0.56070  0.95210  0.96120  1.0000 -0.7298625208
O   O55       1.0  0.04790  0.43930  0.46120  1.0000 -0.7298625208
O   O56       1.0  0.43930  0.04790  0.03880  1.0000 -0.7298625208
O   O57       1.0  0.93700  0.72540  0.81800  1.0000 -0.1978747308
O   O58       1.0  0.72540  0.93700  0.68200  1.0000 -0.1978747308
O   O59       1.0  0.06300  0.27460  0.18200  1.0000 -0.1978747308
O   O60       1.0  0.27460  0.06300  0.31800  1.0000 -0.1978747308
O   O61       1.0  0.85220  0.72820  0.89200  1.0000 -0.2385924754
O   O62       1.0  0.72820  0.85220  0.60800  1.0000 -0.2334683187
O   O63       1.0  0.14780  0.27180  0.10800  1.0000 -0.2385924754
O   O64       1.0  0.27180  0.14780  0.39200  1.0000 -0.2385924754
O   O65       1.0  0.62360  0.73840  0.67000  1.0000 -0.3375777749
O   O66       1.0  0.73840  0.62360  0.83000  1.0000 -0.3320870877
O   O67       1.0  0.37640  0.26160  0.33000  1.0000 -0.3320870877
O   O68       1.0  0.26160  0.37640  0.17000  1.0000 -0.3375777749
O   O69       1.0  0.64130  0.73170  0.51700  1.0000 -0.3015919474
O   O70       1.0  0.73170  0.64130  0.98300  1.0000 -0.3015919474
O   O71       1.0  0.35870  0.26830  0.48300  1.0000 -0.3015919474
O   O72       1.0  0.26830  0.35870  0.01700  1.0000 -0.311377987
