# DDEC6 charges by PACMAN v1.1 (https://github.com/mtap-research/PACMAN-charge/)
data_2012[Ni][pcu]3[ASR]1
_chemical_formula_sum              "Ni24 H108 C72 S24 O96"
_cell_length_a       18.2463
_cell_length_b       18.2463
_cell_length_c       18.2463
_cell_angle_alpha    95.0087
_cell_angle_beta     95.0087
_cell_angle_gamma    95.0087

_symmetry_space_group_name_H-M    "P 1"
_symmetry_Int_Tables_number       1

loop_
  _symmetry_equiv_pos_as_xyz
  'x, y, z'

loop_
  _atom_site_type_symbol
  _atom_site_label
  _atom_site_symmetry_multiplicity
  _atom_site_fract_x
  _atom_site_fract_y
  _atom_site_fract_z
  _atom_site_occupancy
  _atom_site_charge
Ni  Ni1       1.0  0.58364  0.25360  0.77692  1.0000 0.9981374128
Ni  Ni2       1.0  0.25360  0.77692  0.58364  1.0000 0.9981374128
Ni  Ni3       1.0  0.77692  0.58364  0.25360  1.0000 0.9981374128
Ni  Ni4       1.0  0.41636  0.74640  0.22308  1.0000 0.9981374128
Ni  Ni5       1.0  0.74640  0.22308  0.41636  1.0000 0.9981374128
Ni  Ni6       1.0  0.22308  0.41636  0.74640  1.0000 0.9981374128
Ni  Ni7       1.0  0.72560  0.41991  0.20488  1.0000 1.0468595012
Ni  Ni8       1.0  0.41991  0.20488  0.72560  1.0000 1.0468595012
Ni  Ni9       1.0  0.20488  0.72560  0.41991  1.0000 1.0468595012
Ni  Ni10      1.0  0.27440  0.58009  0.79512  1.0000 1.0468595012
Ni  Ni11      1.0  0.58009  0.79512  0.27440  1.0000 1.0468595012
Ni  Ni12      1.0  0.79512  0.27440  0.58009  1.0000 1.0468595012
Ni  Ni13      1.0  0.46261  0.37022  0.75757  1.0000 1.0809520467
Ni  Ni14      1.0  0.37022  0.75757  0.46261  1.0000 1.0809520467
Ni  Ni15      1.0  0.75757  0.46261  0.37022  1.0000 1.0809520467
Ni  Ni16      1.0  0.53739  0.62978  0.24243  1.0000 1.0809520467
Ni  Ni17      1.0  0.62978  0.24243  0.53739  1.0000 1.0809520467
Ni  Ni18      1.0  0.24243  0.53739  0.62978  1.0000 1.0809520467
Ni  Ni19      1.0  0.70582  0.17480  0.70414  1.0000 1.0565760517
Ni  Ni20      1.0  0.17480  0.70414  0.70582  1.0000 1.0565760517
Ni  Ni21      1.0  0.70414  0.70582  0.17480  1.0000 1.0565760517
Ni  Ni22      1.0  0.29418  0.82520  0.29586  1.0000 1.0565760517
Ni  Ni23      1.0  0.82520  0.29586  0.29418  1.0000 1.0565760517
Ni  Ni24      1.0  0.29586  0.29418  0.82520  1.0000 1.0565760517
H   H1        1.0  0.70380  0.27540  0.99610  1.0000 0.1210936335
H   H2        1.0  0.27540  0.99610  0.70380  1.0000 0.1210936335
H   H3        1.0  0.99610  0.70380  0.27540  1.0000 0.1210936335
H   H4        1.0  0.29620  0.72460  0.00390  1.0000 0.1210936335
H   H5        1.0  0.72460  0.00390  0.29620  1.0000 0.1210936335
H   H6        1.0  0.00390  0.29620  0.72460  1.0000 0.1210936335
H   H7        1.0  0.88070  0.19660  0.10410  1.0000 0.1210936335
H   H8        1.0  0.19660  0.10410  0.88070  1.0000 0.1210936335
H   H9        1.0  0.10410  0.88070  0.19660  1.0000 0.1210936335
H   H10       1.0  0.11930  0.80340  0.89590  1.0000 0.1210936335
H   H11       1.0  0.80340  0.89590  0.11930  1.0000 0.1210936335
H   H12       1.0  0.89590  0.11930  0.80340  1.0000 0.1210936335
H   H13       1.0  0.90060  0.12230  0.99200  1.0000 0.1210936335
H   H14       1.0  0.12230  0.99200  0.90060  1.0000 0.1210936335
H   H15       1.0  0.99200  0.90060  0.12230  1.0000 0.1210936335
H   H16       1.0  0.09940  0.87770  0.00800  1.0000 0.1210936335
H   H17       1.0  0.87770  0.00800  0.09940  1.0000 0.1210936335
H   H18       1.0  0.00800  0.09940  0.87770  1.0000 0.1210936335
H   H19       1.0  0.81120  0.11480  0.89180  1.0000 0.1210936335
H   H20       1.0  0.11480  0.89180  0.81120  1.0000 0.1210936335
H   H21       1.0  0.89180  0.81120  0.11480  1.0000 0.1210936335
H   H22       1.0  0.18880  0.88520  0.10820  1.0000 0.1210936335
H   H23       1.0  0.88520  0.10820  0.18880  1.0000 0.1210936335
H   H24       1.0  0.10820  0.18880  0.88520  1.0000 0.1210936335
H   H25       1.0  0.51320  0.28640  0.65310  1.0000 0.4201280161
H   H26       1.0  0.28640  0.65310  0.51320  1.0000 0.4201280161
H   H27       1.0  0.65310  0.51320  0.28640  1.0000 0.4201280161
H   H28       1.0  0.48680  0.71360  0.34690  1.0000 0.4201280161
H   H29       1.0  0.71360  0.34690  0.48680  1.0000 0.4201280161
H   H30       1.0  0.34690  0.48680  0.71360  1.0000 0.4201280161
H   H31       1.0  0.84520  0.42760  0.27940  1.0000 0.4005029036
H   H32       1.0  0.42760  0.27940  0.84520  1.0000 0.4005029036
H   H33       1.0  0.27940  0.84520  0.42760  1.0000 0.4005029036
H   H34       1.0  0.15480  0.57240  0.72060  1.0000 0.4005029036
H   H35       1.0  0.57240  0.72060  0.15480  1.0000 0.4005029036
H   H36       1.0  0.72060  0.15480  0.57240  1.0000 0.4005029036
H   H37       1.0  0.52810  0.03860  0.75910  1.0000 0.1880354309
H   H38       1.0  0.03860  0.75910  0.52810  1.0000 0.1880354309
H   H39       1.0  0.75910  0.52810  0.03860  1.0000 0.1880354309
H   H40       1.0  0.47190  0.96140  0.24090  1.0000 0.1880354309
H   H41       1.0  0.96140  0.24090  0.47190  1.0000 0.1880354309
H   H42       1.0  0.24090  0.47190  0.96140  1.0000 0.1880354309
H   H43       1.0  0.49220  0.99650  0.82270  1.0000 0.1627219266
H   H44       1.0  0.99650  0.82270  0.49220  1.0000 0.1627219266
H   H45       1.0  0.82270  0.49220  0.99650  1.0000 0.1627219266
H   H46       1.0  0.50780  0.00350  0.17730  1.0000 0.1627219266
H   H47       1.0  0.00350  0.17730  0.50780  1.0000 0.1627219266
H   H48       1.0  0.17730  0.50780  0.00350  1.0000 0.1627219266
H   H49       1.0  0.44260  0.04320  0.77100  1.0000 0.1880354309
H   H50       1.0  0.04320  0.77100  0.44260  1.0000 0.1880354309
H   H51       1.0  0.77100  0.44260  0.04320  1.0000 0.1880354309
H   H52       1.0  0.55740  0.95680  0.22900  1.0000 0.1880354309
H   H53       1.0  0.95680  0.22900  0.55740  1.0000 0.1880354309
H   H54       1.0  0.22900  0.55740  0.95680  1.0000 0.1880354309
H   H55       1.0  0.45110  0.16150  0.95710  1.0000 0.1712259982
H   H56       1.0  0.16150  0.95710  0.45110  1.0000 0.1712259982
H   H57       1.0  0.95710  0.45110  0.16150  1.0000 0.1712259982
H   H58       1.0  0.54890  0.83850  0.04290  1.0000 0.1712259982
H   H59       1.0  0.83850  0.04290  0.54890  1.0000 0.1712259982
H   H60       1.0  0.04290  0.54890  0.83850  1.0000 0.1712259982
H   H61       1.0  0.39600  0.11740  0.89160  1.0000 0.179199359
H   H62       1.0  0.11740  0.89160  0.39600  1.0000 0.179199359
H   H63       1.0  0.89160  0.39600  0.11740  1.0000 0.179199359
H   H64       1.0  0.60400  0.88260  0.10840  1.0000 0.179199359
H   H65       1.0  0.88260  0.10840  0.60400  1.0000 0.179199359
H   H66       1.0  0.10840  0.60400  0.88260  1.0000 0.179199359
H   H67       1.0  0.44500  0.07310  0.94630  1.0000 0.1627219266
H   H68       1.0  0.07310  0.94630  0.44500  1.0000 0.1627219266
H   H69       1.0  0.94630  0.44500  0.07310  1.0000 0.1627219266
H   H70       1.0  0.55500  0.92690  0.05370  1.0000 0.1627219266
H   H71       1.0  0.92690  0.05370  0.55500  1.0000 0.1627219266
H   H72       1.0  0.05370  0.55500  0.92690  1.0000 0.1627219266
H   H73       1.0  0.60480  0.50200  0.85800  1.0000 0.179199359
H   H74       1.0  0.50200  0.85800  0.60480  1.0000 0.179199359
H   H75       1.0  0.85800  0.60480  0.50200  1.0000 0.179199359
H   H76       1.0  0.39520  0.49800  0.14200  1.0000 0.179199359
H   H77       1.0  0.49800  0.14200  0.39520  1.0000 0.179199359
H   H78       1.0  0.14200  0.39520  0.49800  1.0000 0.179199359
H   H79       1.0  0.53250  0.47940  0.89770  1.0000 0.1712259982
H   H80       1.0  0.47940  0.89770  0.53250  1.0000 0.1712259982
H   H81       1.0  0.89770  0.53250  0.47940  1.0000 0.1712259982
H   H82       1.0  0.46750  0.52060  0.10230  1.0000 0.1712259982
H   H83       1.0  0.52060  0.10230  0.46750  1.0000 0.1712259982
H   H84       1.0  0.10230  0.46750  0.52060  1.0000 0.1712259982
H   H85       1.0  0.60880  0.50660  0.94630  1.0000 0.1712259982
H   H86       1.0  0.50660  0.94630  0.60880  1.0000 0.1712259982
H   H87       1.0  0.94630  0.60880  0.50660  1.0000 0.1712259982
H   H88       1.0  0.39120  0.49340  0.05370  1.0000 0.1712259982
H   H89       1.0  0.49340  0.05370  0.39120  1.0000 0.1712259982
H   H90       1.0  0.05370  0.39120  0.49340  1.0000 0.1712259982
H   H91       1.0  0.56920  0.31960  0.98720  1.0000 0.179199359
H   H92       1.0  0.31960  0.98720  0.56920  1.0000 0.179199359
H   H93       1.0  0.98720  0.56920  0.31960  1.0000 0.179199359
H   H94       1.0  0.43080  0.68040  0.01280  1.0000 0.179199359
H   H95       1.0  0.68040  0.01280  0.43080  1.0000 0.179199359
H   H96       1.0  0.01280  0.43080  0.68040  1.0000 0.179199359
H   H97       1.0  0.58330  0.40470  0.01880  1.0000 0.179199359
H   H98       1.0  0.40470  0.01880  0.58330  1.0000 0.1880354309
H   H99       1.0  0.01880  0.58330  0.40470  1.0000 0.179199359
H   H100      1.0  0.41670  0.59530  0.98120  1.0000 0.179199359
H   H101      1.0  0.59530  0.98120  0.41670  1.0000 0.179199359
H   H102      1.0  0.98120  0.41670  0.59530  1.0000 0.179199359
H   H103      1.0  0.50980  0.37570  0.96650  1.0000 0.1880354309
H   H104      1.0  0.37570  0.96650  0.50980  1.0000 0.1880354309
H   H105      1.0  0.96650  0.50980  0.37570  1.0000 0.1880354309
H   H106      1.0  0.49020  0.62430  0.03350  1.0000 0.1880354309
H   H107      1.0  0.62430  0.03350  0.49020  1.0000 0.1880354309
H   H108      1.0  0.03350  0.49020  0.62430  1.0000 0.1880354309
C   C1        1.0  0.69880  0.19510  0.86810  1.0000 0.5719705804
C   C2        1.0  0.19510  0.86810  0.69880  1.0000 0.5719705804
C   C3        1.0  0.86810  0.69880  0.19510  1.0000 0.5719705804
C   C4        1.0  0.30120  0.80490  0.13190  1.0000 0.5719705804
C   C5        1.0  0.80490  0.13190  0.30120  1.0000 0.5719705804
C   C6        1.0  0.13190  0.30120  0.80490  1.0000 0.5719705804
C   C7        1.0  0.78100  0.29060  0.12570  1.0000 0.5853714927
C   C8        1.0  0.29060  0.12570  0.78100  1.0000 0.5853714927
C   C9        1.0  0.12570  0.78100  0.29060  1.0000 0.5853714927
C   C10       1.0  0.21900  0.70940  0.87430  1.0000 0.5853714927
C   C11       1.0  0.70940  0.87430  0.21900  1.0000 0.5853714927
C   C12       1.0  0.87430  0.21900  0.70940  1.0000 0.5853714927
C   C13       1.0  0.74810  0.19150  0.93130  1.0000 -0.0794786268
C   C14       1.0  0.19150  0.93130  0.74810  1.0000 -0.0794786268
C   C15       1.0  0.93130  0.74810  0.19150  1.0000 -0.0794786268
C   C16       1.0  0.25190  0.80850  0.06870  1.0000 -0.0794786268
C   C17       1.0  0.80850  0.06870  0.25190  1.0000 -0.0794786268
C   C18       1.0  0.06870  0.25190  0.80850  1.0000 -0.0794786268
C   C19       1.0  0.74190  0.24300  0.99670  1.0000 -0.0721569711
C   C20       1.0  0.24300  0.99670  0.74190  1.0000 -0.0721569711
C   C21       1.0  0.99670  0.74190  0.24300  1.0000 -0.0721569711
C   C22       1.0  0.25810  0.75700  0.00330  1.0000 -0.0721569711
C   C23       1.0  0.75700  0.00330  0.25810  1.0000 -0.0721569711
C   C24       1.0  0.00330  0.25810  0.75700  1.0000 -0.0721569711
C   C25       1.0  0.79170  0.24470  0.05950  1.0000 -0.0794786268
C   C26       1.0  0.24470  0.05950  0.79170  1.0000 -0.0794786268
C   C27       1.0  0.05950  0.79170  0.24470  1.0000 -0.0794786268
C   C28       1.0  0.20830  0.75530  0.94050  1.0000 -0.0794786268
C   C29       1.0  0.75530  0.94050  0.20830  1.0000 -0.0794786268
C   C30       1.0  0.94050  0.20830  0.75530  1.0000 -0.0794786268
C   C31       1.0  0.84880  0.19770  0.06020  1.0000 -0.0721569711
C   C32       1.0  0.19770  0.06020  0.84880  1.0000 -0.0721569711
C   C33       1.0  0.06020  0.84880  0.19770  1.0000 -0.0721569711
C   C34       1.0  0.15120  0.80230  0.93980  1.0000 -0.0721569711
C   C35       1.0  0.80230  0.93980  0.15120  1.0000 -0.0721569711
C   C36       1.0  0.93980  0.15120  0.80230  1.0000 -0.0721569711
C   C37       1.0  0.85920  0.15040  0.99390  1.0000 -0.121044471
C   C38       1.0  0.15040  0.99390  0.85920  1.0000 -0.121044471
C   C39       1.0  0.99390  0.85920  0.15040  1.0000 -0.121044471
C   C40       1.0  0.14080  0.84960  0.00610  1.0000 -0.121044471
C   C41       1.0  0.84960  0.00610  0.14080  1.0000 -0.121044471
C   C42       1.0  0.00610  0.14080  0.84960  1.0000 -0.121044471
C   C43       1.0  0.80670  0.14820  0.93370  1.0000 -0.0598792003
C   C44       1.0  0.14820  0.93370  0.80670  1.0000 -0.0598792003
C   C45       1.0  0.93370  0.80670  0.14820  1.0000 -0.0598792003
C   C46       1.0  0.19330  0.85180  0.06630  1.0000 -0.0598792003
C   C47       1.0  0.85180  0.06630  0.19330  1.0000 -0.0598792003
C   C48       1.0  0.06630  0.19330  0.85180  1.0000 -0.0598792003
C   C49       1.0  0.49200  0.04080  0.79600  1.0000 -0.5380342023
C   C50       1.0  0.04080  0.79600  0.49200  1.0000 -0.5380342023
C   C51       1.0  0.79600  0.49200  0.04080  1.0000 -0.5380342023
C   C52       1.0  0.50800  0.95920  0.20400  1.0000 -0.5380342023
C   C53       1.0  0.95920  0.20400  0.50800  1.0000 -0.5380342023
C   C54       1.0  0.20400  0.50800  0.95920  1.0000 -0.5380342023
C   C55       1.0  0.44390  0.11810  0.92070  1.0000 -0.5265289313
C   C56       1.0  0.11810  0.92070  0.44390  1.0000 -0.5265289313
C   C57       1.0  0.92070  0.44390  0.11810  1.0000 -0.5265289313
C   C58       1.0  0.55610  0.88190  0.07930  1.0000 -0.5265289313
C   C59       1.0  0.88190  0.07930  0.55610  1.0000 -0.5265289313
C   C60       1.0  0.07930  0.55610  0.88190  1.0000 -0.5265289313
C   C61       1.0  0.58630  0.47890  0.90020  1.0000 -0.5265289313
C   C62       1.0  0.47890  0.90020  0.58630  1.0000 -0.5265289313
C   C63       1.0  0.90020  0.58630  0.47890  1.0000 -0.5265289313
C   C64       1.0  0.41370  0.52110  0.09980  1.0000 -0.5265289313
C   C65       1.0  0.52110  0.09980  0.41370  1.0000 -0.5265289313
C   C66       1.0  0.09980  0.41370  0.52110  1.0000 -0.5265289313
C   C67       1.0  0.56250  0.37040  0.97640  1.0000 -0.5493786351
C   C68       1.0  0.37040  0.97640  0.56250  1.0000 -0.5493786351
C   C69       1.0  0.97640  0.56250  0.37040  1.0000 -0.5493786351
C   C70       1.0  0.43750  0.62960  0.02360  1.0000 -0.5493786351
C   C71       1.0  0.62960  0.02360  0.43750  1.0000 -0.5493786351
C   C72       1.0  0.02360  0.43750  0.62960  1.0000 -0.5493786351
S   S1        1.0  0.68488  0.34823  0.67957  1.0000 1.428946255
S   S2        1.0  0.34823  0.67957  0.68488  1.0000 1.428946255
S   S3        1.0  0.67957  0.68488  0.34823  1.0000 1.428946255
S   S4        1.0  0.31512  0.65177  0.32043  1.0000 1.428946255
S   S5        1.0  0.65177  0.32043  0.31512  1.0000 1.428946255
S   S6        1.0  0.32043  0.31512  0.65177  1.0000 1.428946255
S   S7        1.0  0.53904  0.13195  0.63408  1.0000 1.4045583709
S   S8        1.0  0.13195  0.63408  0.53904  1.0000 1.4045583709
S   S9        1.0  0.63408  0.53904  0.13195  1.0000 1.4045583709
S   S10       1.0  0.46096  0.86805  0.36592  1.0000 1.4045583709
S   S11       1.0  0.86805  0.36592  0.46096  1.0000 1.4055834993
S   S12       1.0  0.36592  0.46096  0.86805  1.0000 1.4045583709
S   S13       1.0  0.51642  0.12196  0.86046  1.0000 0.7042695863
S   S14       1.0  0.12196  0.86046  0.51642  1.0000 0.7042695863
S   S15       1.0  0.86046  0.51642  0.12196  1.0000 0.7042695863
S   S16       1.0  0.48358  0.87804  0.13954  1.0000 0.7042695863
S   S17       1.0  0.87804  0.13954  0.48358  1.0000 0.7042695863
S   S18       1.0  0.13954  0.48358  0.87804  1.0000 0.7042695863
S   S19       1.0  0.60841  0.39033  0.89778  1.0000 0.7092671279
S   S20       1.0  0.39033  0.89778  0.60841  1.0000 0.7092671279
S   S21       1.0  0.89778  0.60841  0.39033  1.0000 0.7092671279
S   S22       1.0  0.39159  0.60967  0.10222  1.0000 0.7092671279
S   S23       1.0  0.60967  0.10222  0.39159  1.0000 0.7092671279
S   S24       1.0  0.10222  0.39159  0.60967  1.0000 0.7092671279
O   O1        1.0  0.70750  0.14640  0.81120  1.0000 -0.5863522804
O   O2        1.0  0.14640  0.81120  0.70750  1.0000 -0.5863522804
O   O3        1.0  0.81120  0.70750  0.14640  1.0000 -0.5863522804
O   O4        1.0  0.29250  0.85360  0.18880  1.0000 -0.5863522804
O   O5        1.0  0.85360  0.18880  0.29250  1.0000 -0.5863522804
O   O6        1.0  0.18880  0.29250  0.85360  1.0000 -0.5863522804
O   O7        1.0  0.65020  0.24020  0.86410  1.0000 -0.5493786351
O   O8        1.0  0.24020  0.86410  0.65020  1.0000 -0.5493786351
O   O9        1.0  0.86410  0.65020  0.24020  1.0000 -0.5493786351
O   O10       1.0  0.34980  0.75980  0.13590  1.0000 -0.5493786351
O   O11       1.0  0.75980  0.13590  0.34980  1.0000 -0.5493786351
O   O12       1.0  0.13590  0.34980  0.75980  1.0000 -0.5493786351
O   O13       1.0  0.74830  0.34790  0.12330  1.0000 -0.5107439176
O   O14       1.0  0.34790  0.12330  0.74830  1.0000 -0.5107439176
O   O15       1.0  0.12330  0.74830  0.34790  1.0000 -0.5107439176
O   O16       1.0  0.25170  0.65210  0.87670  1.0000 -0.5107439176
O   O17       1.0  0.65210  0.87670  0.25170  1.0000 -0.5107439176
O   O18       1.0  0.87670  0.25170  0.65210  1.0000 -0.5107439176
O   O19       1.0  0.81040  0.27020  0.18630  1.0000 -0.5602817551
O   O20       1.0  0.27020  0.18630  0.81040  1.0000 -0.5602817551
O   O21       1.0  0.18630  0.81040  0.27020  1.0000 -0.5602817551
O   O22       1.0  0.18960  0.72980  0.81370  1.0000 -0.5602817551
O   O23       1.0  0.72980  0.81370  0.18960  1.0000 -0.5602817551
O   O24       1.0  0.81370  0.18960  0.72980  1.0000 -0.5602817551
O   O25       1.0  0.50237  0.28307  0.70557  1.0000 -0.929266822
O   O26       1.0  0.28307  0.70557  0.50237  1.0000 -0.929266822
O   O27       1.0  0.70557  0.50237  0.28307  1.0000 -0.929266822
O   O28       1.0  0.49763  0.71693  0.29443  1.0000 -0.929266822
O   O29       1.0  0.71693  0.29443  0.49763  1.0000 -0.929266822
O   O30       1.0  0.29443  0.49763  0.71693  1.0000 -0.929266822
O   O31       1.0  0.79800  0.39900  0.28830  1.0000 -0.8945537226
O   O32       1.0  0.39900  0.28830  0.79800  1.0000 -0.8945537226
O   O33       1.0  0.28830  0.79800  0.39900  1.0000 -0.8945537226
O   O34       1.0  0.20200  0.60100  0.71170  1.0000 -0.8945537226
O   O35       1.0  0.60100  0.71170  0.20200  1.0000 -0.8945537226
O   O36       1.0  0.71170  0.20200  0.60100  1.0000 -0.8945537226
O   O37       1.0  0.75940  0.35310  0.65190  1.0000 -0.6222577856
O   O38       1.0  0.35310  0.65190  0.75940  1.0000 -0.6222577856
O   O39       1.0  0.65190  0.75940  0.35310  1.0000 -0.6222577856
O   O40       1.0  0.24060  0.64690  0.34810  1.0000 -0.6222577856
O   O41       1.0  0.64690  0.34810  0.24060  1.0000 -0.6222577856
O   O42       1.0  0.34810  0.24060  0.64690  1.0000 -0.6222577856
O   O43       1.0  0.62500  0.32800  0.61640  1.0000 -0.6672417538
O   O44       1.0  0.32800  0.61640  0.62500  1.0000 -0.6672417538
O   O45       1.0  0.61640  0.62500  0.32800  1.0000 -0.6672417538
O   O46       1.0  0.37500  0.67200  0.38360  1.0000 -0.6672417538
O   O47       1.0  0.67200  0.38360  0.37500  1.0000 -0.6672417538
O   O48       1.0  0.38360  0.37500  0.67200  1.0000 -0.6672417538
O   O49       1.0  0.68010  0.28950  0.73120  1.0000 -0.676030697
O   O50       1.0  0.28950  0.73120  0.68010  1.0000 -0.676030697
O   O51       1.0  0.73120  0.68010  0.28950  1.0000 -0.6672417538
O   O52       1.0  0.31990  0.71050  0.26880  1.0000 -0.676030697
O   O53       1.0  0.71050  0.26880  0.31990  1.0000 -0.676030697
O   O54       1.0  0.26880  0.31990  0.71050  1.0000 -0.676030697
O   O55       1.0  0.67190  0.41880  0.71870  1.0000 -0.5652128474
O   O56       1.0  0.41880  0.71870  0.67190  1.0000 -0.5652128474
O   O57       1.0  0.71870  0.67190  0.41880  1.0000 -0.5652128474
O   O58       1.0  0.32810  0.58120  0.28130  1.0000 -0.5652128474
O   O59       1.0  0.58120  0.28130  0.32810  1.0000 -0.5652128474
O   O60       1.0  0.28130  0.32810  0.58120  1.0000 -0.5652128474
O   O61       1.0  0.59290  0.15780  0.69930  1.0000 -0.6990302022
O   O62       1.0  0.15780  0.69930  0.59290  1.0000 -0.6990302022
O   O63       1.0  0.69930  0.59290  0.15780  1.0000 -0.6990302022
O   O64       1.0  0.40710  0.84220  0.30070  1.0000 -0.6990302022
O   O65       1.0  0.84220  0.30070  0.40710  1.0000 -0.6990302022
O   O66       1.0  0.30070  0.40710  0.84220  1.0000 -0.6990302022
O   O67       1.0  0.54280  0.18520  0.57800  1.0000 -0.6559194144
O   O68       1.0  0.18520  0.57800  0.54280  1.0000 -0.6559194144
O   O69       1.0  0.57800  0.54280  0.18520  1.0000 -0.6559194144
O   O70       1.0  0.45720  0.81480  0.42200  1.0000 -0.6559194144
O   O71       1.0  0.81480  0.42200  0.45720  1.0000 -0.6559194144
O   O72       1.0  0.42200  0.45720  0.81480  1.0000 -0.6559194144
O   O73       1.0  0.55900  0.05850  0.60270  1.0000 -0.6283309774
O   O74       1.0  0.05850  0.60270  0.55900  1.0000 -0.6283309774
O   O75       1.0  0.60270  0.55900  0.05850  1.0000 -0.6283309774
O   O76       1.0  0.44100  0.94150  0.39730  1.0000 -0.6283309774
O   O77       1.0  0.94150  0.39730  0.44100  1.0000 -0.6283309774
O   O78       1.0  0.39730  0.44100  0.94150  1.0000 -0.6283309774
O   O79       1.0  0.46430  0.12680  0.65940  1.0000 -0.6222577856
O   O80       1.0  0.12680  0.65940  0.46430  1.0000 -0.6222577856
O   O81       1.0  0.65940  0.46430  0.12680  1.0000 -0.6222577856
O   O82       1.0  0.53570  0.87320  0.34060  1.0000 -0.6222577856
O   O83       1.0  0.87320  0.34060  0.53570  1.0000 -0.6222577856
O   O84       1.0  0.34060  0.53570  0.87320  1.0000 -0.6222577856
O   O85       1.0  0.49913  0.18633  0.81443  1.0000 -0.5951926724
O   O86       1.0  0.18633  0.81443  0.49913  1.0000 -0.5951926724
O   O87       1.0  0.81443  0.49913  0.18633  1.0000 -0.5951926724
O   O88       1.0  0.50087  0.81367  0.18557  1.0000 -0.5951926724
O   O89       1.0  0.81367  0.18557  0.50087  1.0000 -0.5951926724
O   O90       1.0  0.18557  0.50087  0.81367  1.0000 -0.5951926724
O   O91       1.0  0.55500  0.34950  0.82990  1.0000 -0.6283309774
O   O92       1.0  0.34950  0.82990  0.55500  1.0000 -0.6283309774
O   O93       1.0  0.82990  0.55500  0.34950  1.0000 -0.6283309774
O   O94       1.0  0.44500  0.65050  0.17010  1.0000 -0.6283309774
O   O95       1.0  0.65050  0.17010  0.44500  1.0000 -0.6283309774
O   O96       1.0  0.17010  0.44500  0.65050  1.0000 -0.6283309774
