# DDEC6 charges by PACMAN v1.1 (https://github.com/mtap-research/PACMAN-charge/)
data_2012[Tb][pcu]3[ASR]1
_chemical_formula_sum              "Tb4 H32 C48 N12 O36"
_cell_length_a       10.1792
_cell_length_b       17.5193
_cell_length_c       11.4268
_cell_angle_alpha    90
_cell_angle_beta     110.035
_cell_angle_gamma    90

_symmetry_space_group_name_H-M    "P 1"
_symmetry_Int_Tables_number       1

loop_
  _symmetry_equiv_pos_as_xyz
  'x, y, z'

loop_
  _atom_site_type_symbol
  _atom_site_label
  _atom_site_symmetry_multiplicity
  _atom_site_fract_x
  _atom_site_fract_y
  _atom_site_fract_z
  _atom_site_occupancy
  _atom_site_charge
Tb  Tb1       1.0  0.01038  0.50725  0.18171  1.0000 2.0081039452
Tb  Tb2       1.0  0.98962  0.00725  0.31829  1.0000 2.0081039452
Tb  Tb3       1.0  0.98962  0.49275  0.81829  1.0000 2.0081039452
Tb  Tb4       1.0  0.01038  0.99275  0.68171  1.0000 2.0081039452
H   H1        1.0  0.91040  0.81610  0.30380  1.0000 0.1519246483
H   H2        1.0  0.08960  0.31610  0.19620  1.0000 0.1519246483
H   H3        1.0  0.08960  0.18390  0.69620  1.0000 0.1519246483
H   H4        1.0  0.91040  0.68390  0.80380  1.0000 0.1519246483
H   H5        1.0  0.10100  0.71640  0.63520  1.0000 0.1519246483
H   H6        1.0  0.89900  0.21640  0.86480  1.0000 0.1519246483
H   H7        1.0  0.89900  0.28360  0.36480  1.0000 0.1519246483
H   H8        1.0  0.10100  0.78360  0.13520  1.0000 0.1519246483
H   H9        1.0  0.85610  0.69750  0.21520  1.0000 0.1408807179
H   H10       1.0  0.14390  0.19750  0.28480  1.0000 0.1408807179
H   H11       1.0  0.14390  0.30250  0.78480  1.0000 0.1408807179
H   H12       1.0  0.85610  0.80250  0.71520  1.0000 0.1408807179
H   H13       1.0  0.05450  0.59900  0.53940  1.0000 0.1408807179
H   H14       1.0  0.94550  0.09900  0.96060  1.0000 0.1408807179
H   H15       1.0  0.94550  0.40100  0.46060  1.0000 0.1408807179
H   H16       1.0  0.05450  0.90100  0.03940  1.0000 0.1408807179
H   H17       1.0  0.43420  0.39220  0.96080  1.0000 0.1408807179
H   H18       1.0  0.56580  0.89220  0.53920  1.0000 0.1408807179
H   H19       1.0  0.56580  0.60780  0.03920  1.0000 0.1408807179
H   H20       1.0  0.43420  0.10780  0.46080  1.0000 0.1408807179
H   H21       1.0  0.47930  0.49110  0.28760  1.0000 0.1556654358
H   H22       1.0  0.52070  0.99110  0.21240  1.0000 0.1556654358
H   H23       1.0  0.52070  0.50890  0.71240  1.0000 0.1556654358
H   H24       1.0  0.47930  0.00890  0.78760  1.0000 0.1556654358
H   H25       1.0  0.67570  0.37450  0.02680  1.0000 0.1408807179
H   H26       1.0  0.32430  0.87450  0.47320  1.0000 0.1408807179
H   H27       1.0  0.32430  0.62550  0.97320  1.0000 0.1408807179
H   H28       1.0  0.67570  0.12550  0.52680  1.0000 0.1408807179
H   H29       1.0  0.72000  0.47780  0.34460  1.0000 0.1301524127
H   H30       1.0  0.28000  0.97780  0.15540  1.0000 0.1301524127
H   H31       1.0  0.28000  0.52220  0.65540  1.0000 0.1301524127
H   H32       1.0  0.72000  0.02220  0.84460  1.0000 0.1301524127
C   C1        1.0  0.03890  0.85670  0.54180  1.0000 0.6075562024
C   C2        1.0  0.96110  0.35670  0.95820  1.0000 0.6075562024
C   C3        1.0  0.96110  0.14330  0.45820  1.0000 0.6075562024
C   C4        1.0  0.03890  0.64330  0.04180  1.0000 0.6075562024
C   C5        1.0  0.01100  0.77930  0.47960  1.0000 0.0065658669
C   C6        1.0  0.98900  0.27930  0.02040  1.0000 0.0065658669
C   C7        1.0  0.98900  0.22070  0.52040  1.0000 0.0065658669
C   C8        1.0  0.01100  0.72070  0.97960  1.0000 0.0065658669
C   C9        1.0  0.93800  0.77260  0.35270  1.0000 -0.1221408568
C   C10       1.0  0.06200  0.27260  0.14730  1.0000 -0.1221408568
C   C11       1.0  0.06200  0.22740  0.64730  1.0000 -0.1221408568
C   C12       1.0  0.93800  0.72740  0.85270  1.0000 -0.1221408568
C   C13       1.0  0.05300  0.71320  0.54990  1.0000 -0.1221408568
C   C14       1.0  0.94700  0.21320  0.95010  1.0000 -0.1221408568
C   C15       1.0  0.94700  0.28680  0.45010  1.0000 -0.1221408568
C   C16       1.0  0.05300  0.78680  0.04990  1.0000 -0.1221408568
C   C17       1.0  0.90680  0.70180  0.29980  1.0000 -0.038601134
C   C18       1.0  0.09320  0.20180  0.20020  1.0000 -0.038601134
C   C19       1.0  0.09320  0.29820  0.70020  1.0000 -0.038601134
C   C20       1.0  0.90680  0.79820  0.79980  1.0000 -0.038601134
C   C21       1.0  0.02330  0.64320  0.49290  1.0000 -0.0266653244
C   C22       1.0  0.97670  0.14320  0.00710  1.0000 -0.0266653244
C   C23       1.0  0.97670  0.35680  0.50710  1.0000 -0.0266653244
C   C24       1.0  0.02330  0.85680  0.99290  1.0000 -0.0266653244
C   C25       1.0  0.27510  0.46190  0.07210  1.0000 0.6342767858
C   C26       1.0  0.72490  0.96190  0.42790  1.0000 0.6342767858
C   C27       1.0  0.72490  0.53810  0.92790  1.0000 0.6342767858
C   C28       1.0  0.27510  0.03810  0.57210  1.0000 0.6342767858
C   C29       1.0  0.43010  0.44540  0.11600  1.0000 -0.0122059298
C   C30       1.0  0.56990  0.94540  0.38400  1.0000 -0.0122059298
C   C31       1.0  0.56990  0.55460  0.88400  1.0000 -0.0122059298
C   C32       1.0  0.43010  0.05460  0.61600  1.0000 -0.0122059298
C   C33       1.0  0.49030  0.40960  0.03880  1.0000 -0.1394418842
C   C34       1.0  0.50970  0.90960  0.46120  1.0000 -0.1394418842
C   C35       1.0  0.50970  0.59040  0.96120  1.0000 -0.1394418842
C   C36       1.0  0.49030  0.09040  0.53880  1.0000 -0.1394418842
C   C37       1.0  0.51740  0.46910  0.23240  1.0000 -0.1221408568
C   C38       1.0  0.48260  0.96910  0.26760  1.0000 -0.1221408568
C   C39       1.0  0.48260  0.53090  0.76760  1.0000 -0.1221408568
C   C40       1.0  0.51740  0.03090  0.73240  1.0000 -0.1221408568
C   C41       1.0  0.63530  0.39950  0.07780  1.0000 -0.038601134
C   C42       1.0  0.36470  0.89950  0.42220  1.0000 -0.038601134
C   C43       1.0  0.36470  0.60050  0.92220  1.0000 -0.038601134
C   C44       1.0  0.63530  0.10050  0.57780  1.0000 -0.038601134
C   C45       1.0  0.66160  0.46030  0.26750  1.0000 -0.0266653244
C   C46       1.0  0.33840  0.96030  0.23250  1.0000 -0.0266653244
C   C47       1.0  0.33840  0.53970  0.73250  1.0000 -0.0266653244
C   C48       1.0  0.66160  0.03970  0.76750  1.0000 -0.0266653244
N   N1        1.0  0.94900  0.63760  0.36960  1.0000 0.3580228919
N   N2        1.0  0.05100  0.13760  0.13040  1.0000 0.3580228919
N   N3        1.0  0.05100  0.36240  0.63040  1.0000 0.3580228919
N   N4        1.0  0.94900  0.86240  0.86960  1.0000 0.3580228919
N   N5        1.0  0.71560  0.42620  0.18930  1.0000 0.3331242585
N   N6        1.0  0.28440  0.92620  0.31070  1.0000 0.3331242585
N   N7        1.0  0.28440  0.57380  0.81070  1.0000 0.3331242585
N   N8        1.0  0.71560  0.07380  0.68930  1.0000 0.3331242585
N   N9        1.0  0.23190  0.46750  0.40830  1.0000 0.6972311371
N   N10       1.0  0.76810  0.96750  0.09170  1.0000 0.6972311371
N   N11       1.0  0.76810  0.53250  0.59170  1.0000 0.6972311371
N   N12       1.0  0.23190  0.03250  0.90830  1.0000 0.6972311371
O   O1        1.0  0.91570  0.56970  0.31860  1.0000 -0.5888874447
O   O2        1.0  0.08430  0.06970  0.18140  1.0000 -0.5888874447
O   O3        1.0  0.08430  0.43030  0.68140  1.0000 -0.5888874447
O   O4        1.0  0.91570  0.93030  0.81860  1.0000 -0.5888874447
O   O5        1.0  0.02550  0.91520  0.47410  1.0000 -0.704750917
O   O6        1.0  0.97450  0.41520  0.02590  1.0000 -0.704750917
O   O7        1.0  0.97450  0.08480  0.52590  1.0000 -0.704750917
O   O8        1.0  0.02550  0.58480  0.97410  1.0000 -0.704750917
O   O9        1.0  0.06200  0.86100  0.65560  1.0000 -0.5888874447
O   O10       1.0  0.93800  0.36100  0.84440  1.0000 -0.5888874447
O   O11       1.0  0.93800  0.13900  0.34440  1.0000 -0.5888874447
O   O12       1.0  0.06200  0.63900  0.15560  1.0000 -0.5888874447
O   O13       1.0  0.22730  0.48610  0.15330  1.0000 -0.6429925179
O   O14       1.0  0.77270  0.98610  0.34670  1.0000 -0.6429925179
O   O15       1.0  0.77270  0.51390  0.84670  1.0000 -0.6429925179
O   O16       1.0  0.22730  0.01390  0.65330  1.0000 -0.6429925179
O   O17       1.0  0.20840  0.45200  0.95760  1.0000 -0.6575486577
O   O18       1.0  0.79160  0.95200  0.54240  1.0000 -0.6575486577
O   O19       1.0  0.79160  0.54800  0.04240  1.0000 -0.6575486577
O   O20       1.0  0.20840  0.04800  0.45760  1.0000 -0.6575486577
O   O21       1.0  0.85450  0.41900  0.22500  1.0000 -0.6105882591
O   O22       1.0  0.14550  0.91900  0.27500  1.0000 -0.6105882591
O   O23       1.0  0.14550  0.58100  0.77500  1.0000 -0.6105882591
O   O24       1.0  0.85450  0.08100  0.72500  1.0000 -0.6105882591
O   O25       1.0  0.20580  0.53760  0.38020  1.0000 -0.4963874436
O   O26       1.0  0.79420  0.03760  0.11980  1.0000 -0.4963874436
O   O27       1.0  0.79420  0.46240  0.61980  1.0000 -0.4947988308
O   O28       1.0  0.20580  0.96240  0.88020  1.0000 -0.4963874436
O   O29       1.0  0.14560  0.41820  0.34270  1.0000 -0.5233140504
O   O30       1.0  0.85440  0.91820  0.15730  1.0000 -0.5233140504
O   O31       1.0  0.85440  0.58180  0.65730  1.0000 -0.5233140504
O   O32       1.0  0.14560  0.08180  0.84270  1.0000 -0.5233140504
O   O33       1.0  0.33333  0.45190  0.49500  1.0000 -0.336508221
O   O34       1.0  0.66667  0.95190  0.00500  1.0000 -0.336508221
O   O35       1.0  0.66667  0.54810  0.50500  1.0000 -0.336508221
O   O36       1.0  0.33333  0.04810  0.99500  1.0000 -0.336508221
