# DDEC6 charges by PACMAN v1.1 (https://github.com/mtap-research/PACMAN-charge/)
data_2012[Cu][ntt]3[ASR]1
_chemical_formula_sum              "Cu48 H192 C384 N120 O128"
_cell_length_a       41.6393
_cell_length_b       41.6393
_cell_length_c       41.6393
_cell_angle_alpha    120.131
_cell_angle_beta     120.131
_cell_angle_gamma    89.7738

_symmetry_space_group_name_H-M    "P 1"
_symmetry_Int_Tables_number       1

loop_
  _symmetry_equiv_pos_as_xyz
  'x, y, z'

loop_
  _atom_site_type_symbol
  _atom_site_label
  _atom_site_symmetry_multiplicity
  _atom_site_fract_x
  _atom_site_fract_y
  _atom_site_fract_z
  _atom_site_occupancy
  _atom_site_charge
Cu  Cu1       1.0  0.82603  0.79474  0.80981  1.0000 0.8299198784
Cu  Cu2       1.0  0.79474  0.98493  0.96871  1.0000 0.8299198784
Cu  Cu3       1.0  0.98493  0.01622  0.19019  1.0000 0.8299198784
Cu  Cu4       1.0  0.01622  0.82603  0.03129  1.0000 0.8299198784
Cu  Cu5       1.0  0.17397  0.20526  0.19019  1.0000 0.8299198784
Cu  Cu6       1.0  0.20526  0.01507  0.03129  1.0000 0.8299198784
Cu  Cu7       1.0  0.01507  0.98378  0.80981  1.0000 0.8299198784
Cu  Cu8       1.0  0.98378  0.17397  0.96871  1.0000 0.8299198784
Cu  Cu9       1.0  0.76821  0.72713  0.74752  1.0000 0.849426458
Cu  Cu10      1.0  0.72713  0.97961  0.95892  1.0000 0.849426458
Cu  Cu11      1.0  0.97961  0.02069  0.25248  1.0000 0.849426458
Cu  Cu12      1.0  0.02069  0.76821  0.04108  1.0000 0.849426458
Cu  Cu13      1.0  0.23179  0.27287  0.25248  1.0000 0.849426458
Cu  Cu14      1.0  0.27287  0.02039  0.04108  1.0000 0.849426458
Cu  Cu15      1.0  0.02039  0.97931  0.74752  1.0000 0.849426458
Cu  Cu16      1.0  0.97931  0.23179  0.95892  1.0000 0.849426458
Cu  Cu17      1.0  0.02994  0.80935  0.83929  1.0000 0.849426458
Cu  Cu18      1.0  0.80935  0.97006  0.77941  1.0000 0.8449714519
Cu  Cu19      1.0  0.97006  0.19065  0.16071  1.0000 0.849426458
Cu  Cu20      1.0  0.19065  0.02994  0.22059  1.0000 0.849426458
Cu  Cu21      1.0  0.04003  0.74674  0.78677  1.0000 0.849426458
Cu  Cu22      1.0  0.74674  0.95997  0.70671  1.0000 0.849426458
Cu  Cu23      1.0  0.95997  0.25326  0.21323  1.0000 0.849426458
Cu  Cu24      1.0  0.25326  0.04003  0.29329  1.0000 0.849426458
Cu  Cu25      1.0  0.10171  0.38026  0.78445  1.0000 0.4901625015
Cu  Cu26      1.0  0.38026  0.59581  0.27855  1.0000 0.4901625015
Cu  Cu27      1.0  0.59581  0.31726  0.21555  1.0000 0.4901625015
Cu  Cu28      1.0  0.31726  0.10171  0.72145  1.0000 0.4901625015
Cu  Cu29      1.0  0.89829  0.61974  0.21555  1.0000 0.5012605355
Cu  Cu30      1.0  0.61974  0.40419  0.72145  1.0000 0.5012605355
Cu  Cu31      1.0  0.40419  0.68274  0.78445  1.0000 0.4836614169
Cu  Cu32      1.0  0.68274  0.89829  0.27855  1.0000 0.5012605355
Cu  Cu33      1.0  0.68613  0.38466  0.28639  1.0000 0.427760863
Cu  Cu34      1.0  0.38466  0.09827  0.69853  1.0000 0.4533018081
Cu  Cu35      1.0  0.09827  0.39974  0.71361  1.0000 0.4586549736
Cu  Cu36      1.0  0.39974  0.68613  0.30147  1.0000 0.4448573626
Cu  Cu37      1.0  0.31387  0.61534  0.71361  1.0000 0.4533018081
Cu  Cu38      1.0  0.61534  0.90173  0.30147  1.0000 0.4533018081
Cu  Cu39      1.0  0.90173  0.60026  0.28639  1.0000 0.427760863
Cu  Cu40      1.0  0.60026  0.31387  0.69853  1.0000 0.427760863
Cu  Cu41      1.0  0.62501  0.39644  0.31911  1.0000 0.5012605355
Cu  Cu42      1.0  0.39644  0.07733  0.77143  1.0000 0.5090214349
Cu  Cu43      1.0  0.07733  0.30590  0.68089  1.0000 0.5012605355
Cu  Cu44      1.0  0.30590  0.62501  0.22857  1.0000 0.5012605355
Cu  Cu45      1.0  0.37499  0.60356  0.68089  1.0000 0.5090214349
Cu  Cu46      1.0  0.60356  0.92267  0.22857  1.0000 0.5012605355
Cu  Cu47      1.0  0.92267  0.69410  0.31911  1.0000 0.5090214349
Cu  Cu48      1.0  0.69410  0.37499  0.77143  1.0000 0.4901625015
H   H1        1.0  0.69050  0.75830  0.78980  1.0000 0.1389149207
H   H2        1.0  0.75830  0.96850  0.06780  1.0000 0.1389149207
H   H3        1.0  0.96850  0.90070  0.21020  1.0000 0.1389149207
H   H4        1.0  0.90070  0.69050  0.93220  1.0000 0.1389149207
H   H5        1.0  0.30950  0.24170  0.21020  1.0000 0.1389149207
H   H6        1.0  0.24170  0.03150  0.93220  1.0000 0.1389149207
H   H7        1.0  0.03150  0.09930  0.78980  1.0000 0.1389149207
H   H8        1.0  0.09930  0.30950  0.06780  1.0000 0.1389149207
H   H9        1.0  0.77400  0.86510  0.87330  1.0000 0.1389149207
H   H10       1.0  0.86510  0.99180  0.09110  1.0000 0.1389149207
H   H11       1.0  0.99180  0.90070  0.12670  1.0000 0.1389149207
H   H12       1.0  0.90070  0.77400  0.90890  1.0000 0.1389149207
H   H13       1.0  0.22600  0.13490  0.12670  1.0000 0.1389149207
H   H14       1.0  0.13490  0.00820  0.90890  1.0000 0.1389149207
H   H15       1.0  0.00820  0.09930  0.87330  1.0000 0.1389149207
H   H16       1.0  0.09930  0.22600  0.09110  1.0000 0.1389149207
H   H17       1.0  0.67610  0.85520  0.87130  1.0000 0.131877735
H   H18       1.0  0.85520  0.98390  0.17910  1.0000 0.131877735
H   H19       1.0  0.98390  0.80480  0.12870  1.0000 0.131877735
H   H20       1.0  0.80480  0.67610  0.82090  1.0000 0.131877735
H   H21       1.0  0.32390  0.14480  0.12870  1.0000 0.1389149207
H   H22       1.0  0.14480  0.01610  0.82090  1.0000 0.131877735
H   H23       1.0  0.01610  0.19520  0.87130  1.0000 0.131877735
H   H24       1.0  0.19520  0.32390  0.17910  1.0000 0.131877735
H   H25       1.0  0.56510  0.67900  0.71330  1.0000 0.131877735
H   H26       1.0  0.67900  0.96570  0.11390  1.0000 0.131877735
H   H27       1.0  0.96570  0.85180  0.28670  1.0000 0.131877735
H   H28       1.0  0.85180  0.56510  0.88610  1.0000 0.131877735
H   H29       1.0  0.43490  0.32100  0.28670  1.0000 0.131877735
H   H30       1.0  0.32100  0.03430  0.88610  1.0000 0.131877735
H   H31       1.0  0.03430  0.14820  0.71330  1.0000 0.131877735
H   H32       1.0  0.14820  0.43490  0.11390  1.0000 0.131877735
H   H33       1.0  0.50670  0.65060  0.69850  1.0000 0.131877735
H   H34       1.0  0.65060  0.95210  0.14390  1.0000 0.131877735
H   H35       1.0  0.95210  0.80820  0.30150  1.0000 0.131877735
H   H36       1.0  0.80820  0.50670  0.85610  1.0000 0.131877735
H   H37       1.0  0.49330  0.34940  0.30150  1.0000 0.131877735
H   H38       1.0  0.34940  0.04790  0.85610  1.0000 0.131877735
H   H39       1.0  0.04790  0.19180  0.69850  1.0000 0.131877735
H   H40       1.0  0.19180  0.49330  0.14390  1.0000 0.131877735
H   H41       1.0  0.54250  0.73800  0.82630  1.0000 0.1195535899
H   H42       1.0  0.73800  0.91170  0.19550  1.0000 0.1195535899
H   H43       1.0  0.91170  0.71620  0.17370  1.0000 0.1195535899
H   H44       1.0  0.71620  0.54250  0.80450  1.0000 0.1195535899
H   H45       1.0  0.45750  0.26200  0.17370  1.0000 0.1195535899
H   H46       1.0  0.26200  0.08830  0.80450  1.0000 0.1195535899
H   H47       1.0  0.08830  0.28380  0.82630  1.0000 0.1195535899
H   H48       1.0  0.28380  0.45750  0.19550  1.0000 0.1195535899
H   H49       1.0  0.60090  0.76640  0.84110  1.0000 0.1123072974
H   H50       1.0  0.76640  0.92530  0.16550  1.0000 0.1123072974
H   H51       1.0  0.92530  0.75980  0.15890  1.0000 0.1123072974
H   H52       1.0  0.75980  0.60090  0.83450  1.0000 0.1123072974
H   H53       1.0  0.39910  0.23360  0.15890  1.0000 0.1123072974
H   H54       1.0  0.23360  0.07470  0.83450  1.0000 0.1123072974
H   H55       1.0  0.07470  0.24020  0.84110  1.0000 0.1123072974
H   H56       1.0  0.24020  0.39910  0.16550  1.0000 0.1123072974
H   H57       1.0  0.91060  0.76160  0.78180  1.0000 0.1389149207
H   H58       1.0  0.76160  0.97980  0.85100  1.0000 0.1389149207
H   H59       1.0  0.97980  0.12880  0.21820  1.0000 0.1389149207
H   H60       1.0  0.12880  0.91060  0.14900  1.0000 0.1389149207
H   H61       1.0  0.08940  0.23840  0.21820  1.0000 0.1389149207
H   H62       1.0  0.23840  0.02020  0.14900  1.0000 0.1389149207
H   H63       1.0  0.02020  0.87120  0.78180  1.0000 0.1389149207
H   H64       1.0  0.87120  0.08940  0.85100  1.0000 0.1389149207
H   H65       1.0  0.81310  0.66690  0.67000  1.0000 0.131877735
H   H66       1.0  0.66690  0.99690  0.85380  1.0000 0.131877735
H   H67       1.0  0.99690  0.14310  0.33000  1.0000 0.131877735
H   H68       1.0  0.14310  0.81310  0.14620  1.0000 0.131877735
H   H69       1.0  0.18690  0.33310  0.33000  1.0000 0.131877735
H   H70       1.0  0.33310  0.00310  0.14620  1.0000 0.131877735
H   H71       1.0  0.00310  0.85690  0.67000  1.0000 0.131877735
H   H72       1.0  0.85690  0.18690  0.85380  1.0000 0.131877735
H   H73       1.0  0.91700  0.67170  0.68410  1.0000 0.1389149207
H   H74       1.0  0.67170  0.98760  0.75470  1.0000 0.1389149207
H   H75       1.0  0.98760  0.23290  0.31590  1.0000 0.1389149207
H   H76       1.0  0.23290  0.91700  0.24530  1.0000 0.1389149207
H   H77       1.0  0.08300  0.32830  0.31590  1.0000 0.1389149207
H   H78       1.0  0.32830  0.01240  0.24530  1.0000 0.1389149207
H   H79       1.0  0.01240  0.76710  0.68410  1.0000 0.1389149207
H   H80       1.0  0.76710  0.08300  0.75470  1.0000 0.1389149207
H   H81       1.0  0.77430  0.56910  0.55560  1.0000 0.1123072974
H   H82       1.0  0.56910  0.01350  0.79480  1.0000 0.1123072974
H   H83       1.0  0.01350  0.21870  0.44440  1.0000 0.1123072974
H   H84       1.0  0.21870  0.77430  0.20520  1.0000 0.1123072974
H   H85       1.0  0.22570  0.43090  0.44440  1.0000 0.1123072974
H   H86       1.0  0.43090  0.98650  0.20520  1.0000 0.1123072974
H   H87       1.0  0.98650  0.78130  0.55560  1.0000 0.1123072974
H   H88       1.0  0.78130  0.22570  0.79480  1.0000 0.1123072974
H   H89       1.0  0.72980  0.51460  0.48020  1.0000 0.1195535899
H   H90       1.0  0.51460  0.03440  0.78480  1.0000 0.1195535899
H   H91       1.0  0.03440  0.24960  0.51980  1.0000 0.1195535899
H   H92       1.0  0.24960  0.72980  0.21520  1.0000 0.1195535899
H   H93       1.0  0.27020  0.48540  0.51980  1.0000 0.1195535899
H   H94       1.0  0.48540  0.96560  0.21520  1.0000 0.1195535899
H   H95       1.0  0.96560  0.75040  0.48020  1.0000 0.1195535899
H   H96       1.0  0.75040  0.27020  0.78480  1.0000 0.1195535899
H   H97       1.0  0.81780  0.50570  0.46290  1.0000 0.131877735
H   H98       1.0  0.50570  0.04280  0.68790  1.0000 0.131877735
H   H99       1.0  0.04280  0.35490  0.53710  1.0000 0.1389149207
H   H100      1.0  0.35490  0.81780  0.31210  1.0000 0.131877735
H   H101      1.0  0.18220  0.49430  0.53710  1.0000 0.1389149207
H   H102      1.0  0.49430  0.95720  0.31210  1.0000 0.131877735
H   H103      1.0  0.95720  0.64510  0.46290  1.0000 0.131877735
H   H104      1.0  0.64510  0.18220  0.68790  1.0000 0.131877735
H   H105      1.0  0.86210  0.56010  0.53820  1.0000 0.131877735
H   H106      1.0  0.56010  0.02190  0.69800  1.0000 0.131877735
H   H107      1.0  0.02190  0.32390  0.46180  1.0000 0.131877735
H   H108      1.0  0.32390  0.86210  0.30200  1.0000 0.131877735
H   H109      1.0  0.13790  0.43990  0.46180  1.0000 0.131877735
H   H110      1.0  0.43990  0.97810  0.30200  1.0000 0.131877735
H   H111      1.0  0.97810  0.67610  0.53820  1.0000 0.131877735
H   H112      1.0  0.67610  0.13790  0.69800  1.0000 0.131877735
H   H113      1.0  0.03540  0.78370  0.92850  1.0000 0.1389149207
H   H114      1.0  0.78370  0.85520  0.74830  1.0000 0.1389149207
H   H115      1.0  0.85520  0.10690  0.07150  1.0000 0.1389149207
H   H116      1.0  0.10690  0.03540  0.25170  1.0000 0.1389149207
H   H117      1.0  0.96460  0.21630  0.07150  1.0000 0.1389149207
H   H118      1.0  0.21630  0.14480  0.25170  1.0000 0.1389149207
H   H119      1.0  0.14480  0.89310  0.92850  1.0000 0.1389149207
H   H120      1.0  0.89310  0.96460  0.74830  1.0000 0.1389149207
H   H121      1.0  0.05660  0.70020  0.95240  1.0000 0.1389149207
H   H122      1.0  0.70020  0.74780  0.64360  1.0000 0.1389149207
H   H123      1.0  0.74780  0.10420  0.04760  1.0000 0.1389149207
H   H124      1.0  0.10420  0.05660  0.35640  1.0000 0.1389149207
H   H125      1.0  0.94340  0.29980  0.04760  1.0000 0.1389149207
H   H126      1.0  0.29980  0.25220  0.35640  1.0000 0.1389149207
H   H127      1.0  0.25220  0.89580  0.95240  1.0000 0.1389149207
H   H128      1.0  0.89580  0.94340  0.64360  1.0000 0.1389149207
H   H129      1.0  0.06680  0.69680  0.85900  1.0000 0.131877735
H   H130      1.0  0.69680  0.83780  0.63000  1.0000 0.131877735
H   H131      1.0  0.83780  0.20780  0.14100  1.0000 0.131877735
H   H132      1.0  0.20780  0.06680  0.37000  1.0000 0.131877735
H   H133      1.0  0.93320  0.30320  0.14100  1.0000 0.131877735
H   H134      1.0  0.30320  0.16220  0.37000  1.0000 0.131877735
H   H135      1.0  0.16220  0.79220  0.85900  1.0000 0.131877735
H   H136      1.0  0.79220  0.93320  0.63000  1.0000 0.131877735
H   H137      1.0  0.09070  0.58690  0.92840  1.0000 0.131877735
H   H138      1.0  0.58690  0.65850  0.49620  1.0000 0.131877735
H   H139      1.0  0.65850  0.16230  0.07160  1.0000 0.131877735
H   H140      1.0  0.16230  0.09070  0.50380  1.0000 0.131877735
H   H141      1.0  0.90930  0.41310  0.07160  1.0000 0.1389149207
H   H142      1.0  0.41310  0.34150  0.50380  1.0000 0.131877735
H   H143      1.0  0.34150  0.83770  0.92840  1.0000 0.131877735
H   H144      1.0  0.83770  0.90930  0.49620  1.0000 0.131877735
H   H145      1.0  0.09730  0.52510  0.89280  1.0000 0.131877735
H   H146      1.0  0.52510  0.63230  0.42780  1.0000 0.131877735
H   H147      1.0  0.63230  0.20450  0.10720  1.0000 0.131877735
H   H148      1.0  0.20450  0.09730  0.57220  1.0000 0.131877735
H   H149      1.0  0.90270  0.47490  0.10720  1.0000 0.131877735
H   H150      1.0  0.47490  0.36770  0.57220  1.0000 0.131877735
H   H151      1.0  0.36770  0.79550  0.89280  1.0000 0.131877735
H   H152      1.0  0.79550  0.90270  0.42780  1.0000 0.131877735
H   H153      1.0  0.07670  0.53210  0.79080  1.0000 0.1195535899
H   H154      1.0  0.53210  0.74130  0.45540  1.0000 0.1195535899
H   H155      1.0  0.74130  0.28590  0.20920  1.0000 0.1195535899
H   H156      1.0  0.28590  0.07670  0.54460  1.0000 0.1195535899
H   H157      1.0  0.92330  0.46790  0.20920  1.0000 0.1195535899
H   H158      1.0  0.46790  0.25870  0.54460  1.0000 0.1195535899
H   H159      1.0  0.25870  0.71410  0.79080  1.0000 0.1195535899
H   H160      1.0  0.71410  0.92330  0.45540  1.0000 0.1195535899
H   H161      1.0  0.07000  0.59390  0.82650  1.0000 0.1123072974
H   H162      1.0  0.59390  0.76740  0.52390  1.0000 0.1123072974
H   H163      1.0  0.76740  0.24350  0.17350  1.0000 0.1123072974
H   H164      1.0  0.24350  0.07000  0.47610  1.0000 0.1123072974
H   H165      1.0  0.93000  0.40610  0.17350  1.0000 0.1123072974
H   H166      1.0  0.40610  0.23260  0.47610  1.0000 0.1123072974
H   H167      1.0  0.23260  0.75650  0.82650  1.0000 0.1123072974
H   H168      1.0  0.75650  0.93000  0.52390  1.0000 0.1123072974
H   H169      1.0  0.63340  0.79370  0.83010  1.0000 0.2695811805
H   H170      1.0  0.79370  0.96360  0.16030  1.0000 0.2695811805
H   H171      1.0  0.96360  0.80330  0.16990  1.0000 0.2695811805
H   H172      1.0  0.80330  0.63340  0.83970  1.0000 0.2695811805
H   H173      1.0  0.36660  0.20630  0.16990  1.0000 0.2695811805
H   H174      1.0  0.20630  0.03640  0.83970  1.0000 0.2695811805
H   H175      1.0  0.03640  0.19670  0.83010  1.0000 0.2695811805
H   H176      1.0  0.19670  0.36660  0.16030  1.0000 0.2695811805
H   H177      1.0  0.82080  0.61350  0.62130  1.0000 0.2641778228
H   H178      1.0  0.61350  0.99220  0.79270  1.0000 0.2695811805
H   H179      1.0  0.99220  0.19950  0.37870  1.0000 0.2695811805
H   H180      1.0  0.19950  0.82080  0.20730  1.0000 0.2695811805
H   H181      1.0  0.17920  0.38650  0.37870  1.0000 0.2695811805
H   H182      1.0  0.38650  0.00780  0.20730  1.0000 0.2695811805
H   H183      1.0  0.00780  0.80050  0.62130  1.0000 0.2641778228
H   H184      1.0  0.80050  0.17920  0.79270  1.0000 0.2641778228
H   H185      1.0  0.08010  0.65220  0.87450  1.0000 0.2695811805
H   H186      1.0  0.65220  0.77770  0.57210  1.0000 0.2641778228
H   H187      1.0  0.77770  0.20560  0.12550  1.0000 0.2641778228
H   H188      1.0  0.20560  0.08010  0.42790  1.0000 0.2641778228
H   H189      1.0  0.91990  0.34780  0.12550  1.0000 0.2641778228
H   H190      1.0  0.34780  0.22230  0.42790  1.0000 0.2641778228
H   H191      1.0  0.22230  0.79440  0.87450  1.0000 0.2695811805
H   H192      1.0  0.79440  0.91990  0.57210  1.0000 0.2641778228
C   C1        1.0  0.73951  0.91074  0.91003  1.0000 0.5727291875
C   C2        1.0  0.91074  0.00071  0.17123  1.0000 0.5727291875
C   C3        1.0  0.00071  0.82948  0.08997  1.0000 0.5727291875
C   C4        1.0  0.82948  0.73951  0.82877  1.0000 0.5727291875
C   C5        1.0  0.26049  0.08926  0.08997  1.0000 0.5727291875
C   C6        1.0  0.08926  0.99929  0.82877  1.0000 0.5727291875
C   C7        1.0  0.99929  0.17052  0.91003  1.0000 0.5727291875
C   C8        1.0  0.17052  0.26049  0.17123  1.0000 0.5727291875
C   C9        1.0  0.75972  0.79010  0.81166  1.0000 0.5727291875
C   C10       1.0  0.79010  0.97844  0.03038  1.0000 0.5727291875
C   C11       1.0  0.97844  0.94806  0.18834  1.0000 0.5727291875
C   C12       1.0  0.94806  0.75972  0.96962  1.0000 0.5727291875
C   C13       1.0  0.24028  0.20990  0.18834  1.0000 0.5727291875
C   C14       1.0  0.20990  0.02156  0.96962  1.0000 0.5727291875
C   C15       1.0  0.02156  0.05194  0.81166  1.0000 0.5727291875
C   C16       1.0  0.05194  0.24028  0.03038  1.0000 0.5727291875
C   C17       1.0  0.69989  0.78589  0.81214  1.0000 -0.1774601148
C   C18       1.0  0.78589  0.97375  0.08600  1.0000 -0.1774601148
C   C19       1.0  0.97375  0.88775  0.18786  1.0000 -0.1774601148
C   C20       1.0  0.88775  0.69989  0.91400  1.0000 -0.1774601148
C   C21       1.0  0.30011  0.21411  0.18786  1.0000 -0.1774601148
C   C22       1.0  0.21411  0.02625  0.91400  1.0000 -0.1774601148
C   C23       1.0  0.02625  0.11225  0.81214  1.0000 -0.1774601148
C   C24       1.0  0.11225  0.30011  0.08600  1.0000 -0.1774601148
C   C25       1.0  0.73582  0.80901  0.82909  1.0000 -0.0022644592
C   C26       1.0  0.80901  0.97992  0.07319  1.0000 -0.0022644592
C   C27       1.0  0.97992  0.90673  0.17091  1.0000 -0.0022644592
C   C28       1.0  0.90673  0.73582  0.92681  1.0000 -0.0022644592
C   C29       1.0  0.26418  0.19099  0.17091  1.0000 -0.0022644592
C   C30       1.0  0.19099  0.02008  0.92681  1.0000 -0.0022644592
C   C31       1.0  0.02008  0.09327  0.82909  1.0000 -0.0022644592
C   C32       1.0  0.09327  0.26418  0.07319  1.0000 -0.0022644592
C   C33       1.0  0.74952  0.84935  0.86177  1.0000 -0.1195976098
C   C34       1.0  0.84935  0.98758  0.09983  1.0000 -0.1195976098
C   C35       1.0  0.98758  0.88775  0.13823  1.0000 -0.1195976098
C   C36       1.0  0.88775  0.74952  0.90017  1.0000 -0.1195976098
C   C37       1.0  0.25048  0.15065  0.13823  1.0000 -0.1195976098
C   C38       1.0  0.15065  0.01242  0.90017  1.0000 -0.1195976098
C   C39       1.0  0.01242  0.11225  0.86177  1.0000 -0.1195976098
C   C40       1.0  0.11225  0.25048  0.09983  1.0000 -0.1195976098
C   C41       1.0  0.72729  0.86657  0.87750  1.0000 -0.0022644592
C   C42       1.0  0.86657  0.98907  0.13928  1.0000 -0.0022644592
C   C43       1.0  0.98907  0.84979  0.12250  1.0000 -0.0022644592
C   C44       1.0  0.84979  0.72729  0.86072  1.0000 -0.0022644592
C   C45       1.0  0.27271  0.13343  0.12250  1.0000 -0.0022644592
C   C46       1.0  0.13343  0.01093  0.86072  1.0000 -0.0022644592
C   C47       1.0  0.01093  0.15021  0.87750  1.0000 -0.0022644592
C   C48       1.0  0.15021  0.27271  0.13928  1.0000 -0.0022644592
C   C49       1.0  0.69136  0.84345  0.86055  1.0000 -0.2068877999
C   C50       1.0  0.84345  0.98290  0.15209  1.0000 -0.2068877999
C   C51       1.0  0.98290  0.83081  0.13945  1.0000 -0.2068877999
C   C52       1.0  0.83081  0.69136  0.84791  1.0000 -0.2068877999
C   C53       1.0  0.30864  0.15655  0.13945  1.0000 -0.2068877999
C   C54       1.0  0.15655  0.01710  0.84791  1.0000 -0.2068877999
C   C55       1.0  0.01710  0.16919  0.86055  1.0000 -0.2068877999
C   C56       1.0  0.16919  0.30864  0.15209  1.0000 -0.2068877999
C   C57       1.0  0.67767  0.80311  0.82788  1.0000 0.2295335632
C   C58       1.0  0.80311  0.97523  0.12544  1.0000 0.2295335632
C   C59       1.0  0.97523  0.84979  0.17212  1.0000 0.2295335632
C   C60       1.0  0.84979  0.67767  0.87456  1.0000 0.2295335632
C   C61       1.0  0.32233  0.19689  0.17212  1.0000 0.2295335632
C   C62       1.0  0.19689  0.02477  0.87456  1.0000 0.2295335632
C   C63       1.0  0.02477  0.15021  0.82788  1.0000 0.2295335632
C   C64       1.0  0.15021  0.32233  0.12544  1.0000 0.2295335632
C   C65       1.0  0.62448  0.74141  0.78427  1.0000 0.4586549736
C   C66       1.0  0.74141  0.95714  0.11693  1.0000 0.4586549736
C   C67       1.0  0.95714  0.84021  0.21573  1.0000 0.4586549736
C   C68       1.0  0.84021  0.62448  0.88307  1.0000 0.4586549736
C   C69       1.0  0.37552  0.25859  0.21573  1.0000 0.4586549736
C   C70       1.0  0.25859  0.04286  0.88307  1.0000 0.4586549736
C   C71       1.0  0.04286  0.15979  0.78427  1.0000 0.4586549736
C   C72       1.0  0.15979  0.37552  0.11693  1.0000 0.4586549736
C   C73       1.0  0.58843  0.72532  0.77851  1.0000 -0.0284591245
C   C74       1.0  0.72532  0.94681  0.13689  1.0000 -0.0284591245
C   C75       1.0  0.94681  0.80992  0.22149  1.0000 -0.0284591245
C   C76       1.0  0.80992  0.58843  0.86311  1.0000 -0.0284591245
C   C77       1.0  0.41157  0.27468  0.22149  1.0000 -0.0284591245
C   C78       1.0  0.27468  0.05319  0.86311  1.0000 -0.0284591245
C   C79       1.0  0.05319  0.19008  0.77851  1.0000 -0.0284591245
C   C80       1.0  0.19008  0.41157  0.13689  1.0000 -0.0284591245
C   C81       1.0  0.56047  0.69093  0.73618  1.0000 -0.0917614425
C   C82       1.0  0.69093  0.95475  0.13046  1.0000 -0.0917614425
C   C83       1.0  0.95475  0.82429  0.26382  1.0000 -0.0917614425
C   C84       1.0  0.82429  0.56047  0.86954  1.0000 -0.0917614425
C   C85       1.0  0.43953  0.30907  0.26382  1.0000 -0.0917614425
C   C86       1.0  0.30907  0.04525  0.86954  1.0000 -0.0917614425
C   C87       1.0  0.04525  0.17571  0.73618  1.0000 -0.0917614425
C   C88       1.0  0.17571  0.43953  0.13046  1.0000 -0.0917614425
C   C89       1.0  0.52581  0.67408  0.72743  1.0000 -0.0917614425
C   C90       1.0  0.67408  0.94665  0.14827  1.0000 -0.0917614425
C   C91       1.0  0.94665  0.79838  0.27257  1.0000 -0.0917614425
C   C92       1.0  0.79838  0.52581  0.85173  1.0000 -0.0917614425
C   C93       1.0  0.47419  0.32592  0.27257  1.0000 -0.0917614425
C   C94       1.0  0.32592  0.05335  0.85173  1.0000 -0.0917614425
C   C95       1.0  0.05335  0.20162  0.72743  1.0000 -0.0957726017
C   C96       1.0  0.20162  0.47419  0.14827  1.0000 -0.0917614425
C   C97       1.0  0.51911  0.69161  0.76102  1.0000 0.0312790129
C   C98       1.0  0.69161  0.93059  0.17250  1.0000 0.0312790129
C   C99       1.0  0.93059  0.75809  0.23898  1.0000 0.0312790129
C   C100      1.0  0.75809  0.51911  0.82750  1.0000 0.0312790129
C   C101      1.0  0.48089  0.30839  0.23898  1.0000 0.0312790129
C   C102      1.0  0.30839  0.06941  0.82750  1.0000 0.0312790129
C   C103      1.0  0.06941  0.24191  0.76102  1.0000 0.0312790129
C   C104      1.0  0.24191  0.48089  0.17250  1.0000 0.0312790129
C   C105      1.0  0.54706  0.72600  0.80334  1.0000 -0.0802523602
C   C106      1.0  0.72600  0.92266  0.17894  1.0000 -0.0802523602
C   C107      1.0  0.92266  0.74372  0.19666  1.0000 -0.0802523602
C   C108      1.0  0.74372  0.54706  0.82106  1.0000 -0.0802523602
C   C109      1.0  0.45294  0.27400  0.19666  1.0000 -0.0802523602
C   C110      1.0  0.27400  0.07734  0.82106  1.0000 -0.0802523602
C   C111      1.0  0.07734  0.25628  0.80334  1.0000 -0.0802523602
C   C112      1.0  0.25628  0.45294  0.17894  1.0000 -0.0802523602
C   C113      1.0  0.58173  0.74286  0.81211  1.0000 -0.149543772
C   C114      1.0  0.74286  0.93075  0.16113  1.0000 -0.149543772
C   C115      1.0  0.93075  0.76962  0.18789  1.0000 -0.149543772
C   C116      1.0  0.76962  0.58173  0.83887  1.0000 -0.149543772
C   C117      1.0  0.41827  0.25714  0.18789  1.0000 -0.149543772
C   C118      1.0  0.25714  0.06925  0.83887  1.0000 -0.149543772
C   C119      1.0  0.06925  0.23038  0.81211  1.0000 -0.149543772
C   C120      1.0  0.23038  0.41827  0.16113  1.0000 -0.149543772
C   C121      1.0  0.48340  0.67609  0.75451  1.0000 0.241142067
C   C122      1.0  0.67609  0.92158  0.19269  1.0000 0.241142067
C   C123      1.0  0.92158  0.72889  0.24549  1.0000 0.241142067
C   C124      1.0  0.72889  0.48340  0.80731  1.0000 0.2488261846
C   C125      1.0  0.51660  0.32391  0.24549  1.0000 0.241142067
C   C126      1.0  0.32391  0.07842  0.80731  1.0000 0.241142067
C   C127      1.0  0.07842  0.27111  0.75451  1.0000 0.241142067
C   C128      1.0  0.27111  0.51660  0.19269  1.0000 0.241142067
C   C129      1.0  0.83416  0.73307  0.74637  1.0000 0.5727291875
C   C130      1.0  0.73307  0.98670  0.89891  1.0000 0.5727291875
C   C131      1.0  0.98670  0.08779  0.25363  1.0000 0.5727291875
C   C132      1.0  0.08779  0.83416  0.10109  1.0000 0.5727291875
C   C133      1.0  0.16584  0.26693  0.25363  1.0000 0.5727291875
C   C134      1.0  0.26693  0.01330  0.10109  1.0000 0.5727291875
C   C135      1.0  0.01330  0.91221  0.74637  1.0000 0.5727291875
C   C136      1.0  0.91221  0.16584  0.89891  1.0000 0.5727291875
C   C137      1.0  0.96329  0.74123  0.76418  1.0000 0.5780035071
C   C138      1.0  0.74123  0.97705  0.77794  1.0000 0.5780035071
C   C139      1.0  0.97705  0.19911  0.23582  1.0000 0.5780035071
C   C140      1.0  0.19911  0.96329  0.22206  1.0000 0.5780035071
C   C141      1.0  0.03671  0.25877  0.23582  1.0000 0.5780035071
C   C142      1.0  0.25877  0.02295  0.22206  1.0000 0.5780035071
C   C143      1.0  0.02295  0.80089  0.76418  1.0000 0.5780035071
C   C144      1.0  0.80089  0.03671  0.77794  1.0000 0.5780035071
C   C145      1.0  0.89832  0.73666  0.75350  1.0000 -0.1195976098
C   C146      1.0  0.73666  0.98316  0.83834  1.0000 -0.1195976098
C   C147      1.0  0.98316  0.14482  0.24650  1.0000 -0.1195976098
C   C148      1.0  0.14482  0.89832  0.16166  1.0000 -0.1195976098
C   C149      1.0  0.10168  0.26334  0.24650  1.0000 -0.1195976098
C   C150      1.0  0.26334  0.01684  0.16166  1.0000 -0.1195976098
C   C151      1.0  0.01684  0.85518  0.75350  1.0000 -0.1195976098
C   C152      1.0  0.85518  0.10168  0.83834  1.0000 -0.1195976098
C   C153      1.0  0.85844  0.71695  0.72855  1.0000 -0.0022644592
C   C154      1.0  0.71695  0.98840  0.85851  1.0000 -0.0022644592
C   C155      1.0  0.98840  0.12989  0.27145  1.0000 -0.0022644592
C   C156      1.0  0.12989  0.85844  0.14149  1.0000 -0.0022644592
C   C157      1.0  0.14156  0.28305  0.27145  1.0000 -0.0022644592
C   C158      1.0  0.28305  0.01160  0.14149  1.0000 -0.0022644592
C   C159      1.0  0.01160  0.87011  0.72855  1.0000 -0.0022644592
C   C160      1.0  0.87011  0.14156  0.85851  1.0000 -0.0022644592
C   C161      1.0  0.84041  0.68040  0.68707  1.0000 -0.2068877999
C   C162      1.0  0.68040  0.99333  0.83999  1.0000 -0.2068877999
C   C163      1.0  0.99333  0.15334  0.31293  1.0000 -0.2068877999
C   C164      1.0  0.15334  0.84041  0.16001  1.0000 -0.2068877999
C   C165      1.0  0.15959  0.31960  0.31293  1.0000 -0.2068877999
C   C166      1.0  0.31960  0.00667  0.16001  1.0000 -0.2068877999
C   C167      1.0  0.00667  0.84666  0.68707  1.0000 -0.2068877999
C   C168      1.0  0.84666  0.15959  0.83999  1.0000 -0.2047690265
C   C169      1.0  0.86225  0.66354  0.67053  1.0000 0.2295335632
C   C170      1.0  0.66354  0.99301  0.80129  1.0000 0.2295335632
C   C171      1.0  0.99301  0.19172  0.32947  1.0000 0.2295335632
C   C172      1.0  0.19172  0.86225  0.19871  1.0000 0.2295335632
C   C173      1.0  0.13775  0.33646  0.32947  1.0000 0.2295335632
C   C174      1.0  0.33646  0.00699  0.19871  1.0000 0.2295335632
C   C175      1.0  0.00699  0.80828  0.67053  1.0000 0.2295335632
C   C176      1.0  0.80828  0.13775  0.80129  1.0000 0.2295335632
C   C177      1.0  0.90211  0.68324  0.69547  1.0000 -0.1774601148
C   C178      1.0  0.68324  0.98777  0.78113  1.0000 -0.1774601148
C   C179      1.0  0.98777  0.20664  0.30453  1.0000 -0.1774601148
C   C180      1.0  0.20664  0.90211  0.21887  1.0000 -0.1774601148
C   C181      1.0  0.09789  0.31676  0.30453  1.0000 -0.1774601148
C   C182      1.0  0.31676  0.01223  0.21887  1.0000 -0.1774601148
C   C183      1.0  0.01223  0.79336  0.69547  1.0000 -0.1774601148
C   C184      1.0  0.79336  0.09789  0.78113  1.0000 -0.1739505939
C   C185      1.0  0.92015  0.71980  0.73695  1.0000 -0.0022644592
C   C186      1.0  0.71980  0.98285  0.79965  1.0000 -0.0022644592
C   C187      1.0  0.98285  0.18320  0.26305  1.0000 -0.0022644592
C   C188      1.0  0.18320  0.92015  0.20035  1.0000 -0.0022644592
C   C189      1.0  0.07985  0.28020  0.26305  1.0000 -0.0022644592
C   C190      1.0  0.28020  0.01715  0.20035  1.0000 -0.0022644592
C   C191      1.0  0.01715  0.81680  0.73695  1.0000 -0.0022644592
C   C192      1.0  0.81680  0.07985  0.79965  1.0000 -0.0022644592
C   C193      1.0  0.85353  0.60478  0.60203  1.0000 0.4586549736
C   C194      1.0  0.60478  0.00275  0.75125  1.0000 0.4586549736
C   C195      1.0  0.00275  0.25150  0.39797  1.0000 0.4586549736
C   C196      1.0  0.25150  0.85353  0.24875  1.0000 0.4586549736
C   C197      1.0  0.14647  0.39522  0.39797  1.0000 0.4533018081
C   C198      1.0  0.39522  0.99725  0.24875  1.0000 0.4533018081
C   C199      1.0  0.99725  0.74850  0.60203  1.0000 0.4533018081
C   C200      1.0  0.74850  0.14647  0.75125  1.0000 0.4533018081
C   C201      1.0  0.82240  0.56973  0.55397  1.0000 -0.0284591245
C   C202      1.0  0.56973  0.01576  0.74733  1.0000 -0.0208298659
C   C203      1.0  0.01576  0.26843  0.44603  1.0000 -0.0284591245
C   C204      1.0  0.26843  0.82240  0.25267  1.0000 -0.0284591245
C   C205      1.0  0.17760  0.43027  0.44603  1.0000 -0.0284591245
C   C206      1.0  0.43027  0.98424  0.25267  1.0000 -0.0284591245
C   C207      1.0  0.98424  0.73157  0.55397  1.0000 -0.0284591245
C   C208      1.0  0.73157  0.17760  0.74733  1.0000 -0.0284591245
C   C209      1.0  0.78310  0.55622  0.53674  1.0000 -0.1420356395
C   C210      1.0  0.55622  0.01948  0.77312  1.0000 -0.149543772
C   C211      1.0  0.01948  0.24636  0.46326  1.0000 -0.149543772
C   C212      1.0  0.24636  0.78310  0.22688  1.0000 -0.149543772
C   C213      1.0  0.21690  0.44378  0.46326  1.0000 -0.149543772
C   C214      1.0  0.44378  0.98052  0.22688  1.0000 -0.149543772
C   C215      1.0  0.98052  0.75364  0.53674  1.0000 -0.1420356395
C   C216      1.0  0.75364  0.21690  0.77312  1.0000 -0.1420356395
C   C217      1.0  0.75671  0.52385  0.49196  1.0000 -0.0917614425
C   C218      1.0  0.52385  0.03189  0.76714  1.0000 -0.0917614425
C   C219      1.0  0.03189  0.26475  0.50804  1.0000 -0.0917614425
C   C220      1.0  0.26475  0.75671  0.23286  1.0000 -0.0917614425
C   C221      1.0  0.24329  0.47615  0.50804  1.0000 -0.0917614425
C   C222      1.0  0.47615  0.96811  0.23286  1.0000 -0.0917614425
C   C223      1.0  0.96811  0.73525  0.49196  1.0000 -0.0917614425
C   C224      1.0  0.73525  0.24329  0.76714  1.0000 -0.0917614425
C   C225      1.0  0.76962  0.50500  0.46442  1.0000 0.0420283009
C   C226      1.0  0.50500  0.04058  0.73538  1.0000 0.0420283009
C   C227      1.0  0.04058  0.30520  0.53558  1.0000 0.0420283009
C   C228      1.0  0.30520  0.76962  0.26462  1.0000 0.0420283009
C   C229      1.0  0.23038  0.49500  0.53558  1.0000 0.0420283009
C   C230      1.0  0.49500  0.95942  0.26462  1.0000 0.0420283009
C   C231      1.0  0.95942  0.69480  0.46442  1.0000 0.0420283009
C   C232      1.0  0.69480  0.23038  0.73538  1.0000 0.0420283009
C   C233      1.0  0.80889  0.51851  0.48162  1.0000 -0.0917614425
C   C234      1.0  0.51851  0.03689  0.70962  1.0000 -0.0917614425
C   C235      1.0  0.03689  0.32727  0.51838  1.0000 -0.0917614425
C   C236      1.0  0.32727  0.80889  0.29038  1.0000 -0.0917614425
C   C237      1.0  0.19111  0.48149  0.51838  1.0000 -0.0917614425
C   C238      1.0  0.48149  0.96311  0.29038  1.0000 -0.0917614425
C   C239      1.0  0.96311  0.67273  0.48162  1.0000 -0.0917614425
C   C240      1.0  0.67273  0.19111  0.70962  1.0000 -0.0957726017
C   C241      1.0  0.83530  0.55088  0.52642  1.0000 -0.0917614425
C   C242      1.0  0.55088  0.02446  0.71558  1.0000 -0.0917614425
C   C243      1.0  0.02446  0.30888  0.47358  1.0000 -0.0917614425
C   C244      1.0  0.30888  0.83530  0.28442  1.0000 -0.0917614425
C   C245      1.0  0.16470  0.44912  0.47358  1.0000 -0.0917614425
C   C246      1.0  0.44912  0.97554  0.28442  1.0000 -0.0917614425
C   C247      1.0  0.97554  0.69112  0.52642  1.0000 -0.0917614425
C   C248      1.0  0.69112  0.16470  0.71558  1.0000 -0.0917614425
C   C249      1.0  0.73820  0.47178  0.41762  1.0000 0.241142067
C   C250      1.0  0.47178  0.05416  0.73358  1.0000 0.241142067
C   C251      1.0  0.05416  0.32058  0.58238  1.0000 0.2295335632
C   C252      1.0  0.32058  0.73820  0.26642  1.0000 0.241142067
C   C253      1.0  0.26180  0.52822  0.58238  1.0000 0.2295335632
C   C254      1.0  0.52822  0.94584  0.26642  1.0000 0.2295335632
C   C255      1.0  0.94584  0.67942  0.41762  1.0000 0.241142067
C   C256      1.0  0.67942  0.26180  0.73358  1.0000 0.2295335632
C   C257      1.0  0.03466  0.76331  0.97977  1.0000 0.5727291875
C   C258      1.0  0.76331  0.78354  0.72865  1.0000 0.5727291875
C   C259      1.0  0.78354  0.05489  0.02023  1.0000 0.5727291875
C   C260      1.0  0.05489  0.03466  0.27135  1.0000 0.5727291875
C   C261      1.0  0.96534  0.23669  0.02023  1.0000 0.5727291875
C   C262      1.0  0.23669  0.21646  0.27135  1.0000 0.5727291875
C   C263      1.0  0.21646  0.94511  0.97977  1.0000 0.5727291875
C   C264      1.0  0.94511  0.96534  0.72865  1.0000 0.5727291875
C   C265      1.0  0.04348  0.75538  0.85990  1.0000 0.5727291875
C   C266      1.0  0.75538  0.89548  0.71190  1.0000 0.5727291875
C   C267      1.0  0.89548  0.18358  0.14010  1.0000 0.5727291875
C   C268      1.0  0.18358  0.04348  0.28810  1.0000 0.5727291875
C   C269      1.0  0.95652  0.24462  0.14010  1.0000 0.5727291875
C   C270      1.0  0.24462  0.10452  0.28810  1.0000 0.5727291875
C   C271      1.0  0.10452  0.81642  0.85990  1.0000 0.5727291875
C   C272      1.0  0.81642  0.95652  0.71190  1.0000 0.5727291875
C   C273      1.0  0.04257  0.76069  0.92236  1.0000 -0.1195976098
C   C274      1.0  0.76069  0.83833  0.71812  1.0000 -0.1195976098
C   C275      1.0  0.83833  0.12021  0.07764  1.0000 -0.1195976098
C   C276      1.0  0.12021  0.04257  0.28188  1.0000 -0.1195976098
C   C277      1.0  0.95743  0.23931  0.07764  1.0000 -0.1195976098
C   C278      1.0  0.23931  0.16167  0.28188  1.0000 -0.1195976098
C   C279      1.0  0.16167  0.87979  0.92236  1.0000 -0.1195976098
C   C280      1.0  0.87979  0.95743  0.71812  1.0000 -0.1195976098
C   C281      1.0  0.04473  0.74481  0.94556  1.0000 0.0033589832
C   C282      1.0  0.74481  0.79925  0.70008  1.0000 0.0033589832
C   C283      1.0  0.79925  0.09917  0.05444  1.0000 0.0033589832
C   C284      1.0  0.09917  0.04473  0.29992  1.0000 0.0033589832
C   C285      1.0  0.95527  0.25519  0.05444  1.0000 0.0033589832
C   C286      1.0  0.25519  0.20075  0.29992  1.0000 0.0033589832
C   C287      1.0  0.20075  0.90083  0.94556  1.0000 0.0033589832
C   C288      1.0  0.90083  0.95527  0.70008  1.0000 0.0033589832
C   C289      1.0  0.05513  0.71106  0.93651  1.0000 -0.1774601148
C   C290      1.0  0.71106  0.77455  0.65593  1.0000 -0.1774601148
C   C291      1.0  0.77455  0.11862  0.06349  1.0000 -0.1774601148
C   C292      1.0  0.11862  0.05513  0.34407  1.0000 -0.1774601148
C   C293      1.0  0.94487  0.28894  0.06349  1.0000 -0.1774601148
C   C294      1.0  0.28894  0.22545  0.34407  1.0000 -0.1774601148
C   C295      1.0  0.22545  0.88138  0.93651  1.0000 -0.1774601148
C   C296      1.0  0.88138  0.94487  0.65593  1.0000 -0.1774601148
C   C297      1.0  0.06337  0.69319  0.90426  1.0000 0.2295335632
C   C298      1.0  0.69319  0.78893  0.62982  1.0000 0.2295335632
C   C299      1.0  0.78893  0.15911  0.09574  1.0000 0.2295335632
C   C300      1.0  0.15911  0.06337  0.37018  1.0000 0.2295335632
C   C301      1.0  0.93663  0.30681  0.09574  1.0000 0.2295335632
C   C302      1.0  0.30681  0.21107  0.37018  1.0000 0.2295335632
C   C303      1.0  0.21107  0.84089  0.90426  1.0000 0.2295335632
C   C304      1.0  0.84089  0.93663  0.62982  1.0000 0.2295335632
C   C305      1.0  0.06122  0.70907  0.88107  1.0000 -0.2068877999
C   C306      1.0  0.70907  0.82800  0.64785  1.0000 -0.2068877999
C   C307      1.0  0.82800  0.18015  0.11893  1.0000 -0.2068877999
C   C308      1.0  0.18015  0.06122  0.35215  1.0000 -0.2068877999
C   C309      1.0  0.93878  0.29093  0.11893  1.0000 -0.2068877999
C   C310      1.0  0.29093  0.17200  0.35215  1.0000 -0.2068877999
C   C311      1.0  0.17200  0.81985  0.88107  1.0000 -0.2068877999
C   C312      1.0  0.81985  0.93878  0.64785  1.0000 -0.2068877999
C   C313      1.0  0.05082  0.74282  0.89012  1.0000 -0.0112195813
C   C314      1.0  0.74282  0.85270  0.69200  1.0000 -0.0112195813
C   C315      1.0  0.85270  0.16070  0.10988  1.0000 -0.0112195813
C   C316      1.0  0.16070  0.05082  0.30800  1.0000 -0.0112195813
C   C317      1.0  0.94918  0.25718  0.10988  1.0000 -0.0112195813
C   C318      1.0  0.25718  0.14730  0.30800  1.0000 -0.0112195813
C   C319      1.0  0.14730  0.83930  0.89012  1.0000 -0.0112195813
C   C320      1.0  0.83930  0.94918  0.69200  1.0000 -0.0112195813
C   C321      1.0  0.07643  0.63601  0.90692  1.0000 0.4533018081
C   C322      1.0  0.63601  0.72909  0.55958  1.0000 0.4533018081
C   C323      1.0  0.72909  0.16951  0.09308  1.0000 0.4533018081
C   C324      1.0  0.16951  0.07643  0.44042  1.0000 0.4533018081
C   C325      1.0  0.92357  0.36399  0.09308  1.0000 0.4533018081
C   C326      1.0  0.36399  0.27091  0.44042  1.0000 0.4533018081
C   C327      1.0  0.27091  0.83049  0.90692  1.0000 0.4533018081
C   C328      1.0  0.83049  0.92357  0.55958  1.0000 0.4586549736
C   C329      1.0  0.07971  0.59622  0.88079  1.0000 -0.0208298659
C   C330      1.0  0.59622  0.71543  0.51651  1.0000 -0.0208298659
C   C331      1.0  0.71543  0.19892  0.11921  1.0000 -0.0208298659
C   C332      1.0  0.19892  0.07971  0.48349  1.0000 -0.0208298659
C   C333      1.0  0.92029  0.40378  0.11921  1.0000 -0.0208298659
C   C334      1.0  0.40378  0.28457  0.48349  1.0000 -0.0208298659
C   C335      1.0  0.28457  0.80108  0.88079  1.0000 -0.0208298659
C   C336      1.0  0.80108  0.92029  0.51651  1.0000 -0.0208298659
C   C337      1.0  0.08781  0.57578  0.90049  1.0000 -0.0917614425
C   C338      1.0  0.57578  0.67529  0.48797  1.0000 -0.0917614425
C   C339      1.0  0.67529  0.18732  0.09951  1.0000 -0.0917614425
C   C340      1.0  0.18732  0.08781  0.51203  1.0000 -0.0917614425
C   C341      1.0  0.91219  0.42422  0.09951  1.0000 -0.0917614425
C   C342      1.0  0.42422  0.32471  0.51203  1.0000 -0.0917614425
C   C343      1.0  0.32471  0.81268  0.90049  1.0000 -0.0917614425
C   C344      1.0  0.81268  0.91219  0.48797  1.0000 -0.0917614425
C   C345      1.0  0.09176  0.53906  0.87930  1.0000 -0.0802523602
C   C346      1.0  0.53906  0.65976  0.44730  1.0000 -0.0802523602
C   C347      1.0  0.65976  0.21246  0.12070  1.0000 -0.0802523602
C   C348      1.0  0.21246  0.09176  0.55270  1.0000 -0.0802523602
C   C349      1.0  0.90824  0.46094  0.12070  1.0000 -0.0802523602
C   C350      1.0  0.46094  0.34024  0.55270  1.0000 -0.0802523602
C   C351      1.0  0.34024  0.78754  0.87930  1.0000 -0.0802523602
C   C352      1.0  0.78754  0.90824  0.44730  1.0000 -0.0802523602
C   C353      1.0  0.08769  0.52279  0.83850  1.0000 0.0087008479
C   C354      1.0  0.52279  0.68429  0.43510  1.0000 0.0033589832
C   C355      1.0  0.68429  0.24919  0.16150  1.0000 0.0087008479
C   C356      1.0  0.24919  0.08769  0.56490  1.0000 0.0033589832
C   C357      1.0  0.91231  0.47721  0.16150  1.0000 0.0087008479
C   C358      1.0  0.47721  0.31571  0.56490  1.0000 0.0033589832
C   C359      1.0  0.31571  0.75081  0.83850  1.0000 0.0087008479
C   C360      1.0  0.75081  0.91231  0.43510  1.0000 0.0033589832
C   C361      1.0  0.07961  0.54331  0.81890  1.0000 -0.0802523602
C   C362      1.0  0.54331  0.72441  0.46370  1.0000 -0.0802523602
C   C363      1.0  0.72441  0.26071  0.18110  1.0000 -0.0802523602
C   C364      1.0  0.26071  0.07961  0.53630  1.0000 -0.0747135915
C   C365      1.0  0.92039  0.45669  0.18110  1.0000 -0.0802523602
C   C366      1.0  0.45669  0.27559  0.53630  1.0000 -0.0802523602
C   C367      1.0  0.27559  0.73929  0.81890  1.0000 -0.0802523602
C   C368      1.0  0.73929  0.92039  0.46370  1.0000 -0.0802523602
C   C369      1.0  0.07558  0.57996  0.83994  1.0000 -0.149543772
C   C370      1.0  0.57996  0.74002  0.50438  1.0000 -0.149543772
C   C371      1.0  0.74002  0.23564  0.16006  1.0000 -0.149543772
C   C372      1.0  0.23564  0.07558  0.49562  1.0000 -0.149543772
C   C373      1.0  0.92442  0.42004  0.16006  1.0000 -0.149543772
C   C374      1.0  0.42004  0.25998  0.49562  1.0000 -0.149543772
C   C375      1.0  0.25998  0.76436  0.83994  1.0000 -0.149543772
C   C376      1.0  0.76436  0.92442  0.50438  1.0000 -0.149543772
C   C377      1.0  0.09184  0.48574  0.81490  1.0000 0.241142067
C   C378      1.0  0.48574  0.67084  0.39390  1.0000 0.2488261846
C   C379      1.0  0.67084  0.27694  0.18510  1.0000 0.241142067
C   C380      1.0  0.27694  0.09184  0.60610  1.0000 0.2488261846
C   C381      1.0  0.90816  0.51426  0.18510  1.0000 0.2488261846
C   C382      1.0  0.51426  0.32916  0.60610  1.0000 0.2488261846
C   C383      1.0  0.32916  0.72306  0.81490  1.0000 0.241142067
C   C384      1.0  0.72306  0.90816  0.39390  1.0000 0.2488261846
N   N1        1.0  0.45603  0.64103  0.72100  1.0000 -0.3086906243
N   N2        1.0  0.64103  0.92003  0.18500  1.0000 -0.3086906243
N   N3        1.0  0.92003  0.73503  0.27900  1.0000 -0.3086906243
N   N4        1.0  0.73503  0.45603  0.81500  1.0000 -0.3086906243
N   N5        1.0  0.54397  0.35897  0.27900  1.0000 -0.3086906243
N   N6        1.0  0.35897  0.07997  0.81500  1.0000 -0.3086906243
N   N7        1.0  0.07997  0.26497  0.72100  1.0000 -0.3014856838
N   N8        1.0  0.26497  0.54397  0.18500  1.0000 -0.3086906243
N   N9        1.0  0.42958  0.64018  0.72920  1.0000 0.0193287954
N   N10       1.0  0.64018  0.91098  0.21060  1.0000 0.0420283009
N   N11       1.0  0.91098  0.70038  0.27080  1.0000 0.0312790129
N   N12       1.0  0.70038  0.42958  0.78940  1.0000 0.0420283009
N   N13       1.0  0.57042  0.35982  0.27080  1.0000 0.0505095668
N   N14       1.0  0.35982  0.08902  0.78940  1.0000 0.0420283009
N   N15       1.0  0.08902  0.29962  0.72920  1.0000 0.0312790129
N   N16       1.0  0.29962  0.57042  0.21060  1.0000 0.0505095668
N   N17       1.0  0.44070  0.67480  0.76770  1.0000 0.0193287954
N   N18       1.0  0.67480  0.90710  0.23410  1.0000 0.0087008479
N   N19       1.0  0.90710  0.67300  0.23230  1.0000 0.0087008479
N   N20       1.0  0.67300  0.44070  0.76590  1.0000 0.0087008479
N   N21       1.0  0.55930  0.32520  0.23230  1.0000 0.0087008479
N   N22       1.0  0.32520  0.09290  0.76590  1.0000 0.0193287954
N   N23       1.0  0.09290  0.32700  0.76770  1.0000 0.0087008479
N   N24       1.0  0.32700  0.55930  0.23410  1.0000 0.0312790129
N   N25       1.0  0.47483  0.69873  0.78530  1.0000 -0.271125082
N   N26       1.0  0.69873  0.91343  0.22390  1.0000 -0.271125082
N   N27       1.0  0.91343  0.68953  0.21470  1.0000 -0.271125082
N   N28       1.0  0.68953  0.47483  0.77610  1.0000 -0.271125082
N   N29       1.0  0.52517  0.30127  0.21470  1.0000 -0.271125082
N   N30       1.0  0.30127  0.08657  0.77610  1.0000 -0.271125082
N   N31       1.0  0.08657  0.31047  0.78530  1.0000 -0.271125082
N   N32       1.0  0.31047  0.52517  0.22390  1.0000 -0.271125082
N   N33       1.0  0.70239  0.45559  0.40700  1.0000 -0.2408345871
N   N34       1.0  0.45559  0.04859  0.75320  1.0000 -0.2408345871
N   N35       1.0  0.04859  0.29539  0.59300  1.0000 -0.2408345871
N   N36       1.0  0.29539  0.70239  0.24680  1.0000 -0.2408345871
N   N37       1.0  0.29761  0.54441  0.59300  1.0000 -0.2408345871
N   N38       1.0  0.54441  0.95141  0.24680  1.0000 -0.2459537946
N   N39       1.0  0.95141  0.70461  0.40700  1.0000 -0.2408345871
N   N40       1.0  0.70461  0.29761  0.75320  1.0000 -0.2408345871
N   N41       1.0  0.68117  0.42647  0.36250  1.0000 -0.0112195813
N   N42       1.0  0.42647  0.06397  0.74530  1.0000 -0.0284591245
N   N43       1.0  0.06397  0.31867  0.63750  1.0000 -0.0208298659
N   N44       1.0  0.31867  0.68117  0.25470  1.0000 -0.0208298659
N   N45       1.0  0.31883  0.57353  0.63750  1.0000 -0.0208298659
N   N46       1.0  0.57353  0.93603  0.25470  1.0000 -0.0112195813
N   N47       1.0  0.93603  0.68133  0.36250  1.0000 -0.0112195813
N   N48       1.0  0.68133  0.31883  0.74530  1.0000 -0.0112195813
N   N49       1.0  0.70300  0.42535  0.34695  1.0000 0.0505095668
N   N50       1.0  0.42535  0.07840  0.72235  1.0000 0.0577857159
N   N51       1.0  0.07840  0.35605  0.65305  1.0000 0.0420283009
N   N52       1.0  0.35605  0.70300  0.27765  1.0000 0.0577857159
N   N53       1.0  0.29700  0.57465  0.65305  1.0000 0.0686422489
N   N54       1.0  0.57465  0.92160  0.27765  1.0000 0.0420283009
N   N55       1.0  0.92160  0.64395  0.34695  1.0000 0.0577857159
N   N56       1.0  0.64395  0.29700  0.72235  1.0000 0.0686422489
N   N57       1.0  0.73768  0.45248  0.37980  1.0000 -0.3086906243
N   N58       1.0  0.45248  0.07268  0.71480  1.0000 -0.3086906243
N   N59       1.0  0.07268  0.35788  0.62020  1.0000 -0.3086906243
N   N60       1.0  0.35788  0.73768  0.28520  1.0000 -0.3086906243
N   N61       1.0  0.26232  0.54752  0.62020  1.0000 -0.3086906243
N   N62       1.0  0.54752  0.92732  0.28520  1.0000 -0.3086906243
N   N63       1.0  0.92732  0.64212  0.37980  1.0000 -0.3086906243
N   N64       1.0  0.64212  0.26232  0.71480  1.0000 -0.3086906243
N   N65       1.0  0.64370  0.78064  0.81558  1.0000 -0.3591075668
N   N66       1.0  0.78064  0.96506  0.13694  1.0000 -0.3591075668
N   N67       1.0  0.96506  0.82812  0.18442  1.0000 -0.3591075668
N   N68       1.0  0.82812  0.64370  0.86306  1.0000 -0.3591075668
N   N69       1.0  0.35630  0.21936  0.18442  1.0000 -0.3591075668
N   N70       1.0  0.21936  0.03494  0.86306  1.0000 -0.3591075668
N   N71       1.0  0.03494  0.17188  0.81558  1.0000 -0.3591075668
N   N72       1.0  0.17188  0.35630  0.13694  1.0000 -0.3591075668
N   N73       1.0  0.84366  0.62577  0.62999  1.0000 -0.3591075668
N   N74       1.0  0.62577  0.99578  0.78211  1.0000 -0.3591075668
N   N75       1.0  0.99578  0.21367  0.37001  1.0000 -0.3591075668
N   N76       1.0  0.21367  0.84366  0.21789  1.0000 -0.3591075668
N   N77       1.0  0.15634  0.37423  0.37001  1.0000 -0.3591075668
N   N78       1.0  0.37423  0.00422  0.21789  1.0000 -0.3591075668
N   N79       1.0  0.00422  0.78633  0.62999  1.0000 -0.3591075668
N   N80       1.0  0.78633  0.15634  0.78211  1.0000 -0.3591075668
N   N81       1.0  0.07385  0.65942  0.89389  1.0000 -0.3514451447
N   N82       1.0  0.65942  0.76553  0.58557  1.0000 -0.3514451447
N   N83       1.0  0.76553  0.17996  0.10611  1.0000 -0.3591075668
N   N84       1.0  0.17996  0.07385  0.41443  1.0000 -0.3514451447
N   N85       1.0  0.92615  0.34058  0.10611  1.0000 -0.3591075668
N   N86       1.0  0.34058  0.23447  0.41443  1.0000 -0.3514451447
N   N87       1.0  0.23447  0.82004  0.89389  1.0000 -0.3514451447
N   N88       1.0  0.82004  0.92615  0.58557  1.0000 -0.3514451447
N   N89       1.0  0.09805  0.43065  0.79260  1.0000 0.0505095668
N   N90       1.0  0.43065  0.63805  0.33260  1.0000 0.0686422489
N   N91       1.0  0.63805  0.30545  0.20740  1.0000 0.0577857159
N   N92       1.0  0.30545  0.09805  0.66740  1.0000 0.0420283009
N   N93       1.0  0.90195  0.56935  0.20740  1.0000 0.0686422489
N   N94       1.0  0.56935  0.36195  0.66740  1.0000 0.0686422489
N   N95       1.0  0.36195  0.69455  0.79260  1.0000 0.0505095668
N   N96       1.0  0.69455  0.90195  0.33260  1.0000 0.0420283009
N   N97       1.0  0.09613  0.45953  0.82500  1.0000 -0.3014856838
N   N98       1.0  0.45953  0.63453  0.36340  1.0000 -0.3014856838
N   N99       1.0  0.63453  0.27113  0.17500  1.0000 -0.3014856838
N   N100      1.0  0.27113  0.09613  0.63660  1.0000 -0.3014856838
N   N101      1.0  0.90387  0.54047  0.17500  1.0000 -0.3086906243
N   N102      1.0  0.54047  0.36547  0.63660  1.0000 -0.3014856838
N   N103      1.0  0.36547  0.72887  0.82500  1.0000 -0.3014856838
N   N104      1.0  0.72887  0.90387  0.36340  1.0000 -0.3014856838
N   N105      1.0  0.09174  0.47224  0.77730  1.0000 -0.2408345871
N   N106      1.0  0.47224  0.69494  0.38050  1.0000 -0.2326584719
N   N107      1.0  0.69494  0.31444  0.22270  1.0000 -0.2326584719
N   N108      1.0  0.31444  0.09174  0.61950  1.0000 -0.2408345871
N   N109      1.0  0.90826  0.52776  0.22270  1.0000 -0.2326584719
N   N110      1.0  0.52776  0.30506  0.61950  1.0000 -0.2326584719
N   N111      1.0  0.30506  0.68556  0.77730  1.0000 -0.2326584719
N   N112      1.0  0.68556  0.90826  0.38050  1.0000 -0.2408345871
N   N113      1.0  0.09570  0.43740  0.76350  1.0000 -0.0022644592
N   N114      1.0  0.43740  0.67390  0.34170  1.0000 0.0087008479
N   N115      1.0  0.67390  0.33220  0.23650  1.0000 0.0087008479
N   N116      1.0  0.33220  0.09570  0.65830  1.0000 0.0087008479
N   N117      1.0  0.90430  0.56260  0.23650  1.0000 0.0033589832
N   N118      1.0  0.56260  0.32610  0.65830  1.0000 0.0033589832
N   N119      1.0  0.32610  0.66780  0.76350  1.0000 0.0033589832
N   N120      1.0  0.66780  0.90430  0.34170  1.0000 0.0087008479
O   O1        1.0  0.79322  0.81253  0.83103  1.0000 -0.5233246534
O   O2        1.0  0.81253  0.98150  0.01931  1.0000 -0.5233246534
O   O3        1.0  0.98150  0.96219  0.16897  1.0000 -0.5233246534
O   O4        1.0  0.96219  0.79322  0.98069  1.0000 -0.5233246534
O   O5        1.0  0.20678  0.18747  0.16897  1.0000 -0.5233246534
O   O6        1.0  0.18747  0.01850  0.98069  1.0000 -0.5233246534
O   O7        1.0  0.01850  0.03781  0.83103  1.0000 -0.5233246534
O   O8        1.0  0.03781  0.20678  0.01931  1.0000 -0.5233246534
O   O9        1.0  0.74460  0.75326  0.78110  1.0000 -0.5233246534
O   O10       1.0  0.75326  0.97216  0.00866  1.0000 -0.5233246534
O   O11       1.0  0.97216  0.96350  0.21890  1.0000 -0.5233246534
O   O12       1.0  0.96350  0.74460  0.99134  1.0000 -0.5233246534
O   O13       1.0  0.25540  0.24674  0.21890  1.0000 -0.5233246534
O   O14       1.0  0.24674  0.02784  0.99134  1.0000 -0.5274502211
O   O15       1.0  0.02784  0.03650  0.78110  1.0000 -0.5233246534
O   O16       1.0  0.03650  0.25540  0.00866  1.0000 -0.5233246534
O   O17       1.0  0.77367  0.92742  0.92677  1.0000 -0.4985739969
O   O18       1.0  0.92742  0.00065  0.15375  1.0000 -0.4898633026
O   O19       1.0  0.00065  0.84690  0.07323  1.0000 -0.4898633026
O   O20       1.0  0.84690  0.77367  0.84625  1.0000 -0.4898633026
O   O21       1.0  0.22633  0.07258  0.07323  1.0000 -0.4898633026
O   O22       1.0  0.07258  0.99935  0.84625  1.0000 -0.4985739969
O   O23       1.0  0.99935  0.15310  0.92677  1.0000 -0.4898633026
O   O24       1.0  0.15310  0.22633  0.15375  1.0000 -0.4898633026
O   O25       1.0  0.71492  0.92345  0.91815  1.0000 -0.5233246534
O   O26       1.0  0.92345  0.00530  0.20853  1.0000 -0.5274502211
O   O27       1.0  0.00530  0.79677  0.08185  1.0000 -0.5233246534
O   O28       1.0  0.79677  0.71492  0.79147  1.0000 -0.5233246534
O   O29       1.0  0.28508  0.07655  0.08185  1.0000 -0.5233246534
O   O30       1.0  0.07655  0.99470  0.79147  1.0000 -0.5274502211
O   O31       1.0  0.99470  0.20323  0.91815  1.0000 -0.5233246534
O   O32       1.0  0.20323  0.28508  0.20853  1.0000 -0.5233246534
O   O33       1.0  0.63555  0.71949  0.76114  1.0000 -0.4784490205
O   O34       1.0  0.71949  0.95835  0.08394  1.0000 -0.4730635129
O   O35       1.0  0.95835  0.87441  0.23886  1.0000 -0.4784490205
O   O36       1.0  0.87441  0.63555  0.91606  1.0000 -0.4730635129
O   O37       1.0  0.36445  0.28051  0.23886  1.0000 -0.4730635129
O   O38       1.0  0.28051  0.04165  0.91606  1.0000 -0.4730635129
O   O39       1.0  0.04165  0.12559  0.76114  1.0000 -0.4730635129
O   O40       1.0  0.12559  0.36445  0.08394  1.0000 -0.4784490205
O   O41       1.0  0.80028  0.70971  0.72533  1.0000 -0.5274502211
O   O42       1.0  0.70971  0.98438  0.90943  1.0000 -0.5274502211
O   O43       1.0  0.98438  0.07495  0.27467  1.0000 -0.5274502211
O   O44       1.0  0.07495  0.80028  0.09057  1.0000 -0.5274502211
O   O45       1.0  0.19972  0.29029  0.27467  1.0000 -0.5274502211
O   O46       1.0  0.29029  0.01562  0.09057  1.0000 -0.5274502211
O   O47       1.0  0.01562  0.92505  0.72533  1.0000 -0.5274502211
O   O48       1.0  0.92505  0.19972  0.90943  1.0000 -0.5274502211
O   O49       1.0  0.85152  0.76790  0.77990  1.0000 -0.4985739969
O   O50       1.0  0.76790  0.98800  0.91638  1.0000 -0.4985739969
O   O51       1.0  0.98800  0.07162  0.22010  1.0000 -0.4985739969
O   O52       1.0  0.07162  0.85152  0.08362  1.0000 -0.4985739969
O   O53       1.0  0.14848  0.23210  0.22010  1.0000 -0.4985739969
O   O54       1.0  0.23210  0.01200  0.08362  1.0000 -0.4985739969
O   O55       1.0  0.01200  0.92838  0.77990  1.0000 -0.4985739969
O   O56       1.0  0.92838  0.14848  0.91638  1.0000 -0.4985739969
O   O57       1.0  0.97639  0.77760  0.79685  1.0000 -0.5274502211
O   O58       1.0  0.77760  0.98075  0.80121  1.0000 -0.5274502211
O   O59       1.0  0.98075  0.17954  0.20315  1.0000 -0.5274502211
O   O60       1.0  0.17954  0.97639  0.19879  1.0000 -0.5274502211
O   O61       1.0  0.02361  0.22240  0.20315  1.0000 -0.5274502211
O   O62       1.0  0.22240  0.01925  0.19879  1.0000 -0.5274502211
O   O63       1.0  0.01925  0.82046  0.79685  1.0000 -0.5274502211
O   O64       1.0  0.82046  0.02361  0.80121  1.0000 -0.5274502211
O   O65       1.0  0.98207  0.72252  0.74981  1.0000 -0.5099883154
O   O66       1.0  0.72252  0.97271  0.74045  1.0000 -0.5099883154
O   O67       1.0  0.97271  0.23226  0.25019  1.0000 -0.5099883154
O   O68       1.0  0.23226  0.98207  0.25955  1.0000 -0.5099883154
O   O69       1.0  0.01793  0.27748  0.25019  1.0000 -0.5099883154
O   O70       1.0  0.27748  0.02729  0.25955  1.0000 -0.5099883154
O   O71       1.0  0.02729  0.76774  0.74981  1.0000 -0.5099883154
O   O72       1.0  0.76774  0.01793  0.74045  1.0000 -0.5099883154
O   O73       1.0  0.88825  0.61345  0.61460  1.0000 -0.4898633026
O   O74       1.0  0.61345  0.99885  0.72520  1.0000 -0.4784490205
O   O75       1.0  0.99885  0.27365  0.38540  1.0000 -0.4898633026
O   O76       1.0  0.27365  0.88825  0.27480  1.0000 -0.4898633026
O   O77       1.0  0.11175  0.38655  0.38540  1.0000 -0.4898633026
O   O78       1.0  0.38655  0.00115  0.27480  1.0000 -0.4898633026
O   O79       1.0  0.00115  0.72635  0.61460  1.0000 -0.4898633026
O   O80       1.0  0.72635  0.11175  0.72520  1.0000 -0.4898633026
O   O81       1.0  0.03421  0.74644  0.99733  1.0000 -0.5099883154
O   O82       1.0  0.74644  0.74911  0.71223  1.0000 -0.5099883154
O   O83       1.0  0.74911  0.03688  0.00267  1.0000 -0.5099883154
O   O84       1.0  0.03688  0.03421  0.28777  1.0000 -0.5099883154
O   O85       1.0  0.96579  0.25356  0.00267  1.0000 -0.5099883154
O   O86       1.0  0.25356  0.25089  0.28777  1.0000 -0.5099883154
O   O87       1.0  0.25089  0.96312  0.99733  1.0000 -0.5099883154
O   O88       1.0  0.96312  0.96579  0.71223  1.0000 -0.5099883154
O   O89       1.0  0.03390  0.79789  0.99129  1.0000 -0.5274502211
O   O90       1.0  0.79789  0.80660  0.76399  1.0000 -0.5274502211
O   O91       1.0  0.80660  0.04261  0.00871  1.0000 -0.5274502211
O   O92       1.0  0.04261  0.03390  0.23601  1.0000 -0.5274502211
O   O93       1.0  0.96610  0.20211  0.00871  1.0000 -0.5274502211
O   O94       1.0  0.20211  0.19340  0.23601  1.0000 -0.5274502211
O   O95       1.0  0.19340  0.95739  0.99129  1.0000 -0.5274502211
O   O96       1.0  0.95739  0.96610  0.76399  1.0000 -0.5274502211
O   O97       1.0  0.03895  0.78806  0.87353  1.0000 -0.4985739969
O   O98       1.0  0.78806  0.91453  0.74911  1.0000 -0.4985739969
O   O99       1.0  0.91453  0.16542  0.12647  1.0000 -0.4985739969
O   O100      1.0  0.16542  0.03895  0.25089  1.0000 -0.4985739969
O   O101      1.0  0.96105  0.21194  0.12647  1.0000 -0.4985739969
O   O102      1.0  0.21194  0.08547  0.25089  1.0000 -0.4985739969
O   O103      1.0  0.08547  0.83458  0.87353  1.0000 -0.4985739969
O   O104      1.0  0.83458  0.96105  0.74911  1.0000 -0.4985739969
O   O105      1.0  0.04868  0.73483  0.82925  1.0000 -0.5233246534
O   O106      1.0  0.73483  0.90558  0.68615  1.0000 -0.5233246534
O   O107      1.0  0.90558  0.21943  0.17075  1.0000 -0.5233246534
O   O108      1.0  0.21943  0.04868  0.31385  1.0000 -0.5233246534
O   O109      1.0  0.95132  0.26517  0.17075  1.0000 -0.5233246534
O   O110      1.0  0.26517  0.09442  0.31385  1.0000 -0.5233246534
O   O111      1.0  0.09442  0.78057  0.82925  1.0000 -0.5233246534
O   O112      1.0  0.78057  0.95132  0.68615  1.0000 -0.5233246534
O   O113      1.0  0.07634  0.64678  0.94152  1.0000 -0.4985739969
O   O114      1.0  0.64678  0.70526  0.57044  1.0000 -0.4985739969
O   O115      1.0  0.70526  0.13482  0.05848  1.0000 -0.4985739969
O   O116      1.0  0.13482  0.07634  0.42956  1.0000 -0.4898633026
O   O117      1.0  0.92366  0.35322  0.05848  1.0000 -0.4985739969
O   O118      1.0  0.35322  0.29474  0.42956  1.0000 -0.4985739969
O   O119      1.0  0.29474  0.86518  0.94152  1.0000 -0.4985739969
O   O120      1.0  0.86518  0.92366  0.57044  1.0000 -0.4985739969
O   O121      1.0  0.08148  0.35998  0.72130  1.0000 -0.7256664895
O   O122      1.0  0.35998  0.63868  0.27850  1.0000 -0.7128460469
O   O123      1.0  0.63868  0.36018  0.27870  1.0000 -0.7128460469
O   O124      1.0  0.36018  0.08148  0.72150  1.0000 -0.7128460469
O   O125      1.0  0.91852  0.64002  0.27870  1.0000 -0.7128460469
O   O126      1.0  0.64002  0.36132  0.72150  1.0000 -0.7128460469
O   O127      1.0  0.36132  0.63982  0.72130  1.0000 -0.7128460469
O   O128      1.0  0.63982  0.91852  0.27850  1.0000 -0.7256664895
