# DDEC6 charges by PACMAN v1.1 (https://github.com/mtap-research/PACMAN-charge/)
data_2012[Zn][nbo]3[ASR]2
_chemical_formula_sum              "Zn6 H18 C54 O24"
_cell_length_a       15.3301
_cell_length_b       15.3301
_cell_length_c       15.3301
_cell_angle_alpha    102.038
_cell_angle_beta     102.038
_cell_angle_gamma    102.038

_symmetry_space_group_name_H-M    "P 1"
_symmetry_Int_Tables_number       1

loop_
  _symmetry_equiv_pos_as_xyz
  'x, y, z'

loop_
  _atom_site_type_symbol
  _atom_site_label
  _atom_site_symmetry_multiplicity
  _atom_site_fract_x
  _atom_site_fract_y
  _atom_site_fract_z
  _atom_site_occupancy
  _atom_site_charge
Zn  Zn1       1.0  0.97702  0.97702  0.58347  1.0000 0.9355889324
Zn  Zn2       1.0  0.97702  0.58347  0.97702  1.0000 0.9355889324
Zn  Zn3       1.0  0.58347  0.97702  0.97702  1.0000 0.9355889324
Zn  Zn4       1.0  0.02298  0.41653  0.02298  1.0000 0.9355889324
Zn  Zn5       1.0  0.02298  0.02298  0.41653  1.0000 0.9355889324
Zn  Zn6       1.0  0.41653  0.02298  0.02298  1.0000 0.9355889324
H   H1        1.0  0.98580  0.69630  0.50620  1.0000 0.1361810776
H   H2        1.0  0.69630  0.50620  0.98580  1.0000 0.1361810776
H   H3        1.0  0.50620  0.98580  0.69630  1.0000 0.1361810776
H   H4        1.0  0.01420  0.49380  0.30370  1.0000 0.1361810776
H   H5        1.0  0.30370  0.01420  0.49380  1.0000 0.1361810776
H   H6        1.0  0.49380  0.30370  0.01420  1.0000 0.1361810776
H   H7        1.0  0.01420  0.30370  0.49380  1.0000 0.1361810776
H   H8        1.0  0.30370  0.49380  0.01420  1.0000 0.1361810776
H   H9        1.0  0.49380  0.01420  0.30370  1.0000 0.1361810776
H   H10       1.0  0.98580  0.50620  0.69630  1.0000 0.1361810776
H   H11       1.0  0.69630  0.98580  0.50620  1.0000 0.1361810776
H   H12       1.0  0.50620  0.69630  0.98580  1.0000 0.1361810776
H   H13       1.0  0.00000  0.74075  0.25925  1.0000 0.1335006022
H   H14       1.0  0.74075  0.25925  0.00000  1.0000 0.1335006022
H   H15       1.0  0.25925  1.00000  0.74075  1.0000 0.1335006022
H   H16       1.0  1.00000  0.25925  0.74075  1.0000 0.1335006022
H   H17       1.0  0.25925  0.74075  0.00000  1.0000 0.1335006022
H   H18       1.0  0.74075  0.00000  0.25925  1.0000 0.1335006022
C   C1        1.0  0.99361  0.73314  0.38763  1.0000 -0.0241355236
C   C2        1.0  0.73314  0.38763  0.99361  1.0000 -0.0241355236
C   C3        1.0  0.38763  0.99361  0.73314  1.0000 -0.0241355236
C   C4        1.0  0.00639  0.61237  0.26686  1.0000 -0.0241355236
C   C5        1.0  0.26686  0.00639  0.61237  1.0000 -0.0241355236
C   C6        1.0  0.61237  0.26686  0.00639  1.0000 -0.0241355236
C   C7        1.0  0.00639  0.26686  0.61237  1.0000 -0.0241355236
C   C8        1.0  0.26686  0.61237  0.00639  1.0000 -0.0241355236
C   C9        1.0  0.61237  0.00639  0.26686  1.0000 -0.0241355236
C   C10       1.0  0.99361  0.38763  0.73314  1.0000 -0.0241355236
C   C11       1.0  0.73314  0.99361  0.38763  1.0000 -0.0241355236
C   C12       1.0  0.38763  0.73314  0.99361  1.0000 -0.0241355236
C   C13       1.0  0.99194  0.67602  0.44681  1.0000 -0.1402558646
C   C14       1.0  0.67602  0.44681  0.99194  1.0000 -0.1402558646
C   C15       1.0  0.44681  0.99194  0.67602  1.0000 -0.1402558646
C   C16       1.0  0.00806  0.55319  0.32398  1.0000 -0.1402558646
C   C17       1.0  0.32398  0.00806  0.55319  1.0000 -0.1402558646
C   C18       1.0  0.55319  0.32398  0.00806  1.0000 -0.1402558646
C   C19       1.0  0.00806  0.32398  0.55319  1.0000 -0.1402558646
C   C20       1.0  0.32398  0.55319  0.00806  1.0000 -0.1402558646
C   C21       1.0  0.55319  0.00806  0.32398  1.0000 -0.1402558646
C   C22       1.0  0.99194  0.44681  0.67602  1.0000 -0.1402558646
C   C23       1.0  0.67602  0.99194  0.44681  1.0000 -0.1402558646
C   C24       1.0  0.44681  0.67602  0.99194  1.0000 -0.1402558646
C   C25       1.0  0.00000  0.58644  0.41357  1.0000 0.1112424657
C   C26       1.0  0.58644  0.41357  0.00000  1.0000 0.1112424657
C   C27       1.0  0.41357  0.00000  0.58644  1.0000 0.1112424657
C   C28       1.0  1.00000  0.41357  0.58644  1.0000 0.1112424657
C   C29       1.0  0.41357  0.58644  0.00000  1.0000 0.1112424657
C   C30       1.0  0.58644  0.00000  0.41357  1.0000 0.1112424657
C   C31       1.0  1.00000  0.70172  0.29829  1.0000 -0.0872963741
C   C32       1.0  0.70171  0.29829  0.00000  1.0000 -0.0872963741
C   C33       1.0  0.29829  0.00000  0.70171  1.0000 -0.0872963741
C   C34       1.0  1.00000  0.29828  0.70171  1.0000 -0.0872963741
C   C35       1.0  0.29829  0.70172  0.00000  1.0000 -0.0872963741
C   C36       1.0  0.70171  0.00000  0.29829  1.0000 -0.0872963741
C   C37       1.0  0.98733  0.83086  0.42180  1.0000 0.5939681493
C   C38       1.0  0.83086  0.42180  0.98733  1.0000 0.5939681493
C   C39       1.0  0.42180  0.98733  0.83086  1.0000 0.5939681493
C   C40       1.0  0.01267  0.57820  0.16914  1.0000 0.5939681493
C   C41       1.0  0.16914  0.01267  0.57820  1.0000 0.5939681493
C   C42       1.0  0.57820  0.16914  0.01267  1.0000 0.5939681493
C   C43       1.0  0.01267  0.16914  0.57820  1.0000 0.5939681493
C   C44       1.0  0.16914  0.57820  0.01267  1.0000 0.5939681493
C   C45       1.0  0.57820  0.01267  0.16914  1.0000 0.5939681493
C   C46       1.0  0.98733  0.42180  0.83086  1.0000 0.5939681493
C   C47       1.0  0.83086  0.98733  0.42180  1.0000 0.5939681493
C   C48       1.0  0.42180  0.83086  0.98733  1.0000 0.5939681493
C   C49       1.0  1.00000  0.52402  0.47597  1.0000 -0.0872963741
C   C50       1.0  0.52403  0.47598  0.00000  1.0000 -0.0872963741
C   C51       1.0  0.47598  0.00000  0.52402  1.0000 -0.0872963741
C   C52       1.0  0.00000  0.47598  0.52402  1.0000 -0.0872963741
C   C53       1.0  0.47598  0.52402  0.00000  1.0000 -0.0842442326
C   C54       1.0  0.52403  0.00000  0.47597  1.0000 -0.0842442326
O   O1        1.0  0.97397  0.85349  0.50028  1.0000 -0.5475709972
O   O2        1.0  0.85349  0.50028  0.97397  1.0000 -0.5475709972
O   O3        1.0  0.50028  0.97397  0.85349  1.0000 -0.5475709972
O   O4        1.0  0.02603  0.49972  0.14651  1.0000 -0.5475709972
O   O5        1.0  0.14651  0.02603  0.49972  1.0000 -0.5475709972
O   O6        1.0  0.49972  0.14651  0.02603  1.0000 -0.5475709972
O   O7        1.0  0.02603  0.14651  0.49972  1.0000 -0.5475709972
O   O8        1.0  0.14651  0.49972  0.02603  1.0000 -0.5475709972
O   O9        1.0  0.49972  0.02603  0.14651  1.0000 -0.5475709972
O   O10       1.0  0.97397  0.50028  0.85349  1.0000 -0.5475709972
O   O11       1.0  0.85349  0.97397  0.50028  1.0000 -0.5475709972
O   O12       1.0  0.50028  0.85349  0.97397  1.0000 -0.5475709972
O   O13       1.0  0.00246  0.88303  0.37163  1.0000 -0.5215651579
O   O14       1.0  0.88303  0.37163  0.00246  1.0000 -0.5215651579
O   O15       1.0  0.37163  0.00246  0.88303  1.0000 -0.5215651579
O   O16       1.0  0.99754  0.62837  0.11697  1.0000 -0.5215651579
O   O17       1.0  0.11697  0.99754  0.62837  1.0000 -0.5215651579
O   O18       1.0  0.62837  0.11697  0.99754  1.0000 -0.5215651579
O   O19       1.0  0.99754  0.11697  0.62837  1.0000 -0.5215651579
O   O20       1.0  0.11697  0.62837  0.99754  1.0000 -0.5215651579
O   O21       1.0  0.62837  0.99754  0.11697  1.0000 -0.5215651579
O   O22       1.0  0.00246  0.37163  0.88303  1.0000 -0.5215651579
O   O23       1.0  0.88303  0.00246  0.37163  1.0000 -0.5215651579
O   O24       1.0  0.37163  0.88303  0.00246  1.0000 -0.5215651579
