# DDEC6 charges by PACMAN v1.1 (https://github.com/mtap-research/PACMAN-charge/)
data_2012[Zn][pcu]3[ASR]4
_chemical_formula_sum              "Zn16 H96 C192 O52"
_cell_length_a       19.807
_cell_length_b       27.714
_cell_length_c       27.847
_cell_angle_alpha    90
_cell_angle_beta     90
_cell_angle_gamma    90

_symmetry_space_group_name_H-M    "P 1"
_symmetry_Int_Tables_number       1

loop_
  _symmetry_equiv_pos_as_xyz
  'x, y, z'

loop_
  _atom_site_type_symbol
  _atom_site_label
  _atom_site_symmetry_multiplicity
  _atom_site_fract_x
  _atom_site_fract_y
  _atom_site_fract_z
  _atom_site_occupancy
  _atom_site_charge
Zn  Zn1       1.0  0.18856  0.55763  0.11801  1.0000 0.9535520118
Zn  Zn2       1.0  0.31144  0.94237  0.61801  1.0000 0.9535520118
Zn  Zn3       1.0  0.31144  0.05763  0.61801  1.0000 0.955904723
Zn  Zn4       1.0  0.18856  0.44237  0.11801  1.0000 0.9535520118
Zn  Zn5       1.0  0.30041  0.50000  0.06206  1.0000 0.926069237
Zn  Zn6       1.0  0.19959  0.00000  0.56206  1.0000 0.926069237
Zn  Zn7       1.0  0.30124  0.50000  0.17577  1.0000 0.955904723
Zn  Zn8       1.0  0.19876  0.00000  0.67577  1.0000 0.955904723
Zn  Zn9       1.0  0.68856  0.94237  0.38199  1.0000 0.9535520118
Zn  Zn10      1.0  0.81144  0.55763  0.88199  1.0000 0.955904723
Zn  Zn11      1.0  0.81144  0.44237  0.88199  1.0000 0.955904723
Zn  Zn12      1.0  0.68856  0.05763  0.38199  1.0000 0.9535520118
Zn  Zn13      1.0  0.80041  0.00000  0.43794  1.0000 0.926069237
Zn  Zn14      1.0  0.69959  0.50000  0.93794  1.0000 0.926069237
Zn  Zn15      1.0  0.80124  0.00000  0.32423  1.0000 0.955904723
Zn  Zn16      1.0  0.69876  0.50000  0.82423  1.0000 0.955904723
H   H1        1.0  0.14190  0.64850  0.99900  1.0000 0.1277765711
H   H2        1.0  0.35810  0.85150  0.49900  1.0000 0.1277765711
H   H3        1.0  0.35810  0.14850  0.49900  1.0000 0.1277765711
H   H4        1.0  0.14190  0.35150  0.99900  1.0000 0.1277765711
H   H5        1.0  0.13630  0.70440  0.93650  1.0000 0.1200281585
H   H6        1.0  0.36370  0.79560  0.43650  1.0000 0.1200281585
H   H7        1.0  0.36370  0.20440  0.43650  1.0000 0.1200281585
H   H8        1.0  0.13630  0.29560  0.93650  1.0000 0.1200281585
H   H9        1.0  0.30530  0.65240  0.88310  1.0000 0.1277765711
H   H10       1.0  0.19470  0.84760  0.38310  1.0000 0.1277765711
H   H11       1.0  0.19470  0.15240  0.38310  1.0000 0.1277765711
H   H12       1.0  0.30530  0.34760  0.88310  1.0000 0.1277765711
H   H13       1.0  0.31170  0.59390  0.94370  1.0000 0.1200281585
H   H14       1.0  0.18830  0.90610  0.44370  1.0000 0.1200281585
H   H15       1.0  0.18830  0.09390  0.44370  1.0000 0.1200281585
H   H16       1.0  0.31170  0.40610  0.94370  1.0000 0.1200281585
H   H17       1.0  0.31010  0.76410  0.76830  1.0000 0.1200281585
H   H18       1.0  0.18990  0.73590  0.26830  1.0000 0.1200281585
H   H19       1.0  0.18990  0.26410  0.26830  1.0000 0.1200281585
H   H20       1.0  0.31010  0.23590  0.76830  1.0000 0.1200281585
H   H21       1.0  0.32270  0.82880  0.71540  1.0000 0.1277765711
H   H22       1.0  0.17730  0.67120  0.21540  1.0000 0.1200281585
H   H23       1.0  0.17730  0.32880  0.21540  1.0000 0.1200281585
H   H24       1.0  0.32270  0.17120  0.71540  1.0000 0.1277765711
H   H25       1.0  0.16270  0.89140  0.77220  1.0000 0.1200281585
H   H26       1.0  0.33730  0.60860  0.27220  1.0000 0.1200281585
H   H27       1.0  0.33730  0.39140  0.27220  1.0000 0.1200281585
H   H28       1.0  0.16270  0.10860  0.77220  1.0000 0.1200281585
H   H29       1.0  0.15240  0.82750  0.82610  1.0000 0.1200281585
H   H30       1.0  0.34760  0.67250  0.32610  1.0000 0.1200281585
H   H31       1.0  0.34760  0.32750  0.32610  1.0000 0.1200281585
H   H32       1.0  0.15240  0.17250  0.82610  1.0000 0.1200281585
H   H33       1.0  0.50840  0.50000  0.18350  1.0000 0.1200281585
H   H34       1.0  0.99160  0.00000  0.68350  1.0000 0.1200281585
H   H35       1.0  0.62640  0.50000  0.18760  1.0000 0.1277765711
H   H36       1.0  0.87360  0.00000  0.68760  1.0000 0.1277765711
H   H37       1.0  0.63160  0.50000  0.04340  1.0000 0.1277765711
H   H38       1.0  0.86840  0.00000  0.54340  1.0000 0.1277765711
H   H39       1.0  0.51500  0.50000  0.04140  1.0000 0.1200281585
H   H40       1.0  0.98500  0.00000  0.54140  1.0000 0.1200281585
H   H41       1.0  0.85800  0.42660  0.12180  1.0000 0.1277765711
H   H42       1.0  0.64200  0.07340  0.62180  1.0000 0.1277765711
H   H43       1.0  0.64200  0.92660  0.62180  1.0000 0.1277765711
H   H44       1.0  0.85800  0.57340  0.12180  1.0000 0.1277765711
H   H45       1.0  0.97540  0.42770  0.12210  1.0000 0.1200281585
H   H46       1.0  0.52460  0.07230  0.62210  1.0000 0.1200281585
H   H47       1.0  0.52460  0.92770  0.62210  1.0000 0.1200281585
H   H48       1.0  0.97540  0.57230  0.12210  1.0000 0.1200281585
H   H49       1.0  0.64190  0.85150  0.50100  1.0000 0.1277765711
H   H50       1.0  0.85810  0.64850  0.00100  1.0000 0.1277765711
H   H51       1.0  0.85810  0.35150  0.00100  1.0000 0.1277765711
H   H52       1.0  0.64190  0.14850  0.50100  1.0000 0.1277765711
H   H53       1.0  0.63630  0.79560  0.56350  1.0000 0.1200281585
H   H54       1.0  0.86370  0.70440  0.06350  1.0000 0.1200281585
H   H55       1.0  0.86370  0.29560  0.06350  1.0000 0.1200281585
H   H56       1.0  0.63630  0.20440  0.56350  1.0000 0.1200281585
H   H57       1.0  0.80530  0.84760  0.61690  1.0000 0.1277765711
H   H58       1.0  0.69470  0.65240  0.11690  1.0000 0.1277765711
H   H59       1.0  0.69470  0.34760  0.11690  1.0000 0.1277765711
H   H60       1.0  0.80530  0.15240  0.61690  1.0000 0.1277765711
H   H61       1.0  0.81170  0.90610  0.55630  1.0000 0.1200281585
H   H62       1.0  0.68830  0.59390  0.05630  1.0000 0.1200281585
H   H63       1.0  0.68830  0.40610  0.05630  1.0000 0.1200281585
H   H64       1.0  0.81170  0.09390  0.55630  1.0000 0.1200281585
H   H65       1.0  0.81010  0.73590  0.73170  1.0000 0.1200281585
H   H66       1.0  0.68990  0.76410  0.23170  1.0000 0.1200281585
H   H67       1.0  0.68990  0.23590  0.23170  1.0000 0.1200281585
H   H68       1.0  0.81010  0.26410  0.73170  1.0000 0.1200281585
H   H69       1.0  0.82270  0.67120  0.78460  1.0000 0.1200281585
H   H70       1.0  0.67730  0.82880  0.28460  1.0000 0.1277765711
H   H71       1.0  0.67730  0.17120  0.28460  1.0000 0.1200281585
H   H72       1.0  0.82270  0.32880  0.78460  1.0000 0.1200281585
H   H73       1.0  0.66270  0.60860  0.72780  1.0000 0.1200281585
H   H74       1.0  0.83730  0.89140  0.22780  1.0000 0.1200281585
H   H75       1.0  0.83730  0.10860  0.22780  1.0000 0.1200281585
H   H76       1.0  0.66270  0.39140  0.72780  1.0000 0.1200281585
H   H77       1.0  0.65240  0.67250  0.67390  1.0000 0.1200281585
H   H78       1.0  0.84760  0.82750  0.17390  1.0000 0.1200281585
H   H79       1.0  0.84760  0.17250  0.17390  1.0000 0.1200281585
H   H80       1.0  0.65240  0.32750  0.67390  1.0000 0.1200281585
H   H81       1.0  0.00840  0.00000  0.31650  1.0000 0.1200281585
H   H82       1.0  0.49160  0.50000  0.81650  1.0000 0.1200281585
H   H83       1.0  0.12640  0.00000  0.31240  1.0000 0.1277765711
H   H84       1.0  0.37360  0.50000  0.81240  1.0000 0.1277765711
H   H85       1.0  0.13160  0.00000  0.45660  1.0000 0.1277765711
H   H86       1.0  0.36840  0.50000  0.95660  1.0000 0.1277765711
H   H87       1.0  0.01500  0.00000  0.45860  1.0000 0.1200281585
H   H88       1.0  0.48500  0.50000  0.95860  1.0000 0.1200281585
H   H89       1.0  0.35800  0.07340  0.37820  1.0000 0.1277765711
H   H90       1.0  0.14200  0.42660  0.87820  1.0000 0.1277765711
H   H91       1.0  0.14200  0.57340  0.87820  1.0000 0.1277765711
H   H92       1.0  0.35800  0.92660  0.37820  1.0000 0.1277765711
H   H93       1.0  0.47540  0.07230  0.37790  1.0000 0.1200281585
H   H94       1.0  0.02460  0.42770  0.87790  1.0000 0.1200281585
H   H95       1.0  0.02460  0.57230  0.87790  1.0000 0.1200281585
H   H96       1.0  0.47540  0.92770  0.37790  1.0000 0.1200281585
C   C1        1.0  0.23400  0.58270  0.02060  1.0000 0.5906390681
C   C2        1.0  0.26600  0.91730  0.52060  1.0000 0.5906390681
C   C3        1.0  0.26600  0.08270  0.52060  1.0000 0.5906390681
C   C4        1.0  0.23400  0.41730  0.02060  1.0000 0.5906390681
C   C5        1.0  0.22910  0.61770  0.97980  1.0000 -0.0293808626
C   C6        1.0  0.27090  0.88230  0.47980  1.0000 -0.0293808626
C   C7        1.0  0.27090  0.11770  0.47980  1.0000 -0.0293808626
C   C8        1.0  0.22910  0.38230  0.97980  1.0000 -0.0293808626
C   C9        1.0  0.17700  0.64920  0.97580  1.0000 -0.100316305
C   C10       1.0  0.32300  0.85080  0.47580  1.0000 -0.100316305
C   C11       1.0  0.32300  0.14920  0.47580  1.0000 -0.100316305
C   C12       1.0  0.17700  0.35080  0.97580  1.0000 -0.100316305
C   C13       1.0  0.17370  0.68300  0.93820  1.0000 -0.1489687761
C   C14       1.0  0.32630  0.81700  0.43820  1.0000 -0.1489687761
C   C15       1.0  0.32630  0.18300  0.43820  1.0000 -0.1489687761
C   C16       1.0  0.17370  0.31700  0.93820  1.0000 -0.1489687761
C   C17       1.0  0.22370  0.68550  0.90360  1.0000 0.1200281585
C   C18       1.0  0.27630  0.81450  0.40360  1.0000 0.1200281585
C   C19       1.0  0.27630  0.18550  0.40360  1.0000 0.1200281585
C   C20       1.0  0.22370  0.31450  0.90360  1.0000 0.1200281585
C   C21       1.0  0.27130  0.65250  0.90720  1.0000 -0.1432597502
C   C22       1.0  0.22870  0.84750  0.40720  1.0000 -0.1432597502
C   C23       1.0  0.22870  0.15250  0.40720  1.0000 -0.1432597502
C   C24       1.0  0.27130  0.34750  0.90720  1.0000 -0.1432597502
C   C25       1.0  0.27650  0.61720  0.94390  1.0000 -0.0898160352
C   C26       1.0  0.22350  0.88280  0.44390  1.0000 -0.0898160352
C   C27       1.0  0.22350  0.11720  0.44390  1.0000 -0.0898160352
C   C28       1.0  0.27650  0.38280  0.94390  1.0000 -0.0898160352
C   C29       1.0  0.22360  0.72040  0.86900  1.0000 -0.1119645818
C   C30       1.0  0.27640  0.77960  0.36900  1.0000 -0.1119645818
C   C31       1.0  0.27640  0.22040  0.36900  1.0000 -0.1119645818
C   C32       1.0  0.22360  0.27960  0.86900  1.0000 -0.1119645818
C   C33       1.0  0.22460  0.75090  0.83880  1.0000 -0.0734737407
C   C34       1.0  0.27540  0.74910  0.33880  1.0000 -0.0734737407
C   C35       1.0  0.27540  0.25090  0.33880  1.0000 -0.0734737407
C   C36       1.0  0.22460  0.24910  0.83880  1.0000 -0.0734737407
C   C37       1.0  0.23000  0.78830  0.80200  1.0000 0.1200281585
C   C38       1.0  0.27000  0.71170  0.30200  1.0000 0.1200281585
C   C39       1.0  0.27000  0.28830  0.30200  1.0000 0.1200281585
C   C40       1.0  0.23000  0.21170  0.80200  1.0000 0.1200281585
C   C41       1.0  0.27850  0.78980  0.76950  1.0000 -0.1489687761
C   C42       1.0  0.22150  0.71020  0.26950  1.0000 -0.1489687761
C   C43       1.0  0.22150  0.28980  0.26950  1.0000 -0.1489687761
C   C44       1.0  0.27850  0.21020  0.76950  1.0000 -0.1489687761
C   C45       1.0  0.28540  0.82780  0.73680  1.0000 -0.0842206807
C   C46       1.0  0.21460  0.67220  0.23680  1.0000 -0.0898160352
C   C47       1.0  0.21460  0.32780  0.23680  1.0000 -0.0898160352
C   C48       1.0  0.28540  0.17220  0.73680  1.0000 -0.0842206807
C   C49       1.0  0.23980  0.86200  0.73600  1.0000 -0.0293808626
C   C50       1.0  0.26020  0.63800  0.23600  1.0000 -0.0293808626
C   C51       1.0  0.26020  0.36200  0.23600  1.0000 -0.0293808626
C   C52       1.0  0.23980  0.13800  0.73600  1.0000 -0.0293808626
C   C53       1.0  0.19220  0.86440  0.77020  1.0000 -0.0898160352
C   C54       1.0  0.30780  0.63560  0.27020  1.0000 -0.100316305
C   C55       1.0  0.30780  0.36440  0.27020  1.0000 -0.100316305
C   C56       1.0  0.19220  0.13560  0.77020  1.0000 -0.0898160352
C   C57       1.0  0.18720  0.82660  0.80260  1.0000 -0.1489687761
C   C58       1.0  0.31280  0.67340  0.30260  1.0000 -0.1489687761
C   C59       1.0  0.31280  0.32660  0.30260  1.0000 -0.1489687761
C   C60       1.0  0.18720  0.17340  0.80260  1.0000 -0.1489687761
C   C61       1.0  0.24580  0.90650  0.70420  1.0000 0.5906390681
C   C62       1.0  0.25420  0.59350  0.20420  1.0000 0.5906390681
C   C63       1.0  0.25420  0.40650  0.20420  1.0000 0.5906390681
C   C64       1.0  0.24580  0.09350  0.70420  1.0000 0.5906390681
C   C65       1.0  0.42450  0.50000  0.11150  1.0000 0.5906390681
C   C66       1.0  0.07550  0.00000  0.61150  1.0000 0.5970305041
C   C67       1.0  0.50240  0.50000  0.11120  1.0000 -0.0192619994
C   C68       1.0  0.99760  0.00000  0.61120  1.0000 -0.0192619994
C   C69       1.0  0.53430  0.50000  0.15480  1.0000 -0.100316305
C   C70       1.0  0.96570  0.00000  0.65480  1.0000 -0.100316305
C   C71       1.0  0.60450  0.50000  0.15730  1.0000 -0.1432597502
C   C72       1.0  0.89550  0.00000  0.65730  1.0000 -0.1432597502
C   C73       1.0  0.64280  0.50000  0.11490  1.0000 0.1277765711
C   C74       1.0  0.85720  0.00000  0.61490  1.0000 0.1277765711
C   C75       1.0  0.60740  0.50000  0.07280  1.0000 -0.1489687761
C   C76       1.0  0.89260  0.00000  0.57280  1.0000 -0.1489687761
C   C77       1.0  0.53760  0.50000  0.07150  1.0000 -0.0898160352
C   C78       1.0  0.96240  0.00000  0.57150  1.0000 -0.0898160352
C   C79       1.0  0.71510  0.50000  0.11560  1.0000 -0.100316305
C   C80       1.0  0.78490  0.00000  0.61560  1.0000 -0.100316305
C   C81       1.0  0.77470  0.50000  0.11840  1.0000 -0.0898160352
C   C82       1.0  0.72530  0.00000  0.61840  1.0000 -0.0898160352
C   C83       1.0  0.84700  0.50000  0.12080  1.0000 0.1432382424
C   C84       1.0  0.65300  0.00000  0.62080  1.0000 0.1432382424
C   C85       1.0  0.88170  0.45640  0.12180  1.0000 -0.1489687761
C   C86       1.0  0.61830  0.04360  0.62180  1.0000 -0.1489687761
C   C87       1.0  0.61830  0.95640  0.62180  1.0000 -0.1489687761
C   C88       1.0  0.88170  0.54360  0.12180  1.0000 -0.1489687761
C   C89       1.0  0.95130  0.45730  0.12280  1.0000 -0.0898160352
C   C90       1.0  0.54870  0.04270  0.62280  1.0000 -0.0842206807
C   C91       1.0  0.54870  0.95730  0.62280  1.0000 -0.0842206807
C   C92       1.0  0.95130  0.54270  0.12280  1.0000 -0.0898160352
C   C93       1.0  0.98700  0.50000  0.12480  1.0000 -0.0406114192
C   C94       1.0  0.51300  0.00000  0.62480  1.0000 -0.0406114192
C   C95       1.0  0.06460  0.50000  0.12360  1.0000 0.5970305041
C   C96       1.0  0.43540  0.00000  0.62360  1.0000 0.5970305041
C   C97       1.0  0.73400  0.91730  0.47940  1.0000 0.5906390681
C   C98       1.0  0.76600  0.58270  0.97940  1.0000 0.5906390681
C   C99       1.0  0.76600  0.41730  0.97940  1.0000 0.5906390681
C   C100      1.0  0.73400  0.08270  0.47940  1.0000 0.5906390681
C   C101      1.0  0.72910  0.88230  0.52020  1.0000 -0.0293808626
C   C102      1.0  0.77090  0.61770  0.02020  1.0000 -0.0293808626
C   C103      1.0  0.77090  0.38230  0.02020  1.0000 -0.0293808626
C   C104      1.0  0.72910  0.11770  0.52020  1.0000 -0.0293808626
C   C105      1.0  0.67700  0.85080  0.52420  1.0000 -0.100316305
C   C106      1.0  0.82300  0.64920  0.02420  1.0000 -0.100316305
C   C107      1.0  0.82300  0.35080  0.02420  1.0000 -0.100316305
C   C108      1.0  0.67700  0.14920  0.52420  1.0000 -0.100316305
C   C109      1.0  0.67370  0.81700  0.56180  1.0000 -0.1489687761
C   C110      1.0  0.82630  0.68300  0.06180  1.0000 -0.1489687761
C   C111      1.0  0.82630  0.31700  0.06180  1.0000 -0.1489687761
C   C112      1.0  0.67370  0.18300  0.56180  1.0000 -0.1489687761
C   C113      1.0  0.72370  0.81450  0.59640  1.0000 0.1127972153
C   C114      1.0  0.77630  0.68550  0.09640  1.0000 0.1127972153
C   C115      1.0  0.77630  0.31450  0.09640  1.0000 0.1127972153
C   C116      1.0  0.72370  0.18550  0.59640  1.0000 0.1127972153
C   C117      1.0  0.77130  0.84750  0.59280  1.0000 -0.1432597502
C   C118      1.0  0.72870  0.65250  0.09280  1.0000 -0.1432597502
C   C119      1.0  0.72870  0.34750  0.09280  1.0000 -0.1432597502
C   C120      1.0  0.77130  0.15250  0.59280  1.0000 -0.1432597502
C   C121      1.0  0.77650  0.88280  0.55610  1.0000 -0.0898160352
C   C122      1.0  0.72350  0.61720  0.05610  1.0000 -0.0898160352
C   C123      1.0  0.72350  0.38280  0.05610  1.0000 -0.0898160352
C   C124      1.0  0.77650  0.11720  0.55610  1.0000 -0.0898160352
C   C125      1.0  0.72360  0.77960  0.63100  1.0000 -0.1119645818
C   C126      1.0  0.77640  0.72040  0.13100  1.0000 -0.1119645818
C   C127      1.0  0.77640  0.27960  0.13100  1.0000 -0.1119645818
C   C128      1.0  0.72360  0.22040  0.63100  1.0000 -0.1119645818
C   C129      1.0  0.72460  0.74910  0.66120  1.0000 -0.0734737407
C   C130      1.0  0.77540  0.75090  0.16120  1.0000 -0.0734737407
C   C131      1.0  0.77540  0.24910  0.16120  1.0000 -0.0734737407
C   C132      1.0  0.72460  0.25090  0.66120  1.0000 -0.0734737407
C   C133      1.0  0.73000  0.71170  0.69800  1.0000 0.1200281585
C   C134      1.0  0.77000  0.78830  0.19800  1.0000 0.1200281585
C   C135      1.0  0.77000  0.21170  0.19800  1.0000 0.1200281585
C   C136      1.0  0.73000  0.28830  0.69800  1.0000 0.1200281585
C   C137      1.0  0.77850  0.71020  0.73050  1.0000 -0.1432597502
C   C138      1.0  0.72150  0.78980  0.23050  1.0000 -0.1489687761
C   C139      1.0  0.72150  0.21020  0.23050  1.0000 -0.1489687761
C   C140      1.0  0.77850  0.28980  0.73050  1.0000 -0.1432597502
C   C141      1.0  0.78540  0.67220  0.76320  1.0000 -0.0898160352
C   C142      1.0  0.71460  0.82780  0.26320  1.0000 -0.0898160352
C   C143      1.0  0.71460  0.17220  0.26320  1.0000 -0.0898160352
C   C144      1.0  0.78540  0.32780  0.76320  1.0000 -0.0898160352
C   C145      1.0  0.73980  0.63800  0.76400  1.0000 -0.0293808626
C   C146      1.0  0.76020  0.86200  0.26400  1.0000 -0.0293808626
C   C147      1.0  0.76020  0.13800  0.26400  1.0000 -0.0293808626
C   C148      1.0  0.73980  0.36200  0.76400  1.0000 -0.0293808626
C   C149      1.0  0.69220  0.63560  0.72980  1.0000 -0.0898160352
C   C150      1.0  0.80780  0.86440  0.22980  1.0000 -0.0898160352
C   C151      1.0  0.80780  0.13560  0.22980  1.0000 -0.0898160352
C   C152      1.0  0.69220  0.36440  0.72980  1.0000 -0.0898160352
C   C153      1.0  0.68720  0.67340  0.69740  1.0000 -0.1489687761
C   C154      1.0  0.81280  0.82660  0.19740  1.0000 -0.1555719602
C   C155      1.0  0.81280  0.17340  0.19740  1.0000 -0.1555719602
C   C156      1.0  0.68720  0.32660  0.69740  1.0000 -0.1489687761
C   C157      1.0  0.74580  0.59350  0.79580  1.0000 0.5906390681
C   C158      1.0  0.75420  0.90650  0.29580  1.0000 0.5906390681
C   C159      1.0  0.75420  0.09350  0.29580  1.0000 0.5906390681
C   C160      1.0  0.74580  0.40650  0.79580  1.0000 0.5906390681
C   C161      1.0  0.92450  0.00000  0.38850  1.0000 0.5970305041
C   C162      1.0  0.57550  0.50000  0.88850  1.0000 0.5970305041
C   C163      1.0  0.00240  0.00000  0.38880  1.0000 -0.0192619994
C   C164      1.0  0.49760  0.50000  0.88880  1.0000 -0.0192619994
C   C165      1.0  0.03430  0.00000  0.34520  1.0000 -0.100316305
C   C166      1.0  0.46570  0.50000  0.84520  1.0000 -0.100316305
C   C167      1.0  0.10450  0.00000  0.34270  1.0000 -0.1432597502
C   C168      1.0  0.39550  0.50000  0.84270  1.0000 -0.1432597502
C   C169      1.0  0.14280  0.00000  0.38510  1.0000 0.1277765711
C   C170      1.0  0.35720  0.50000  0.88510  1.0000 0.1277765711
C   C171      1.0  0.10740  0.00000  0.42720  1.0000 -0.1489687761
C   C172      1.0  0.39260  0.50000  0.92720  1.0000 -0.1489687761
C   C173      1.0  0.03760  0.00000  0.42850  1.0000 -0.0898160352
C   C174      1.0  0.46240  0.50000  0.92850  1.0000 -0.0898160352
C   C175      1.0  0.21510  0.00000  0.38440  1.0000 -0.100316305
C   C176      1.0  0.28490  0.50000  0.88440  1.0000 -0.100316305
C   C177      1.0  0.27470  0.00000  0.38160  1.0000 -0.0898160352
C   C178      1.0  0.22530  0.50000  0.88160  1.0000 -0.0898160352
C   C179      1.0  0.34700  0.00000  0.37920  1.0000 0.1432382424
C   C180      1.0  0.15300  0.50000  0.87920  1.0000 0.1432382424
C   C181      1.0  0.38170  0.04360  0.37820  1.0000 -0.1489687761
C   C182      1.0  0.11830  0.45640  0.87820  1.0000 -0.1489687761
C   C183      1.0  0.11830  0.54360  0.87820  1.0000 -0.1489687761
C   C184      1.0  0.38170  0.95640  0.37820  1.0000 -0.1489687761
C   C185      1.0  0.45130  0.04270  0.37720  1.0000 -0.0842206807
C   C186      1.0  0.04870  0.45730  0.87720  1.0000 -0.0842206807
C   C187      1.0  0.04870  0.54270  0.87720  1.0000 -0.0842206807
C   C188      1.0  0.45130  0.95730  0.37720  1.0000 -0.0842206807
C   C189      1.0  0.48700  0.00000  0.37520  1.0000 -0.0406114192
C   C190      1.0  0.01300  0.50000  0.87520  1.0000 -0.0406114192
C   C191      1.0  0.56460  0.00000  0.37640  1.0000 0.5970305041
C   C192      1.0  0.93540  0.50000  0.87640  1.0000 0.5970305041
O   O1        1.0  0.24407  0.50000  0.11830  1.0000 -1.0374031145
O   O2        1.0  0.25593  0.00000  0.61830  1.0000 -1.0374031145
O   O3        1.0  0.18989  0.58457  0.05187  1.0000 -0.5202955
O   O4        1.0  0.31011  0.91543  0.55187  1.0000 -0.5202955
O   O5        1.0  0.31011  0.08457  0.55187  1.0000 -0.5202955
O   O6        1.0  0.18989  0.41543  0.05187  1.0000 -0.5202955
O   O7        1.0  0.28240  0.55424  0.01900  1.0000 -0.5202955
O   O8        1.0  0.21760  0.94576  0.51900  1.0000 -0.5202955
O   O9        1.0  0.21760  0.05424  0.51900  1.0000 -0.5202955
O   O10       1.0  0.28240  0.44576  0.01900  1.0000 -0.5202955
O   O11       1.0  0.29480  0.90010  0.67050  1.0000 -0.5779727775
O   O12       1.0  0.20520  0.59990  0.17050  1.0000 -0.5779727775
O   O13       1.0  0.20520  0.40010  0.17050  1.0000 -0.5779727775
O   O14       1.0  0.29480  0.09990  0.67050  1.0000 -0.5779727775
O   O15       1.0  0.20340  0.93820  0.70410  1.0000 -0.5012383464
O   O16       1.0  0.29660  0.56180  0.20410  1.0000 -0.5012383464
O   O17       1.0  0.29660  0.43820  0.20410  1.0000 -0.5012383464
O   O18       1.0  0.20340  0.06180  0.70410  1.0000 -0.5012383464
O   O19       1.0  0.39590  0.50000  0.15226  1.0000 -0.5390518187
O   O20       1.0  0.10410  0.00000  0.65226  1.0000 -0.5390518187
O   O21       1.0  0.39780  0.50000  0.07093  1.0000 -0.5276759742
O   O22       1.0  0.10220  0.00000  0.57093  1.0000 -0.5276759742
O   O23       1.0  0.09241  0.45963  0.12312  1.0000 -0.5390518187
O   O24       1.0  0.40759  0.04037  0.62312  1.0000 -0.5390518187
O   O25       1.0  0.40759  0.95963  0.62312  1.0000 -0.5390518187
O   O26       1.0  0.09241  0.54037  0.12312  1.0000 -0.5390518187
O   O27       1.0  0.74407  0.00000  0.38170  1.0000 -1.0374031145
O   O28       1.0  0.75593  0.50000  0.88170  1.0000 -1.0374031145
O   O29       1.0  0.68989  0.91543  0.44813  1.0000 -0.5202955
O   O30       1.0  0.81011  0.58457  0.94813  1.0000 -0.5202955
O   O31       1.0  0.81011  0.41543  0.94813  1.0000 -0.5202955
O   O32       1.0  0.68989  0.08457  0.44813  1.0000 -0.5202955
O   O33       1.0  0.78240  0.94576  0.48100  1.0000 -0.5202955
O   O34       1.0  0.71760  0.55424  0.98100  1.0000 -0.5276759742
O   O35       1.0  0.71760  0.44576  0.98100  1.0000 -0.5276759742
O   O36       1.0  0.78240  0.05424  0.48100  1.0000 -0.5202955
O   O37       1.0  0.79480  0.59990  0.82950  1.0000 -0.5779727775
O   O38       1.0  0.70520  0.90010  0.32950  1.0000 -0.5779727775
O   O39       1.0  0.70520  0.09990  0.32950  1.0000 -0.5779727775
O   O40       1.0  0.79480  0.40010  0.82950  1.0000 -0.5779727775
O   O41       1.0  0.70340  0.56180  0.79590  1.0000 -0.5012383464
O   O42       1.0  0.79660  0.93820  0.29590  1.0000 -0.5012383464
O   O43       1.0  0.79660  0.06180  0.29590  1.0000 -0.5012383464
O   O44       1.0  0.70340  0.43820  0.79590  1.0000 -0.5012383464
O   O45       1.0  0.89590  0.00000  0.34774  1.0000 -0.5390518187
O   O46       1.0  0.60410  0.50000  0.84774  1.0000 -0.5390518187
O   O47       1.0  0.89780  0.00000  0.42907  1.0000 -0.5276759742
O   O48       1.0  0.60220  0.50000  0.92907  1.0000 -0.5276759742
O   O49       1.0  0.59241  0.04037  0.37688  1.0000 -0.5390518187
O   O50       1.0  0.90759  0.45963  0.87688  1.0000 -0.5390518187
O   O51       1.0  0.90759  0.54037  0.87688  1.0000 -0.5390518187
O   O52       1.0  0.59241  0.95963  0.37688  1.0000 -0.5390518187
