# DDEC6 charges by PACMAN v1.1 (https://github.com/mtap-research/PACMAN-charge/)
data_2012[Cu][pto]3[ASR]1
_chemical_formula_sum              "Cu12 H96 C168 N8 O48"
_cell_length_a       23.211
_cell_length_b       23.211
_cell_length_c       23.211
_cell_angle_alpha    90
_cell_angle_beta     90
_cell_angle_gamma    90

_symmetry_space_group_name_H-M    "P 1"
_symmetry_Int_Tables_number       1

loop_
  _symmetry_equiv_pos_as_xyz
  'x, y, z'

loop_
  _atom_site_type_symbol
  _atom_site_label
  _atom_site_symmetry_multiplicity
  _atom_site_fract_x
  _atom_site_fract_y
  _atom_site_fract_z
  _atom_site_occupancy
  _atom_site_charge
Cu  Cu1       1.0  0.30648  0.50000  0.00000  1.0000 0.8637422702
Cu  Cu2       1.0  0.69352  0.50000  0.00000  1.0000 0.8637422702
Cu  Cu3       1.0  0.00000  0.30648  0.50000  1.0000 0.8637422702
Cu  Cu4       1.0  0.00000  0.69352  0.50000  1.0000 0.8637422702
Cu  Cu5       1.0  0.50000  0.00000  0.30648  1.0000 0.8637422702
Cu  Cu6       1.0  0.50000  0.00000  0.69352  1.0000 0.8637422702
Cu  Cu7       1.0  0.00000  0.80648  0.50000  1.0000 0.8637422702
Cu  Cu8       1.0  0.00000  0.19352  0.50000  1.0000 0.8637422702
Cu  Cu9       1.0  0.80648  0.50000  0.00000  1.0000 0.8637422702
Cu  Cu10      1.0  0.19352  0.50000  0.00000  1.0000 0.8637422702
Cu  Cu11      1.0  0.50000  0.00000  0.19352  1.0000 0.8637422702
Cu  Cu12      1.0  0.50000  0.00000  0.80648  1.0000 0.8637422702
H   H1        1.0  0.33450  0.37020  0.12890  1.0000 0.1288728972
H   H2        1.0  0.66550  0.62980  0.12890  1.0000 0.1288728972
H   H3        1.0  0.66550  0.37020  0.87110  1.0000 0.1288728972
H   H4        1.0  0.33450  0.62980  0.87110  1.0000 0.1288728972
H   H5        1.0  0.12890  0.33450  0.37020  1.0000 0.1288728972
H   H6        1.0  0.12890  0.66550  0.62980  1.0000 0.1288728972
H   H7        1.0  0.87110  0.66550  0.37020  1.0000 0.1288728972
H   H8        1.0  0.87110  0.33450  0.62980  1.0000 0.1288728972
H   H9        1.0  0.37020  0.12890  0.33450  1.0000 0.1288728972
H   H10       1.0  0.62980  0.12890  0.66550  1.0000 0.1288728972
H   H11       1.0  0.37020  0.87110  0.66550  1.0000 0.1288728972
H   H12       1.0  0.62980  0.87110  0.33450  1.0000 0.1288728972
H   H13       1.0  0.87020  0.83450  0.37110  1.0000 0.1288728972
H   H14       1.0  0.12980  0.16550  0.37110  1.0000 0.1288728972
H   H15       1.0  0.87020  0.16550  0.62890  1.0000 0.1288728972
H   H16       1.0  0.12980  0.83450  0.62890  1.0000 0.1288728972
H   H17       1.0  0.83450  0.62890  0.12980  1.0000 0.1288728972
H   H18       1.0  0.16550  0.62890  0.87020  1.0000 0.1288728972
H   H19       1.0  0.16550  0.37110  0.12980  1.0000 0.1288728972
H   H20       1.0  0.83450  0.37110  0.87020  1.0000 0.1288728972
H   H21       1.0  0.62890  0.87020  0.16550  1.0000 0.1288728972
H   H22       1.0  0.62890  0.12980  0.83450  1.0000 0.1288728972
H   H23       1.0  0.37110  0.87020  0.83450  1.0000 0.1288728972
H   H24       1.0  0.37110  0.12980  0.16550  1.0000 0.1288728972
H   H25       1.0  0.66550  0.62980  0.87110  1.0000 0.1288728972
H   H26       1.0  0.33450  0.37020  0.87110  1.0000 0.1288728972
H   H27       1.0  0.33450  0.62980  0.12890  1.0000 0.1288728972
H   H28       1.0  0.66550  0.37020  0.12890  1.0000 0.1288728972
H   H29       1.0  0.87110  0.66550  0.62980  1.0000 0.1288728972
H   H30       1.0  0.87110  0.33450  0.37020  1.0000 0.1288728972
H   H31       1.0  0.12890  0.33450  0.62980  1.0000 0.1288728972
H   H32       1.0  0.12890  0.66550  0.37020  1.0000 0.1288728972
H   H33       1.0  0.62980  0.87110  0.66550  1.0000 0.1288728972
H   H34       1.0  0.37020  0.87110  0.33450  1.0000 0.1288728972
H   H35       1.0  0.62980  0.12890  0.33450  1.0000 0.1288728972
H   H36       1.0  0.37020  0.12890  0.66550  1.0000 0.1288728972
H   H37       1.0  0.12980  0.16550  0.62890  1.0000 0.1288728972
H   H38       1.0  0.87020  0.83450  0.62890  1.0000 0.1288728972
H   H39       1.0  0.12980  0.83450  0.37110  1.0000 0.1288728972
H   H40       1.0  0.87020  0.16550  0.37110  1.0000 0.1288728972
H   H41       1.0  0.16550  0.37110  0.87020  1.0000 0.1288728972
H   H42       1.0  0.83450  0.37110  0.12980  1.0000 0.1288728972
H   H43       1.0  0.83450  0.62890  0.87020  1.0000 0.1288728972
H   H44       1.0  0.16550  0.62890  0.12980  1.0000 0.1288728972
H   H45       1.0  0.37110  0.12980  0.83450  1.0000 0.1288728972
H   H46       1.0  0.37110  0.87020  0.16550  1.0000 0.1288728972
H   H47       1.0  0.62890  0.12980  0.16550  1.0000 0.1288728972
H   H48       1.0  0.62890  0.87020  0.83450  1.0000 0.1288728972
H   H49       1.0  0.33520  0.30430  0.20330  1.0000 0.1288728972
H   H50       1.0  0.66480  0.69570  0.20330  1.0000 0.1288728972
H   H51       1.0  0.66480  0.30430  0.79670  1.0000 0.1288728972
H   H52       1.0  0.33520  0.69570  0.79670  1.0000 0.1288728972
H   H53       1.0  0.20330  0.33520  0.30430  1.0000 0.1288728972
H   H54       1.0  0.20330  0.66480  0.69570  1.0000 0.1288728972
H   H55       1.0  0.79670  0.66480  0.30430  1.0000 0.1288728972
H   H56       1.0  0.79670  0.33520  0.69570  1.0000 0.1288728972
H   H57       1.0  0.30430  0.20330  0.33520  1.0000 0.1288728972
H   H58       1.0  0.69570  0.20330  0.66480  1.0000 0.1288728972
H   H59       1.0  0.30430  0.79670  0.66480  1.0000 0.1288728972
H   H60       1.0  0.69570  0.79670  0.33520  1.0000 0.1288728972
H   H61       1.0  0.80430  0.83520  0.29670  1.0000 0.1288728972
H   H62       1.0  0.19570  0.16480  0.29670  1.0000 0.1288728972
H   H63       1.0  0.80430  0.16480  0.70330  1.0000 0.1288728972
H   H64       1.0  0.19570  0.83520  0.70330  1.0000 0.1288728972
H   H65       1.0  0.83520  0.70330  0.19570  1.0000 0.1288728972
H   H66       1.0  0.16480  0.70330  0.80430  1.0000 0.1288728972
H   H67       1.0  0.16480  0.29670  0.19570  1.0000 0.1288728972
H   H68       1.0  0.83520  0.29670  0.80430  1.0000 0.1288728972
H   H69       1.0  0.70330  0.80430  0.16480  1.0000 0.1288728972
H   H70       1.0  0.70330  0.19570  0.83520  1.0000 0.1288728972
H   H71       1.0  0.29670  0.80430  0.83520  1.0000 0.1288728972
H   H72       1.0  0.29670  0.19570  0.16480  1.0000 0.1288728972
H   H73       1.0  0.66480  0.69570  0.79670  1.0000 0.1288728972
H   H74       1.0  0.33520  0.30430  0.79670  1.0000 0.1288728972
H   H75       1.0  0.33520  0.69570  0.20330  1.0000 0.1288728972
H   H76       1.0  0.66480  0.30430  0.20330  1.0000 0.1288728972
H   H77       1.0  0.79670  0.66480  0.69570  1.0000 0.1288728972
H   H78       1.0  0.79670  0.33520  0.30430  1.0000 0.1288728972
H   H79       1.0  0.20330  0.33520  0.69570  1.0000 0.1288728972
H   H80       1.0  0.20330  0.66480  0.30430  1.0000 0.1288728972
H   H81       1.0  0.69570  0.79670  0.66480  1.0000 0.1288728972
H   H82       1.0  0.30430  0.79670  0.33520  1.0000 0.1288728972
H   H83       1.0  0.69570  0.20330  0.33520  1.0000 0.1288728972
H   H84       1.0  0.30430  0.20330  0.66480  1.0000 0.1288728972
H   H85       1.0  0.19570  0.16480  0.70330  1.0000 0.1288728972
H   H86       1.0  0.80430  0.83520  0.70330  1.0000 0.1288728972
H   H87       1.0  0.19570  0.83520  0.29670  1.0000 0.1288728972
H   H88       1.0  0.80430  0.16480  0.29670  1.0000 0.1288728972
H   H89       1.0  0.16480  0.29670  0.80430  1.0000 0.1288728972
H   H90       1.0  0.83520  0.29670  0.19570  1.0000 0.1288728972
H   H91       1.0  0.83520  0.70330  0.80430  1.0000 0.1288728972
H   H92       1.0  0.16480  0.70330  0.19570  1.0000 0.1288728972
H   H93       1.0  0.29670  0.19570  0.83520  1.0000 0.1288728972
H   H94       1.0  0.29670  0.80430  0.16480  1.0000 0.1288728972
H   H95       1.0  0.70330  0.19570  0.16480  1.0000 0.1288728972
H   H96       1.0  0.70330  0.80430  0.83520  1.0000 0.1288728972
C   C1        1.0  0.25000  0.42240  0.07760  1.0000 0.5661652915
C   C2        1.0  0.75000  0.57760  0.07760  1.0000 0.5661652915
C   C3        1.0  0.75000  0.42240  0.92240  1.0000 0.5661652915
C   C4        1.0  0.25000  0.57760  0.92240  1.0000 0.5661652915
C   C5        1.0  0.07760  0.25000  0.42240  1.0000 0.5661652915
C   C6        1.0  0.07760  0.75000  0.57760  1.0000 0.5661652915
C   C7        1.0  0.92240  0.75000  0.42240  1.0000 0.5661652915
C   C8        1.0  0.92240  0.25000  0.57760  1.0000 0.5661652915
C   C9        1.0  0.42240  0.07760  0.25000  1.0000 0.5661652915
C   C10       1.0  0.57760  0.07760  0.75000  1.0000 0.5661652915
C   C11       1.0  0.42240  0.92240  0.75000  1.0000 0.5661652915
C   C12       1.0  0.57760  0.92240  0.25000  1.0000 0.5661652915
C   C13       1.0  0.75000  0.57760  0.92240  1.0000 0.5661652915
C   C14       1.0  0.25000  0.42240  0.92240  1.0000 0.5661652915
C   C15       1.0  0.25000  0.57760  0.07760  1.0000 0.5661652915
C   C16       1.0  0.75000  0.42240  0.07760  1.0000 0.5661652915
C   C17       1.0  0.92240  0.75000  0.57760  1.0000 0.5661652915
C   C18       1.0  0.92240  0.25000  0.42240  1.0000 0.5661652915
C   C19       1.0  0.07760  0.25000  0.57760  1.0000 0.5661652915
C   C20       1.0  0.07760  0.75000  0.42240  1.0000 0.5661652915
C   C21       1.0  0.57760  0.92240  0.75000  1.0000 0.5661652915
C   C22       1.0  0.42240  0.92240  0.25000  1.0000 0.5661652915
C   C23       1.0  0.57760  0.07760  0.25000  1.0000 0.5661652915
C   C24       1.0  0.42240  0.07760  0.75000  1.0000 0.5661652915
C   C25       1.0  0.25000  0.37900  0.12100  1.0000 -0.0963917349
C   C26       1.0  0.75000  0.62100  0.12100  1.0000 -0.0963917349
C   C27       1.0  0.75000  0.37900  0.87900  1.0000 -0.0963917349
C   C28       1.0  0.25000  0.62100  0.87900  1.0000 -0.0963917349
C   C29       1.0  0.12100  0.25000  0.37900  1.0000 -0.0963917349
C   C30       1.0  0.12100  0.75000  0.62100  1.0000 -0.0963917349
C   C31       1.0  0.87900  0.75000  0.37900  1.0000 -0.0963917349
C   C32       1.0  0.87900  0.25000  0.62100  1.0000 -0.0963917349
C   C33       1.0  0.37900  0.12100  0.25000  1.0000 -0.0963917349
C   C34       1.0  0.62100  0.12100  0.75000  1.0000 -0.0963917349
C   C35       1.0  0.37900  0.87900  0.75000  1.0000 -0.0963917349
C   C36       1.0  0.62100  0.87900  0.25000  1.0000 -0.0963917349
C   C37       1.0  0.75000  0.62100  0.87900  1.0000 -0.0963917349
C   C38       1.0  0.25000  0.37900  0.87900  1.0000 -0.0963917349
C   C39       1.0  0.25000  0.62100  0.12100  1.0000 -0.0963917349
C   C40       1.0  0.75000  0.37900  0.12100  1.0000 -0.0963917349
C   C41       1.0  0.87900  0.75000  0.62100  1.0000 -0.0963917349
C   C42       1.0  0.87900  0.25000  0.37900  1.0000 -0.0963917349
C   C43       1.0  0.12100  0.25000  0.62100  1.0000 -0.0963917349
C   C44       1.0  0.12100  0.75000  0.37900  1.0000 -0.0963917349
C   C45       1.0  0.62100  0.87900  0.75000  1.0000 -0.0963917349
C   C46       1.0  0.37900  0.87900  0.25000  1.0000 -0.0963917349
C   C47       1.0  0.62100  0.12100  0.25000  1.0000 -0.0963917349
C   C48       1.0  0.37900  0.12100  0.75000  1.0000 -0.0963917349
C   C49       1.0  0.29960  0.35720  0.14350  1.0000 -0.0640520074
C   C50       1.0  0.70040  0.64280  0.14350  1.0000 -0.0640520074
C   C51       1.0  0.70040  0.35720  0.85650  1.0000 -0.0640520074
C   C52       1.0  0.29960  0.64280  0.85650  1.0000 -0.0640520074
C   C53       1.0  0.14350  0.29960  0.35720  1.0000 -0.0640520074
C   C54       1.0  0.14350  0.70040  0.64280  1.0000 -0.0640520074
C   C55       1.0  0.85650  0.70040  0.35720  1.0000 -0.0640520074
C   C56       1.0  0.85650  0.29960  0.64280  1.0000 -0.0640520074
C   C57       1.0  0.35720  0.14350  0.29960  1.0000 -0.0640520074
C   C58       1.0  0.64280  0.14350  0.70040  1.0000 -0.0640520074
C   C59       1.0  0.35720  0.85650  0.70040  1.0000 -0.0640520074
C   C60       1.0  0.64280  0.85650  0.29960  1.0000 -0.0640520074
C   C61       1.0  0.85720  0.79960  0.35650  1.0000 -0.0640520074
C   C62       1.0  0.14280  0.20040  0.35650  1.0000 -0.0640520074
C   C63       1.0  0.85720  0.20040  0.64350  1.0000 -0.0640520074
C   C64       1.0  0.14280  0.79960  0.64350  1.0000 -0.0640520074
C   C65       1.0  0.79960  0.64350  0.14280  1.0000 -0.0640520074
C   C66       1.0  0.20040  0.64350  0.85720  1.0000 -0.0640520074
C   C67       1.0  0.20040  0.35650  0.14280  1.0000 -0.0640520074
C   C68       1.0  0.79960  0.35650  0.85720  1.0000 -0.0640520074
C   C69       1.0  0.64350  0.85720  0.20040  1.0000 -0.0640520074
C   C70       1.0  0.64350  0.14280  0.79960  1.0000 -0.0640520074
C   C71       1.0  0.35650  0.85720  0.79960  1.0000 -0.0640520074
C   C72       1.0  0.35650  0.14280  0.20040  1.0000 -0.0640520074
C   C73       1.0  0.70040  0.64280  0.85650  1.0000 -0.0640520074
C   C74       1.0  0.29960  0.35720  0.85650  1.0000 -0.0640520074
C   C75       1.0  0.29960  0.64280  0.14350  1.0000 -0.0640520074
C   C76       1.0  0.70040  0.35720  0.14350  1.0000 -0.0640520074
C   C77       1.0  0.85650  0.70040  0.64280  1.0000 -0.0640520074
C   C78       1.0  0.85650  0.29960  0.35720  1.0000 -0.0640520074
C   C79       1.0  0.14350  0.29960  0.64280  1.0000 -0.0640520074
C   C80       1.0  0.14350  0.70040  0.35720  1.0000 -0.0640520074
C   C81       1.0  0.64280  0.85650  0.70040  1.0000 -0.0640520074
C   C82       1.0  0.35720  0.85650  0.29960  1.0000 -0.0640520074
C   C83       1.0  0.64280  0.14350  0.29960  1.0000 -0.0640520074
C   C84       1.0  0.35720  0.14350  0.70040  1.0000 -0.0640520074
C   C85       1.0  0.14280  0.20040  0.64350  1.0000 -0.0640520074
C   C86       1.0  0.85720  0.79960  0.64350  1.0000 -0.0640520074
C   C87       1.0  0.14280  0.79960  0.35650  1.0000 -0.0640520074
C   C88       1.0  0.85720  0.20040  0.35650  1.0000 -0.0640520074
C   C89       1.0  0.20040  0.35650  0.85720  1.0000 -0.0640520074
C   C90       1.0  0.79960  0.35650  0.14280  1.0000 -0.0640520074
C   C91       1.0  0.79960  0.64350  0.85720  1.0000 -0.0640520074
C   C92       1.0  0.20040  0.64350  0.14280  1.0000 -0.0640520074
C   C93       1.0  0.35650  0.14280  0.79960  1.0000 -0.0640520074
C   C94       1.0  0.35650  0.85720  0.20040  1.0000 -0.0640520074
C   C95       1.0  0.64350  0.14280  0.20040  1.0000 -0.0640520074
C   C96       1.0  0.64350  0.85720  0.79960  1.0000 -0.0640520074
C   C97       1.0  0.30030  0.31600  0.18740  1.0000 -0.1934675083
C   C98       1.0  0.69970  0.68400  0.18740  1.0000 -0.1934675083
C   C99       1.0  0.69970  0.31600  0.81260  1.0000 -0.1934675083
C   C100      1.0  0.30030  0.68400  0.81260  1.0000 -0.1934675083
C   C101      1.0  0.18740  0.30030  0.31600  1.0000 -0.1934675083
C   C102      1.0  0.18740  0.69970  0.68400  1.0000 -0.1934675083
C   C103      1.0  0.81260  0.69970  0.31600  1.0000 -0.1934675083
C   C104      1.0  0.81260  0.30030  0.68400  1.0000 -0.1934675083
C   C105      1.0  0.31600  0.18740  0.30030  1.0000 -0.1934675083
C   C106      1.0  0.68400  0.18740  0.69970  1.0000 -0.1934675083
C   C107      1.0  0.31600  0.81260  0.69970  1.0000 -0.1934675083
C   C108      1.0  0.68400  0.81260  0.30030  1.0000 -0.1934675083
C   C109      1.0  0.81600  0.80030  0.31260  1.0000 -0.1934675083
C   C110      1.0  0.18400  0.19970  0.31260  1.0000 -0.1934675083
C   C111      1.0  0.81600  0.19970  0.68740  1.0000 -0.1934675083
C   C112      1.0  0.18400  0.80030  0.68740  1.0000 -0.1934675083
C   C113      1.0  0.80030  0.68740  0.18400  1.0000 -0.1934675083
C   C114      1.0  0.19970  0.68740  0.81600  1.0000 -0.1934675083
C   C115      1.0  0.19970  0.31260  0.18400  1.0000 -0.1934675083
C   C116      1.0  0.80030  0.31260  0.81600  1.0000 -0.1934675083
C   C117      1.0  0.68740  0.81600  0.19970  1.0000 -0.1934675083
C   C118      1.0  0.68740  0.18400  0.80030  1.0000 -0.1934675083
C   C119      1.0  0.31260  0.81600  0.80030  1.0000 -0.1934675083
C   C120      1.0  0.31260  0.18400  0.19970  1.0000 -0.1934675083
C   C121      1.0  0.69970  0.68400  0.81260  1.0000 -0.1934675083
C   C122      1.0  0.30030  0.31600  0.81260  1.0000 -0.1934675083
C   C123      1.0  0.30030  0.68400  0.18740  1.0000 -0.1934675083
C   C124      1.0  0.69970  0.31600  0.18740  1.0000 -0.1934675083
C   C125      1.0  0.81260  0.69970  0.68400  1.0000 -0.1934675083
C   C126      1.0  0.81260  0.30030  0.31600  1.0000 -0.1934675083
C   C127      1.0  0.18740  0.30030  0.68400  1.0000 -0.1934675083
C   C128      1.0  0.18740  0.69970  0.31600  1.0000 -0.1934675083
C   C129      1.0  0.68400  0.81260  0.69970  1.0000 -0.1934675083
C   C130      1.0  0.31600  0.81260  0.30030  1.0000 -0.1934675083
C   C131      1.0  0.68400  0.18740  0.30030  1.0000 -0.1934675083
C   C132      1.0  0.31600  0.18740  0.69970  1.0000 -0.1934675083
C   C133      1.0  0.18400  0.19970  0.68740  1.0000 -0.1934675083
C   C134      1.0  0.81600  0.80030  0.68740  1.0000 -0.1934675083
C   C135      1.0  0.18400  0.80030  0.31260  1.0000 -0.1934675083
C   C136      1.0  0.81600  0.19970  0.31260  1.0000 -0.1934675083
C   C137      1.0  0.19970  0.31260  0.81600  1.0000 -0.1934675083
C   C138      1.0  0.80030  0.31260  0.18400  1.0000 -0.1934675083
C   C139      1.0  0.80030  0.68740  0.81600  1.0000 -0.1934675083
C   C140      1.0  0.19970  0.68740  0.18400  1.0000 -0.1934675083
C   C141      1.0  0.31260  0.18400  0.80030  1.0000 -0.1934675083
C   C142      1.0  0.31260  0.81600  0.19970  1.0000 -0.1934675083
C   C143      1.0  0.68740  0.18400  0.19970  1.0000 -0.1934675083
C   C144      1.0  0.68740  0.81600  0.80030  1.0000 -0.1934675083
C   C145      1.0  0.25000  0.29310  0.20690  1.0000 0.1700213782
C   C146      1.0  0.75000  0.70690  0.20690  1.0000 0.1700213782
C   C147      1.0  0.75000  0.29310  0.79310  1.0000 0.1700213782
C   C148      1.0  0.25000  0.70690  0.79310  1.0000 0.1700213782
C   C149      1.0  0.20690  0.25000  0.29310  1.0000 0.1700213782
C   C150      1.0  0.20690  0.75000  0.70690  1.0000 0.1700213782
C   C151      1.0  0.79310  0.75000  0.29310  1.0000 0.1700213782
C   C152      1.0  0.79310  0.25000  0.70690  1.0000 0.1700213782
C   C153      1.0  0.29310  0.20690  0.25000  1.0000 0.1700213782
C   C154      1.0  0.70690  0.20690  0.75000  1.0000 0.1700213782
C   C155      1.0  0.29310  0.79310  0.75000  1.0000 0.1700213782
C   C156      1.0  0.70690  0.79310  0.25000  1.0000 0.1700213782
C   C157      1.0  0.75000  0.70690  0.79310  1.0000 0.1700213782
C   C158      1.0  0.25000  0.29310  0.79310  1.0000 0.1700213782
C   C159      1.0  0.25000  0.70690  0.20690  1.0000 0.1700213782
C   C160      1.0  0.75000  0.29310  0.20690  1.0000 0.1700213782
C   C161      1.0  0.79310  0.75000  0.70690  1.0000 0.1700213782
C   C162      1.0  0.79310  0.25000  0.29310  1.0000 0.1700213782
C   C163      1.0  0.20690  0.25000  0.70690  1.0000 0.1700213782
C   C164      1.0  0.20690  0.75000  0.29310  1.0000 0.1700213782
C   C165      1.0  0.70690  0.79310  0.75000  1.0000 0.1700213782
C   C166      1.0  0.29310  0.79310  0.25000  1.0000 0.1700213782
C   C167      1.0  0.70690  0.20690  0.25000  1.0000 0.1700213782
C   C168      1.0  0.29310  0.20690  0.75000  1.0000 0.1700213782
N   N1        1.0  0.25000  0.25000  0.25000  1.0000 -0.1680687696
N   N2        1.0  0.75000  0.75000  0.25000  1.0000 -0.1680687696
N   N3        1.0  0.75000  0.25000  0.75000  1.0000 -0.1680687696
N   N4        1.0  0.25000  0.75000  0.75000  1.0000 -0.1680687696
N   N5        1.0  0.75000  0.75000  0.75000  1.0000 -0.1680687696
N   N6        1.0  0.25000  0.25000  0.75000  1.0000 -0.1680687696
N   N7        1.0  0.25000  0.75000  0.25000  1.0000 -0.1680687696
N   N8        1.0  0.75000  0.25000  0.25000  1.0000 -0.1680687696
O   O1        1.0  0.29728  0.44100  0.05897  1.0000 -0.508047852
O   O2        1.0  0.70272  0.55900  0.05897  1.0000 -0.508047852
O   O3        1.0  0.70272  0.44100  0.94103  1.0000 -0.508047852
O   O4        1.0  0.29728  0.55900  0.94103  1.0000 -0.508047852
O   O5        1.0  0.05897  0.29728  0.44100  1.0000 -0.508047852
O   O6        1.0  0.05897  0.70272  0.55900  1.0000 -0.508047852
O   O7        1.0  0.94103  0.70272  0.44100  1.0000 -0.508047852
O   O8        1.0  0.94103  0.29728  0.55900  1.0000 -0.508047852
O   O9        1.0  0.44100  0.05897  0.29728  1.0000 -0.508047852
O   O10       1.0  0.55900  0.05897  0.70272  1.0000 -0.508047852
O   O11       1.0  0.44100  0.94103  0.70272  1.0000 -0.508047852
O   O12       1.0  0.55900  0.94103  0.29728  1.0000 -0.508047852
O   O13       1.0  0.94100  0.79728  0.44103  1.0000 -0.508047852
O   O14       1.0  0.05900  0.20272  0.44103  1.0000 -0.508047852
O   O15       1.0  0.94100  0.20272  0.55897  1.0000 -0.508047852
O   O16       1.0  0.05900  0.79728  0.55897  1.0000 -0.508047852
O   O17       1.0  0.79728  0.55897  0.05900  1.0000 -0.508047852
O   O18       1.0  0.20272  0.55897  0.94100  1.0000 -0.508047852
O   O19       1.0  0.20272  0.44103  0.05900  1.0000 -0.508047852
O   O20       1.0  0.79728  0.44103  0.94100  1.0000 -0.508047852
O   O21       1.0  0.55897  0.94100  0.20272  1.0000 -0.508047852
O   O22       1.0  0.55897  0.05900  0.79728  1.0000 -0.508047852
O   O23       1.0  0.44103  0.94100  0.79728  1.0000 -0.508047852
O   O24       1.0  0.44103  0.05900  0.20272  1.0000 -0.508047852
O   O25       1.0  0.70272  0.55900  0.94103  1.0000 -0.508047852
O   O26       1.0  0.29728  0.44100  0.94103  1.0000 -0.508047852
O   O27       1.0  0.29728  0.55900  0.05897  1.0000 -0.508047852
O   O28       1.0  0.70272  0.44100  0.05897  1.0000 -0.508047852
O   O29       1.0  0.94103  0.70272  0.55900  1.0000 -0.508047852
O   O30       1.0  0.94103  0.29728  0.44100  1.0000 -0.508047852
O   O31       1.0  0.05897  0.29728  0.55900  1.0000 -0.508047852
O   O32       1.0  0.05897  0.70272  0.44100  1.0000 -0.508047852
O   O33       1.0  0.55900  0.94103  0.70272  1.0000 -0.508047852
O   O34       1.0  0.44100  0.94103  0.29728  1.0000 -0.508047852
O   O35       1.0  0.55900  0.05897  0.29728  1.0000 -0.508047852
O   O36       1.0  0.44100  0.05897  0.70272  1.0000 -0.508047852
O   O37       1.0  0.05900  0.20272  0.55897  1.0000 -0.508047852
O   O38       1.0  0.94100  0.79728  0.55897  1.0000 -0.508047852
O   O39       1.0  0.05900  0.79728  0.44103  1.0000 -0.508047852
O   O40       1.0  0.94100  0.20272  0.44103  1.0000 -0.508047852
O   O41       1.0  0.20272  0.44103  0.94100  1.0000 -0.508047852
O   O42       1.0  0.79728  0.44103  0.05900  1.0000 -0.508047852
O   O43       1.0  0.79728  0.55897  0.94100  1.0000 -0.508047852
O   O44       1.0  0.20272  0.55897  0.05900  1.0000 -0.508047852
O   O45       1.0  0.44103  0.05900  0.79728  1.0000 -0.508047852
O   O46       1.0  0.44103  0.94100  0.20272  1.0000 -0.508047852
O   O47       1.0  0.55897  0.05900  0.20272  1.0000 -0.508047852
O   O48       1.0  0.55897  0.94100  0.79728  1.0000 -0.508047852
