# DDEC6 charges by PACMAN v1.1 (https://github.com/mtap-research/PACMAN-charge/)
data_2012[CuCd][hex]3[ASR]2
_chemical_formula_sum              "Cd12 Cu4 H184 C200 N16 O56"
_cell_length_a       10.3562
_cell_length_b       17.8979
_cell_length_c       44.1383
_cell_angle_alpha    90
_cell_angle_beta     90
_cell_angle_gamma    90

_symmetry_space_group_name_H-M    "P 1"
_symmetry_Int_Tables_number       1

loop_
  _symmetry_equiv_pos_as_xyz
  'x, y, z'

loop_
  _atom_site_type_symbol
  _atom_site_label
  _atom_site_symmetry_multiplicity
  _atom_site_fract_x
  _atom_site_fract_y
  _atom_site_fract_z
  _atom_site_occupancy
  _atom_site_charge
Cd  Cd1       1.0  0.15411  0.00397  0.92211  1.0000 0.909841895
Cd  Cd2       1.0  0.34589  0.99603  0.42211  1.0000 0.909841895
Cd  Cd3       1.0  0.84589  0.50397  0.57789  1.0000 0.909841895
Cd  Cd4       1.0  0.65411  0.49603  0.07789  1.0000 0.909841895
Cd  Cd5       1.0  0.24219  0.99962  0.00175  1.0000 1.0935125871
Cd  Cd6       1.0  0.25781  0.00038  0.50175  1.0000 1.0935125871
Cd  Cd7       1.0  0.75781  0.49962  0.49825  1.0000 1.0953264757
Cd  Cd8       1.0  0.74219  0.50038  0.99825  1.0000 1.0953264757
Cd  Cd9       1.0  0.32634  0.99667  0.08218  1.0000 0.909841895
Cd  Cd10      1.0  0.17366  0.00333  0.58218  1.0000 0.909841895
Cd  Cd11      1.0  0.67366  0.49667  0.41782  1.0000 0.909841895
Cd  Cd12      1.0  0.82634  0.50333  0.91782  1.0000 0.909841895
Cu  Cu1       1.0  0.02718  0.06723  0.75218  1.0000 0.6577479764
Cu  Cu2       1.0  0.47282  0.93277  0.25218  1.0000 0.6577479764
Cu  Cu3       1.0  0.97282  0.56723  0.74782  1.0000 0.6577479764
Cu  Cu4       1.0  0.52718  0.43277  0.24782  1.0000 0.6577479764
H   H1        1.0  0.49020  0.83130  0.99070  1.0000 0.1286115987
H   H2        1.0  0.00980  0.16870  0.49070  1.0000 0.1286115987
H   H3        1.0  0.50980  0.33130  0.50930  1.0000 0.1286115987
H   H4        1.0  0.99020  0.66870  0.00930  1.0000 0.1286115987
H   H5        1.0  0.61820  0.72520  0.99070  1.0000 0.1286115987
H   H6        1.0  0.88180  0.27480  0.49070  1.0000 0.1286115987
H   H7        1.0  0.38180  0.22520  0.50930  1.0000 0.1286115987
H   H8        1.0  0.11820  0.77480  0.00930  1.0000 0.1286115987
H   H9        1.0  0.48340  0.66990  0.90820  1.0000 0.1200476361
H   H10       1.0  0.01660  0.33010  0.40820  1.0000 0.1200476361
H   H11       1.0  0.51660  0.16990  0.59180  1.0000 0.1200476361
H   H12       1.0  0.98340  0.83010  0.09180  1.0000 0.1200476361
H   H13       1.0  0.35600  0.77690  0.90760  1.0000 0.1286115987
H   H14       1.0  0.14400  0.22310  0.40760  1.0000 0.1286115987
H   H15       1.0  0.64400  0.27690  0.59240  1.0000 0.1286115987
H   H16       1.0  0.85600  0.72310  0.09240  1.0000 0.1286115987
H   H17       1.0  0.76000  0.10570  0.97110  1.0000 0.1200476361
H   H18       1.0  0.74000  0.89430  0.47110  1.0000 0.1200476361
H   H19       1.0  0.24000  0.60570  0.52890  1.0000 0.1200476361
H   H20       1.0  0.26000  0.39430  0.02890  1.0000 0.1200476361
H   H21       1.0  0.57370  0.08800  0.99970  1.0000 0.1286115987
H   H22       1.0  0.92630  0.91200  0.49970  1.0000 0.1286115987
H   H23       1.0  0.42630  0.58800  0.50030  1.0000 0.1286115987
H   H24       1.0  0.07370  0.41200  0.00030  1.0000 0.1286115987
H   H25       1.0  0.72190  0.89440  0.03280  1.0000 0.1200476361
H   H26       1.0  0.77810  0.10560  0.53280  1.0000 0.1200476361
H   H27       1.0  0.27810  0.39440  0.46720  1.0000 0.1200476361
H   H28       1.0  0.22190  0.60560  0.96720  1.0000 0.1200476361
H   H29       1.0  0.90660  0.91340  0.00460  1.0000 0.1200476361
H   H30       1.0  0.59340  0.08660  0.50460  1.0000 0.1200476361
H   H31       1.0  0.09340  0.41340  0.49540  1.0000 0.1200476361
H   H32       1.0  0.40660  0.58660  0.99540  1.0000 0.1200476361
H   H33       1.0  0.98710  0.15920  0.01080  1.0000 0.1286115987
H   H34       1.0  0.51290  0.84080  0.51080  1.0000 0.1286115987
H   H35       1.0  0.01290  0.65920  0.48920  1.0000 0.1286115987
H   H36       1.0  0.48710  0.34080  0.98920  1.0000 0.1286115987
H   H37       1.0  0.86570  0.26810  0.00670  1.0000 0.1286115987
H   H38       1.0  0.63430  0.73190  0.50670  1.0000 0.1286115987
H   H39       1.0  0.13430  0.76810  0.49330  1.0000 0.1286115987
H   H40       1.0  0.36570  0.23190  0.99330  1.0000 0.1286115987
H   H41       1.0  0.99960  0.33490  0.08860  1.0000 0.1200476361
H   H42       1.0  0.50040  0.66510  0.58860  1.0000 0.1200476361
H   H43       1.0  0.00040  0.83490  0.41140  1.0000 0.1200476361
H   H44       1.0  0.49960  0.16510  0.91140  1.0000 0.1200476361
H   H45       1.0  0.12090  0.22540  0.09220  1.0000 0.1286115987
H   H46       1.0  0.37910  0.77460  0.59220  1.0000 0.1286115987
H   H47       1.0  0.87910  0.72540  0.40780  1.0000 0.1286115987
H   H48       1.0  0.62090  0.27460  0.90780  1.0000 0.1200476361
H   H49       1.0  0.99720  0.98940  0.63950  1.0000 0.1012776074
H   H50       1.0  0.50280  0.01060  0.13950  1.0000 0.1012776074
H   H51       1.0  0.00280  0.48940  0.86050  1.0000 0.1012776074
H   H52       1.0  0.49720  0.51060  0.36050  1.0000 0.1012776074
H   H53       1.0  0.89520  0.96850  0.68400  1.0000 0.1012776074
H   H54       1.0  0.60480  0.03150  0.18400  1.0000 0.1012776074
H   H55       1.0  0.10480  0.46850  0.81600  1.0000 0.1012776074
H   H56       1.0  0.39520  0.53150  0.31600  1.0000 0.1012776074
H   H57       1.0  0.86590  0.91280  0.74630  1.0000 0.1012776074
H   H58       1.0  0.63410  0.08720  0.24630  1.0000 0.1012776074
H   H59       1.0  0.13410  0.41280  0.75370  1.0000 0.1012776074
H   H60       1.0  0.36590  0.58720  0.25370  1.0000 0.1012776074
H   H61       1.0  0.73800  0.91150  0.70180  1.0000 0.1200476361
H   H62       1.0  0.76200  0.08850  0.20180  1.0000 0.1200476361
H   H63       1.0  0.26200  0.41150  0.79820  1.0000 0.1200476361
H   H64       1.0  0.23800  0.58850  0.29820  1.0000 0.1200476361
H   H65       1.0  0.67070  0.98850  0.71160  1.0000 0.1200476361
H   H66       1.0  0.82930  0.01150  0.21160  1.0000 0.1200476361
H   H67       1.0  0.32930  0.48850  0.78840  1.0000 0.1200476361
H   H68       1.0  0.17070  0.51150  0.28840  1.0000 0.1200476361
H   H69       1.0  0.53240  0.88810  0.72570  1.0000 0.1091843268
H   H70       1.0  0.96760  0.11190  0.22570  1.0000 0.1091843268
H   H71       1.0  0.46760  0.38810  0.77430  1.0000 0.1091843268
H   H72       1.0  0.03240  0.61190  0.27430  1.0000 0.1091843268
H   H73       1.0  0.64700  0.84910  0.74430  1.0000 0.1012776074
H   H74       1.0  0.85300  0.15090  0.24430  1.0000 0.1012776074
H   H75       1.0  0.35300  0.34910  0.75570  1.0000 0.1012776074
H   H76       1.0  0.14700  0.65090  0.25570  1.0000 0.1012776074
H   H77       1.0  0.50950  0.91100  0.77840  1.0000 0.1091843268
H   H78       1.0  0.99050  0.08900  0.27840  1.0000 0.1091843268
H   H79       1.0  0.49050  0.41100  0.72160  1.0000 0.1091843268
H   H80       1.0  0.00950  0.58900  0.22160  1.0000 0.1091843268
H   H81       1.0  0.52720  0.98790  0.76030  1.0000 0.1091843268
H   H82       1.0  0.97280  0.01210  0.26030  1.0000 0.1091843268
H   H83       1.0  0.47280  0.48790  0.73970  1.0000 0.1091843268
H   H84       1.0  0.02720  0.51210  0.23970  1.0000 0.1091843268
H   H85       1.0  0.66260  0.99000  0.80390  1.0000 0.1200476361
H   H86       1.0  0.83740  0.01000  0.30390  1.0000 0.1200476361
H   H87       1.0  0.33740  0.49000  0.69610  1.0000 0.1200476361
H   H88       1.0  0.16260  0.51000  0.19610  1.0000 0.1200476361
H   H89       1.0  0.73100  0.91370  0.79340  1.0000 0.1091843268
H   H90       1.0  0.76900  0.08630  0.29340  1.0000 0.1091843268
H   H91       1.0  0.26900  0.41370  0.70660  1.0000 0.1091843268
H   H92       1.0  0.23100  0.58630  0.20660  1.0000 0.1091843268
H   H93       1.0  0.73730  0.05030  0.75910  1.0000 0.1012776074
H   H94       1.0  0.76270  0.94970  0.25910  1.0000 0.1012776074
H   H95       1.0  0.26270  0.55030  0.74090  1.0000 0.1012776074
H   H96       1.0  0.23730  0.44970  0.24090  1.0000 0.1012776074
H   H97       1.0  0.85940  0.99420  0.82130  1.0000 0.1012776074
H   H98       1.0  0.64060  0.00580  0.32130  1.0000 0.093586374
H   H99       1.0  0.14060  0.49420  0.67870  1.0000 0.093586374
H   H100      1.0  0.35940  0.50580  0.17870  1.0000 0.1012776074
H   H101      1.0  0.97970  0.99620  0.86440  1.0000 0.1012776074
H   H102      1.0  0.52030  0.00380  0.36440  1.0000 0.1012776074
H   H103      1.0  0.02030  0.49620  0.63560  1.0000 0.1012776074
H   H104      1.0  0.47970  0.50380  0.13560  1.0000 0.1012776074
H   H105      1.0  0.30420  0.10630  0.87440  1.0000 0.1091843268
H   H106      1.0  0.19580  0.89370  0.37440  1.0000 0.1091843268
H   H107      1.0  0.69580  0.60630  0.62560  1.0000 0.1091843268
H   H108      1.0  0.80420  0.39370  0.12560  1.0000 0.1091843268
H   H109      1.0  0.31350  0.10790  0.63080  1.0000 0.1091843268
H   H110      1.0  0.18650  0.89210  0.13080  1.0000 0.1091843268
H   H111      1.0  0.68650  0.60790  0.86920  1.0000 0.1091843268
H   H112      1.0  0.81350  0.39210  0.36920  1.0000 0.1091843268
H   H113      1.0  0.40100  0.21470  0.85980  1.0000 0.1200476361
H   H114      1.0  0.09900  0.78530  0.35980  1.0000 0.1200476361
H   H115      1.0  0.59900  0.71470  0.64020  1.0000 0.1200476361
H   H116      1.0  0.90100  0.28530  0.14020  1.0000 0.1200476361
H   H117      1.0  0.51710  0.21290  0.83590  1.0000 0.1286115987
H   H118      1.0  0.98290  0.78710  0.33590  1.0000 0.1286115987
H   H119      1.0  0.48290  0.71290  0.66410  1.0000 0.1286115987
H   H120      1.0  0.01710  0.28710  0.16410  1.0000 0.1286115987
H   H121      1.0  0.48080  0.13920  0.85460  1.0000 0.1200476361
H   H122      1.0  0.01920  0.86080  0.35460  1.0000 0.1200476361
H   H123      1.0  0.51920  0.63920  0.64540  1.0000 0.1200476361
H   H124      1.0  0.98080  0.36080  0.14540  1.0000 0.1200476361
H   H125      1.0  0.46240  0.06790  0.80610  1.0000 0.1200476361
H   H126      1.0  0.03760  0.93210  0.30610  1.0000 0.1200476361
H   H127      1.0  0.53760  0.56790  0.69390  1.0000 0.1200476361
H   H128      1.0  0.96240  0.43210  0.19390  1.0000 0.1200476361
H   H129      1.0  0.50300  0.14250  0.78850  1.0000 0.1286115987
H   H130      1.0  0.99700  0.85750  0.28850  1.0000 0.1286115987
H   H131      1.0  0.49700  0.64250  0.71150  1.0000 0.1286115987
H   H132      1.0  0.00300  0.35750  0.21150  1.0000 0.1286115987
H   H133      1.0  0.37350  0.09940  0.77930  1.0000 0.1419365126
H   H134      1.0  0.12650  0.90060  0.27930  1.0000 0.1419365126
H   H135      1.0  0.62650  0.59940  0.72070  1.0000 0.1419365126
H   H136      1.0  0.87350  0.40060  0.22070  1.0000 0.1419365126
H   H137      1.0  0.25270  0.26160  0.82000  1.0000 0.1200476361
H   H138      1.0  0.24730  0.73840  0.32000  1.0000 0.1200476361
H   H139      1.0  0.74730  0.76160  0.68000  1.0000 0.1200476361
H   H140      1.0  0.75270  0.23840  0.18000  1.0000 0.1200476361
H   H141      1.0  0.24350  0.21920  0.78810  1.0000 0.1419365126
H   H142      1.0  0.25650  0.78080  0.28810  1.0000 0.1419365126
H   H143      1.0  0.75650  0.71920  0.71190  1.0000 0.1419365126
H   H144      1.0  0.74350  0.28080  0.21190  1.0000 0.1419365126
H   H145      1.0  0.37340  0.26190  0.79730  1.0000 0.1200476361
H   H146      1.0  0.12660  0.73810  0.29730  1.0000 0.1200476361
H   H147      1.0  0.62660  0.76190  0.70270  1.0000 0.1200476361
H   H148      1.0  0.87340  0.23810  0.20270  1.0000 0.1200476361
H   H149      1.0  0.26240  0.25530  0.68920  1.0000 0.1200476361
H   H150      1.0  0.23760  0.74470  0.18920  1.0000 0.1200476361
H   H151      1.0  0.73760  0.75530  0.81080  1.0000 0.1200476361
H   H152      1.0  0.76240  0.24470  0.31080  1.0000 0.1200476361
H   H153      1.0  0.38410  0.25290  0.71150  1.0000 0.1200476361
H   H154      1.0  0.11590  0.74710  0.21150  1.0000 0.1200476361
H   H155      1.0  0.61590  0.75290  0.78850  1.0000 0.1200476361
H   H156      1.0  0.88410  0.24710  0.28850  1.0000 0.1200476361
H   H157      1.0  0.25490  0.20850  0.72010  1.0000 0.1419365126
H   H158      1.0  0.24510  0.79150  0.22010  1.0000 0.1419365126
H   H159      1.0  0.74510  0.70850  0.77990  1.0000 0.1419365126
H   H160      1.0  0.75490  0.29150  0.27990  1.0000 0.1419365126
H   H161      1.0  0.47200  0.06140  0.69820  1.0000 0.1200476361
H   H162      1.0  0.02800  0.93860  0.19820  1.0000 0.1200476361
H   H163      1.0  0.52800  0.56140  0.80180  1.0000 0.1200476361
H   H164      1.0  0.97200  0.43860  0.30180  1.0000 0.1200476361
H   H165      1.0  0.38190  0.08910  0.72550  1.0000 0.1419365126
H   H166      1.0  0.11810  0.91090  0.22550  1.0000 0.1419365126
H   H167      1.0  0.61810  0.58910  0.77450  1.0000 0.1419365126
H   H168      1.0  0.88190  0.41090  0.27450  1.0000 0.1419365126
H   H169      1.0  0.51120  0.13390  0.71740  1.0000 0.1286115987
H   H170      1.0  0.98880  0.86610  0.21740  1.0000 0.1286115987
H   H171      1.0  0.48880  0.63390  0.78260  1.0000 0.1286115987
H   H172      1.0  0.01120  0.36610  0.28260  1.0000 0.1286115987
H   H173      1.0  0.40500  0.21480  0.64820  1.0000 0.1200476361
H   H174      1.0  0.09500  0.78520  0.14820  1.0000 0.1200476361
H   H175      1.0  0.59500  0.71480  0.85180  1.0000 0.1200476361
H   H176      1.0  0.90500  0.28520  0.35180  1.0000 0.1200476361
H   H177      1.0  0.48930  0.14030  0.65120  1.0000 0.1200476361
H   H178      1.0  0.01070  0.85970  0.15120  1.0000 0.1200476361
H   H179      1.0  0.51070  0.64030  0.84880  1.0000 0.1200476361
H   H180      1.0  0.98930  0.35970  0.34880  1.0000 0.1200476361
H   H181      1.0  0.52300  0.21170  0.67150  1.0000 0.1286115987
H   H182      1.0  0.97700  0.78830  0.17150  1.0000 0.1286115987
H   H183      1.0  0.47700  0.71170  0.82850  1.0000 0.1286115987
H   H184      1.0  0.02300  0.28830  0.32850  1.0000 0.1286115987
C   C1        1.0  0.34080  0.88910  0.94821  1.0000 0.5997291728
C   C2        1.0  0.15920  0.11090  0.44821  1.0000 0.5997291728
C   C3        1.0  0.65920  0.38910  0.55179  1.0000 0.5997291728
C   C4        1.0  0.84080  0.61090  0.05179  1.0000 0.5997291728
C   C5        1.0  0.41290  0.81600  0.94898  1.0000 -0.0105971006
C   C6        1.0  0.08710  0.18400  0.44898  1.0000 -0.0105971006
C   C7        1.0  0.58710  0.31600  0.55102  1.0000 -0.0105971006
C   C8        1.0  0.91290  0.68400  0.05102  1.0000 -0.0105971006
C   C9        1.0  0.48960  0.79900  0.97360  1.0000 -0.0988735818
C   C10       1.0  0.01040  0.20100  0.47360  1.0000 -0.0988735818
C   C11       1.0  0.51040  0.29900  0.52640  1.0000 -0.0988735818
C   C12       1.0  0.98960  0.70100  0.02640  1.0000 -0.0988735818
C   C13       1.0  0.56530  0.73590  0.97366  1.0000 -0.0988735818
C   C14       1.0  0.93470  0.26410  0.47366  1.0000 -0.0988735818
C   C15       1.0  0.43470  0.23590  0.52634  1.0000 -0.0988735818
C   C16       1.0  0.06530  0.76410  0.02634  1.0000 -0.0988735818
C   C17       1.0  0.56510  0.68810  0.94934  1.0000 -0.0195374524
C   C18       1.0  0.93490  0.31190  0.44934  1.0000 -0.0195374524
C   C19       1.0  0.43490  0.18810  0.55066  1.0000 -0.0195374524
C   C20       1.0  0.06510  0.81190  0.05066  1.0000 -0.0195374524
C   C21       1.0  0.48570  0.70340  0.92491  1.0000 -0.1095978134
C   C22       1.0  0.01430  0.29660  0.42491  1.0000 -0.1095978134
C   C23       1.0  0.51430  0.20340  0.57509  1.0000 -0.1095978134
C   C24       1.0  0.98570  0.79660  0.07509  1.0000 -0.1095978134
C   C25       1.0  0.41000  0.76680  0.92449  1.0000 -0.1095978134
C   C26       1.0  0.09000  0.23320  0.42449  1.0000 -0.1095978134
C   C27       1.0  0.59000  0.26680  0.57551  1.0000 -0.1095978134
C   C28       1.0  0.91000  0.73320  0.07551  1.0000 -0.1095978134
C   C29       1.0  0.65520  0.62140  0.94913  1.0000 0.5997291728
C   C30       1.0  0.84480  0.37860  0.44913  1.0000 0.5997291728
C   C31       1.0  0.34480  0.12140  0.55087  1.0000 0.5997291728
C   C32       1.0  0.15520  0.87860  0.05087  1.0000 0.5997291728
C   C33       1.0  0.96720  0.01860  0.96498  1.0000 0.5771580412
C   C34       1.0  0.53280  0.98140  0.46498  1.0000 0.5771580412
C   C35       1.0  0.03280  0.51860  0.53502  1.0000 0.5771580412
C   C36       1.0  0.46720  0.48140  0.03502  1.0000 0.5771580412
C   C37       1.0  0.85210  0.01080  0.98491  1.0000 -0.0105971006
C   C38       1.0  0.64790  0.98920  0.48491  1.0000 -0.0105971006
C   C39       1.0  0.14790  0.51080  0.51509  1.0000 -0.0105971006
C   C40       1.0  0.35210  0.48920  0.01509  1.0000 -0.0105971006
C   C41       1.0  0.75210  0.06290  0.98367  1.0000 -0.0988735818
C   C42       1.0  0.74790  0.93710  0.48367  1.0000 -0.0988735818
C   C43       1.0  0.24790  0.56290  0.51633  1.0000 -0.0988735818
C   C44       1.0  0.25210  0.43710  0.01633  1.0000 -0.0988735818
C   C45       1.0  0.64160  0.05240  0.00071  1.0000 -0.0988735818
C   C46       1.0  0.85840  0.94760  0.50071  1.0000 -0.0988735818
C   C47       1.0  0.35840  0.55240  0.49929  1.0000 -0.0988735818
C   C48       1.0  0.14160  0.44760  0.99929  1.0000 -0.0988735818
C   C49       1.0  0.62930  0.99000  0.01938  1.0000 -0.0105971006
C   C50       1.0  0.87070  0.01000  0.51938  1.0000 -0.0105971006
C   C51       1.0  0.37070  0.49000  0.48062  1.0000 -0.0105971006
C   C52       1.0  0.12930  0.51000  0.98062  1.0000 -0.0105971006
C   C53       1.0  0.72960  0.93760  0.02042  1.0000 -0.0988735818
C   C54       1.0  0.77040  0.06240  0.52042  1.0000 -0.0988735818
C   C55       1.0  0.27040  0.43760  0.47958  1.0000 -0.0988735818
C   C56       1.0  0.22960  0.56240  0.97958  1.0000 -0.0988735818
C   C57       1.0  0.83850  0.94890  0.00356  1.0000 -0.0941643418
C   C58       1.0  0.66150  0.05110  0.50356  1.0000 -0.0941643418
C   C59       1.0  0.16150  0.44890  0.49644  1.0000 -0.0941643418
C   C60       1.0  0.33850  0.55110  0.99644  1.0000 -0.0941643418
C   C61       1.0  0.51450  0.98250  0.03945  1.0000 0.5771580412
C   C62       1.0  0.98550  0.01750  0.53945  1.0000 0.5771580412
C   C63       1.0  0.48550  0.48250  0.46055  1.0000 0.5771580412
C   C64       1.0  0.01450  0.51750  0.96055  1.0000 0.5771580412
C   C65       1.0  0.13510  0.10840  0.05484  1.0000 0.5997291728
C   C66       1.0  0.36490  0.89160  0.55484  1.0000 0.5997291728
C   C67       1.0  0.86490  0.60840  0.44516  1.0000 0.5997291728
C   C68       1.0  0.63510  0.39160  0.94516  1.0000 0.5997291728
C   C69       1.0  0.06330  0.18080  0.05238  1.0000 -0.0195374524
C   C70       1.0  0.43670  0.81920  0.55238  1.0000 -0.0195374524
C   C71       1.0  0.93670  0.68080  0.44762  1.0000 -0.0195374524
C   C72       1.0  0.56330  0.31920  0.94762  1.0000 -0.0195374524
C   C73       1.0  0.98850  0.19470  0.02684  1.0000 -0.0941643418
C   C74       1.0  0.51150  0.80530  0.52684  1.0000 -0.0941643418
C   C75       1.0  0.01150  0.69470  0.47316  1.0000 -0.0941643418
C   C76       1.0  0.48850  0.30530  0.97316  1.0000 -0.0941643418
C   C77       1.0  0.91640  0.25930  0.02432  1.0000 -0.0988735818
C   C78       1.0  0.58360  0.74070  0.52432  1.0000 -0.0988735818
C   C79       1.0  0.08360  0.75930  0.47568  1.0000 -0.0988735818
C   C80       1.0  0.41640  0.24070  0.97568  1.0000 -0.0988735818
C   C81       1.0  0.91840  0.31170  0.04788  1.0000 -0.0252260455
C   C82       1.0  0.58160  0.68830  0.54788  1.0000 -0.0195374524
C   C83       1.0  0.08160  0.81170  0.45212  1.0000 -0.0252260455
C   C84       1.0  0.41840  0.18830  0.95212  1.0000 -0.0252260455
C   C85       1.0  0.99570  0.29890  0.07277  1.0000 -0.1095978134
C   C86       1.0  0.50430  0.70110  0.57277  1.0000 -0.1095978134
C   C87       1.0  0.00430  0.79890  0.42723  1.0000 -0.1095978134
C   C88       1.0  0.49570  0.20110  0.92723  1.0000 -0.1095978134
C   C89       1.0  0.06790  0.23360  0.07493  1.0000 -0.0988735818
C   C90       1.0  0.43210  0.76640  0.57493  1.0000 -0.0988735818
C   C91       1.0  0.93210  0.73360  0.42507  1.0000 -0.0988735818
C   C92       1.0  0.56790  0.26640  0.92507  1.0000 -0.0988735818
C   C93       1.0  0.83120  0.37780  0.04616  1.0000 0.5929257794
C   C94       1.0  0.66880  0.62220  0.54616  1.0000 0.5929257794
C   C95       1.0  0.16880  0.87780  0.45384  1.0000 0.5929257794
C   C96       1.0  0.33120  0.12220  0.95384  1.0000 0.5929257794
C   C97       1.0  0.06340  0.01880  0.64845  1.0000 0.0164127992
C   C98       1.0  0.43660  0.98120  0.14845  1.0000 0.0164127992
C   C99       1.0  0.93660  0.51880  0.85155  1.0000 0.0164127992
C   C100      1.0  0.56340  0.48120  0.35155  1.0000 0.0164127992
C   C101      1.0  0.05540  0.03400  0.67961  1.0000 -0.1339164675
C   C102      1.0  0.44460  0.96600  0.17961  1.0000 -0.1339164675
C   C103      1.0  0.94460  0.53400  0.82039  1.0000 -0.1339164675
C   C104      1.0  0.55540  0.46600  0.32039  1.0000 -0.1339164675
C   C105      1.0  0.95200  0.99910  0.69541  1.0000 0.093586374
C   C106      1.0  0.54800  0.00090  0.19541  1.0000 0.093586374
C   C107      1.0  0.04800  0.49910  0.80459  1.0000 0.093586374
C   C108      1.0  0.45200  0.50090  0.30459  1.0000 0.093586374
C   C109      1.0  0.82660  0.96070  0.73910  1.0000 0.0594777236
C   C110      1.0  0.67340  0.03930  0.23910  1.0000 0.0594777236
C   C111      1.0  0.17340  0.46070  0.76090  1.0000 0.0594777236
C   C112      1.0  0.32660  0.53930  0.26090  1.0000 0.0594777236
C   C113      1.0  0.71010  0.94190  0.71933  1.0000 -0.2311344092
C   C114      1.0  0.78990  0.05810  0.21933  1.0000 -0.2311344092
C   C115      1.0  0.28990  0.44190  0.78067  1.0000 -0.2311344092
C   C116      1.0  0.21010  0.55810  0.28067  1.0000 -0.2311344092
C   C117      1.0  0.60990  0.89780  0.73824  1.0000 -0.1622990985
C   C118      1.0  0.89010  0.10220  0.23824  1.0000 -0.1622990985
C   C119      1.0  0.39010  0.39780  0.76176  1.0000 -0.1622990985
C   C120      1.0  0.10990  0.60220  0.26176  1.0000 -0.1622990985
C   C121      1.0  0.57120  0.94110  0.76637  1.0000 -0.1622990985
C   C122      1.0  0.92880  0.05890  0.26637  1.0000 -0.1622990985
C   C123      1.0  0.42880  0.44110  0.73363  1.0000 -0.1622990985
C   C124      1.0  0.07120  0.55890  0.23363  1.0000 -0.1622990985
C   C125      1.0  0.68940  0.96010  0.78606  1.0000 -0.2311344092
C   C126      1.0  0.81060  0.03990  0.28606  1.0000 -0.2311344092
C   C127      1.0  0.31060  0.46010  0.71394  1.0000 -0.2311344092
C   C128      1.0  0.18940  0.53990  0.21394  1.0000 -0.2311344092
C   C129      1.0  0.78360  0.00480  0.76654  1.0000 0.0594777236
C   C130      1.0  0.71640  0.99520  0.26654  1.0000 0.0594777236
C   C131      1.0  0.21640  0.50480  0.73346  1.0000 0.0594777236
C   C132      1.0  0.28360  0.49520  0.23346  1.0000 0.0594777236
C   C133      1.0  0.92380  0.01960  0.80993  1.0000 0.1012776074
C   C134      1.0  0.57620  0.98040  0.30993  1.0000 0.1012776074
C   C135      1.0  0.07620  0.51960  0.69007  1.0000 0.1012776074
C   C136      1.0  0.42380  0.48040  0.19007  1.0000 0.1012776074
C   C137      1.0  0.03980  0.04440  0.82565  1.0000 -0.1339164675
C   C138      1.0  0.46020  0.95560  0.32565  1.0000 -0.1339164675
C   C139      1.0  0.96020  0.54440  0.67435  1.0000 -0.1339164675
C   C140      1.0  0.53980  0.45560  0.17435  1.0000 -0.1339164675
C   C141      1.0  0.04750  0.02540  0.85599  1.0000 0.0019678247
C   C142      1.0  0.45250  0.97460  0.35599  1.0000 0.0019678247
C   C143      1.0  0.95250  0.52540  0.64401  1.0000 0.0019678247
C   C144      1.0  0.54750  0.47460  0.14401  1.0000 -5.84843e-05
C   C145      1.0  0.23650  0.08940  0.86160  1.0000 0.0271805016
C   C146      1.0  0.26350  0.91060  0.36160  1.0000 0.0271805016
C   C147      1.0  0.76350  0.58940  0.63840  1.0000 0.0271805016
C   C148      1.0  0.73650  0.41060  0.13840  1.0000 0.0271805016
C   C149      1.0  0.24000  0.11170  0.83130  1.0000 -0.0988735818
C   C150      1.0  0.26000  0.88830  0.33130  1.0000 -0.0941643418
C   C151      1.0  0.76000  0.61170  0.66870  1.0000 -0.0941643418
C   C152      1.0  0.74000  0.38830  0.16870  1.0000 -0.0988735818
C   C153      1.0  0.13850  0.08700  0.81182  1.0000 0.2987106094
C   C154      1.0  0.36150  0.91300  0.31182  1.0000 0.2987106094
C   C155      1.0  0.86150  0.58700  0.68818  1.0000 0.2987106094
C   C156      1.0  0.63850  0.41300  0.18818  1.0000 0.2987106094
C   C157      1.0  0.15260  0.07910  0.69357  1.0000 0.2987106094
C   C158      1.0  0.34740  0.92090  0.19357  1.0000 0.2987106094
C   C159      1.0  0.84740  0.57910  0.80643  1.0000 0.2987106094
C   C160      1.0  0.65260  0.42090  0.30643  1.0000 0.2987106094
C   C161      1.0  0.24820  0.08810  0.64362  1.0000 0.0271805016
C   C162      1.0  0.25180  0.91190  0.14362  1.0000 0.0271805016
C   C163      1.0  0.75180  0.58810  0.85638  1.0000 0.0271805016
C   C164      1.0  0.74820  0.41190  0.35638  1.0000 0.0271805016
C   C165      1.0  0.25170  0.10720  0.67424  1.0000 -0.0988735818
C   C166      1.0  0.24830  0.89280  0.17424  1.0000 -0.0988735818
C   C167      1.0  0.74830  0.60720  0.82576  1.0000 -0.0988735818
C   C168      1.0  0.75170  0.39280  0.32576  1.0000 -0.0988735818
C   C169      1.0  0.35180  0.16110  0.81978  1.0000 0.2987106094
C   C170      1.0  0.14820  0.83890  0.31978  1.0000 0.2987106094
C   C171      1.0  0.64820  0.66110  0.68022  1.0000 0.2987106094
C   C172      1.0  0.85180  0.33890  0.18022  1.0000 0.2987106094
C   C173      1.0  0.44610  0.18400  0.84475  1.0000 -0.4713570477
C   C174      1.0  0.05390  0.81600  0.34475  1.0000 -0.4713570477
C   C175      1.0  0.55390  0.68400  0.65525  1.0000 -0.4713570477
C   C176      1.0  0.94610  0.31600  0.15525  1.0000 -0.4713570477
C   C177      1.0  0.43000  0.11320  0.79619  1.0000 -0.4914200083
C   C178      1.0  0.07000  0.88680  0.29619  1.0000 -0.4914200083
C   C179      1.0  0.57000  0.61320  0.70381  1.0000 -0.4914200083
C   C180      1.0  0.93000  0.38680  0.20381  1.0000 -0.4914200083
C   C181      1.0  0.30080  0.23230  0.80497  1.0000 -0.497817956
C   C182      1.0  0.19920  0.76770  0.30497  1.0000 -0.497817956
C   C183      1.0  0.69920  0.73230  0.69503  1.0000 -0.497817956
C   C184      1.0  0.80080  0.26770  0.19503  1.0000 -0.497817956
C   C185      1.0  0.36260  0.15470  0.68680  1.0000 0.289610885
C   C186      1.0  0.13740  0.84530  0.18680  1.0000 0.289610885
C   C187      1.0  0.63740  0.65470  0.81320  1.0000 0.289610885
C   C188      1.0  0.86260  0.34530  0.31320  1.0000 0.289610885
C   C189      1.0  0.31140  0.22410  0.70340  1.0000 -0.4813274668
C   C190      1.0  0.18860  0.77590  0.20340  1.0000 -0.4813274668
C   C191      1.0  0.68860  0.72410  0.79660  1.0000 -0.4813274668
C   C192      1.0  0.81140  0.27590  0.29660  1.0000 -0.4813274668
C   C193      1.0  0.43880  0.10530  0.70898  1.0000 -0.497817956
C   C194      1.0  0.06120  0.89470  0.20898  1.0000 -0.497817956
C   C195      1.0  0.56120  0.60530  0.79102  1.0000 -0.497817956
C   C196      1.0  0.93880  0.39470  0.29102  1.0000 -0.497817956
C   C197      1.0  0.45300  0.18290  0.66227  1.0000 -0.4713570477
C   C198      1.0  0.04700  0.81710  0.16227  1.0000 -0.4713570477
C   C199      1.0  0.54700  0.68290  0.83773  1.0000 -0.4713570477
C   C200      1.0  0.95300  0.31710  0.33773  1.0000 -0.4713570477
N   N1        1.0  0.14440  0.04560  0.87420  1.0000 -0.2707654797
N   N2        1.0  0.35560  0.95440  0.37420  1.0000 -0.2707654797
N   N3        1.0  0.85560  0.54560  0.62580  1.0000 -0.2707654797
N   N4        1.0  0.64440  0.45440  0.12580  1.0000 -0.2707654797
N   N5        1.0  0.15760  0.04300  0.63095  1.0000 -0.2707654797
N   N6        1.0  0.34240  0.95700  0.13095  1.0000 -0.2707654797
N   N7        1.0  0.84240  0.54300  0.86905  1.0000 -0.2707654797
N   N8        1.0  0.65760  0.45700  0.36905  1.0000 -0.2707654797
N   N9        1.0  0.92930  0.00570  0.72388  1.0000 -0.3016634808
N   N10       1.0  0.57070  0.99430  0.22388  1.0000 -0.3016634808
N   N11       1.0  0.07070  0.50570  0.77612  1.0000 -0.3016634808
N   N12       1.0  0.42930  0.49430  0.27612  1.0000 -0.3016634808
N   N13       1.0  0.90390  0.03000  0.78167  1.0000 -0.3016634808
N   N14       1.0  0.59610  0.97000  0.28167  1.0000 -0.3016634808
N   N15       1.0  0.09610  0.53000  0.71833  1.0000 -0.3016634808
N   N16       1.0  0.40390  0.47000  0.21833  1.0000 -0.3016634808
O   O1        1.0  0.27120  0.90010  0.92501  1.0000 -0.5419504904
O   O2        1.0  0.22880  0.09990  0.42501  1.0000 -0.5419504904
O   O3        1.0  0.72880  0.40010  0.57499  1.0000 -0.5419504904
O   O4        1.0  0.77120  0.59990  0.07499  1.0000 -0.5419504904
O   O5        1.0  0.35860  0.93290  0.96932  1.0000 -0.5480748491
O   O6        1.0  0.14140  0.06710  0.46932  1.0000 -0.5480748491
O   O7        1.0  0.64140  0.43290  0.53068  1.0000 -0.5480748491
O   O8        1.0  0.85860  0.56710  0.03068  1.0000 -0.5480748491
O   O9        1.0  0.71300  0.60670  0.97353  1.0000 -0.5608303672
O   O10       1.0  0.78700  0.39330  0.47353  1.0000 -0.5608303672
O   O11       1.0  0.28700  0.10670  0.52647  1.0000 -0.5608303672
O   O12       1.0  0.21300  0.89330  0.02647  1.0000 -0.5608303672
O   O13       1.0  0.67100  0.58820  0.92444  1.0000 -0.5419504904
O   O14       1.0  0.82900  0.41180  0.42444  1.0000 -0.5419504904
O   O15       1.0  0.32900  0.08820  0.57556  1.0000 -0.5419504904
O   O16       1.0  0.17100  0.91180  0.07556  1.0000 -0.5419504904
O   O17       1.0  0.96430  0.06190  0.94287  1.0000 -0.5225282089
O   O18       1.0  0.53570  0.93810  0.44287  1.0000 -0.5225282089
O   O19       1.0  0.03570  0.56190  0.55713  1.0000 -0.5225282089
O   O20       1.0  0.46430  0.43810  0.05713  1.0000 -0.5225282089
O   O21       1.0  0.06550  0.97700  0.97030  1.0000 -0.5970751719
O   O22       1.0  0.43450  0.02300  0.47030  1.0000 -0.5970751719
O   O23       1.0  0.93450  0.47700  0.52970  1.0000 -0.5970751719
O   O24       1.0  0.56550  0.52300  0.02970  1.0000 -0.5970751719
O   O25       1.0  0.52040  0.94110  0.06201  1.0000 -0.5225282089
O   O26       1.0  0.97960  0.05890  0.56201  1.0000 -0.5225282089
O   O27       1.0  0.47960  0.44110  0.43799  1.0000 -0.5225282089
O   O28       1.0  0.02040  0.55890  0.93799  1.0000 -0.5225282089
O   O29       1.0  0.41550  0.02230  0.03389  1.0000 -0.5883323477
O   O30       1.0  0.08450  0.97770  0.53389  1.0000 -0.5883323477
O   O31       1.0  0.58450  0.52230  0.46611  1.0000 -0.5883323477
O   O32       1.0  0.91550  0.47770  0.96611  1.0000 -0.5883323477
O   O33       1.0  0.20350  0.09840  0.07861  1.0000 -0.5419504904
O   O34       1.0  0.29650  0.90160  0.57861  1.0000 -0.5419504904
O   O35       1.0  0.79650  0.59840  0.42139  1.0000 -0.5419504904
O   O36       1.0  0.70350  0.40160  0.92139  1.0000 -0.5419504904
O   O37       1.0  0.11840  0.06130  0.03437  1.0000 -0.5608303672
O   O38       1.0  0.38160  0.93870  0.53437  1.0000 -0.5608303672
O   O39       1.0  0.88160  0.56130  0.46563  1.0000 -0.5608303672
O   O40       1.0  0.61840  0.43870  0.96563  1.0000 -0.5608303672
O   O41       1.0  0.81440  0.41420  0.07006  1.0000 -0.5419504904
O   O42       1.0  0.68560  0.58580  0.57006  1.0000 -0.5419504904
O   O43       1.0  0.18560  0.91420  0.42994  1.0000 -0.5419504904
O   O44       1.0  0.31440  0.08580  0.92994  1.0000 -0.5419504904
O   O45       1.0  0.78020  0.39260  0.02111  1.0000 -0.5608303672
O   O46       1.0  0.71980  0.60740  0.52111  1.0000 -0.5608303672
O   O47       1.0  0.21980  0.89260  0.47889  1.0000 -0.5608303672
O   O48       1.0  0.28020  0.10740  0.97889  1.0000 -0.5608303672
O   O49       1.0  0.14040  0.10360  0.78359  1.0000 -0.4713570477
O   O50       1.0  0.35960  0.89640  0.28359  1.0000 -0.4713570477
O   O51       1.0  0.85960  0.60360  0.71641  1.0000 -0.4713570477
O   O52       1.0  0.64040  0.39640  0.21641  1.0000 -0.4713570477
O   O53       1.0  0.15250  0.09460  0.72202  1.0000 -0.4813274668
O   O54       1.0  0.34750  0.90540  0.22202  1.0000 -0.4813274668
O   O55       1.0  0.84750  0.59460  0.77798  1.0000 -0.4813274668
O   O56       1.0  0.65250  0.40540  0.27798  1.0000 -0.4813274668
