# DDEC6 charges by PACMAN v1.1 (https://github.com/mtap-research/PACMAN-charge/)
data_2012[Cd][bbf]3[ASR]1
_chemical_formula_sum              "Cd4 H48 C60 N12 O16"
_cell_length_a       11.443
_cell_length_b       9.828
_cell_length_c       19.074
_cell_angle_alpha    90
_cell_angle_beta     107.249
_cell_angle_gamma    90

_symmetry_space_group_name_H-M    "P 1"
_symmetry_Int_Tables_number       1

loop_
  _symmetry_equiv_pos_as_xyz
  'x, y, z'

loop_
  _atom_site_type_symbol
  _atom_site_label
  _atom_site_symmetry_multiplicity
  _atom_site_fract_x
  _atom_site_fract_y
  _atom_site_fract_z
  _atom_site_occupancy
  _atom_site_charge
Cd  Cd1       1.0  0.35780  0.32198  0.74373  1.0000 0.8610018361
Cd  Cd2       1.0  0.64220  0.67802  0.25627  1.0000 0.8610018361
Cd  Cd3       1.0  0.64220  0.82198  0.75627  1.0000 0.8610018361
Cd  Cd4       1.0  0.35780  0.17802  0.24373  1.0000 0.8610018361
H   H1        1.0  0.12317  0.20318  0.61682  1.0000 0.1001724694
H   H2        1.0  0.87683  0.79682  0.38318  1.0000 0.1001724694
H   H3        1.0  0.87683  0.70318  0.88318  1.0000 0.1001724694
H   H4        1.0  0.12317  0.29682  0.11682  1.0000 0.1001724694
H   H5        1.0  0.89265  0.19525  0.57834  1.0000 0.1192877088
H   H6        1.0  0.10735  0.80475  0.42166  1.0000 0.1192877088
H   H7        1.0  0.10735  0.69525  0.92166  1.0000 0.1192877088
H   H8        1.0  0.89265  0.30475  0.07834  1.0000 0.1192877088
H   H9        1.0  0.90526  0.46209  0.76229  1.0000 0.1287827836
H   H10       1.0  0.09474  0.53791  0.23771  1.0000 0.1287827836
H   H11       1.0  0.09474  0.96209  0.73771  1.0000 0.1287827836
H   H12       1.0  0.90526  0.03791  0.26229  1.0000 0.1287827836
H   H13       1.0  0.13569  0.44815  0.79703  1.0000 0.0844692513
H   H14       1.0  0.86431  0.55185  0.20297  1.0000 0.0844692513
H   H15       1.0  0.86431  0.94815  0.70297  1.0000 0.0844692513
H   H16       1.0  0.13569  0.05185  0.29703  1.0000 0.0844692513
H   H17       1.0  0.70889  0.40039  0.67999  1.0000 0.1287827836
H   H18       1.0  0.29111  0.59961  0.32001  1.0000 0.1287827836
H   H19       1.0  0.29111  0.90039  0.82001  1.0000 0.1287827836
H   H20       1.0  0.70889  0.09961  0.17999  1.0000 0.1287827836
H   H21       1.0  0.70873  0.37444  0.58803  1.0000 0.1134631255
H   H22       1.0  0.29127  0.62556  0.41197  1.0000 0.1134631255
H   H23       1.0  0.29127  0.87444  0.91197  1.0000 0.1134631255
H   H24       1.0  0.70873  0.12556  0.08803  1.0000 0.1134631255
H   H25       1.0  0.62516  0.15467  0.52681  1.0000 0.1287827836
H   H26       1.0  0.37484  0.84533  0.47319  1.0000 0.1287827836
H   H27       1.0  0.37484  0.65467  0.97319  1.0000 0.1287827836
H   H28       1.0  0.62516  0.34533  0.02681  1.0000 0.1287827836
H   H29       1.0  0.55361  0.91148  0.57941  1.0000 0.1134631255
H   H30       1.0  0.44639  0.08852  0.42059  1.0000 0.1134631255
H   H31       1.0  0.44639  0.41148  0.92059  1.0000 0.1134631255
H   H32       1.0  0.55361  0.58852  0.07941  1.0000 0.1134631255
H   H33       1.0  0.73169  0.10064  0.82158  1.0000 0.1671978403
H   H34       1.0  0.26831  0.89936  0.17842  1.0000 0.1671978403
H   H35       1.0  0.26831  0.60064  0.67842  1.0000 0.1671978403
H   H36       1.0  0.73169  0.39936  0.32158  1.0000 0.1671978403
H   H37       1.0  0.69652  0.26998  0.79081  1.0000 0.1760025639
H   H38       1.0  0.30348  0.73002  0.20919  1.0000 0.1760025639
H   H39       1.0  0.30348  0.76998  0.70919  1.0000 0.1760025639
H   H40       1.0  0.69652  0.23002  0.29081  1.0000 0.1760025639
H   H41       1.0  0.84166  0.19853  0.79426  1.0000 0.1287827836
H   H42       1.0  0.15834  0.80147  0.20574  1.0000 0.1287827836
H   H43       1.0  0.15834  0.69853  0.70574  1.0000 0.1287827836
H   H44       1.0  0.84166  0.30147  0.29426  1.0000 0.1287827836
H   H45       1.0  0.35633  0.30477  0.49161  1.0000 0.1134631255
H   H46       1.0  0.64367  0.69523  0.50839  1.0000 0.1134631255
H   H47       1.0  0.64367  0.80477  0.00839  1.0000 0.1134631255
H   H48       1.0  0.35633  0.19523  0.99161  1.0000 0.1134631255
C   C1        1.0  0.07081  0.25667  0.64815  1.0000 0.1001724694
C   C2        1.0  0.92919  0.74333  0.35185  1.0000 0.1001724694
C   C3        1.0  0.92919  0.75667  0.85185  1.0000 0.1001724694
C   C4        1.0  0.07081  0.24333  0.14815  1.0000 0.1001724694
C   C5        1.0  0.94348  0.25462  0.62675  1.0000 -0.1887070071
C   C6        1.0  0.05652  0.74538  0.37325  1.0000 -0.1887070071
C   C7        1.0  0.05652  0.75462  0.87325  1.0000 -0.1887070071
C   C8        1.0  0.94348  0.24538  0.12675  1.0000 -0.1887070071
C   C9        1.0  0.88105  0.33038  0.66706  1.0000 0.1477165241
C   C10       1.0  0.11895  0.66962  0.33294  1.0000 0.1477165241
C   C11       1.0  0.11895  0.83038  0.83294  1.0000 0.1477165241
C   C12       1.0  0.88105  0.16962  0.16706  1.0000 0.1477165241
C   C13       1.0  0.95065  0.40217  0.72912  1.0000 -0.1824421864
C   C14       1.0  0.04935  0.59783  0.27088  1.0000 -0.1824421864
C   C15       1.0  0.04935  0.90217  0.77088  1.0000 -0.1824421864
C   C16       1.0  0.95065  0.09783  0.22912  1.0000 -0.1824421864
C   C17       1.0  0.07808  0.39582  0.74815  1.0000 0.1001724694
C   C18       1.0  0.92192  0.60418  0.25185  1.0000 0.1001724694
C   C19       1.0  0.92192  0.89582  0.75185  1.0000 0.1001724694
C   C20       1.0  0.07808  0.10418  0.24815  1.0000 0.1001724694
C   C21       1.0  0.74400  0.33415  0.64416  1.0000 -0.1200090423
C   C22       1.0  0.25600  0.66585  0.35584  1.0000 -0.1200090423
C   C23       1.0  0.25600  0.83415  0.85584  1.0000 -0.1200090423
C   C24       1.0  0.74400  0.16585  0.14416  1.0000 -0.1200090423
C   C25       1.0  0.63553  0.11902  0.58234  1.0000 -0.1200090423
C   C26       1.0  0.36447  0.88098  0.41766  1.0000 -0.1200090423
C   C27       1.0  0.36447  0.61902  0.91766  1.0000 -0.1200090423
C   C28       1.0  0.63553  0.38098  0.08234  1.0000 -0.1200090423
C   C29       1.0  0.60055  0.00016  0.60866  1.0000 -0.023930247
C   C30       1.0  0.39945  0.99984  0.39134  1.0000 -0.023930247
C   C31       1.0  0.39945  0.50016  0.89134  1.0000 -0.023930247
C   C32       1.0  0.60055  0.49984  0.10866  1.0000 -0.023930247
C   C33       1.0  0.68972  0.12627  0.70526  1.0000 0.3428839315
C   C34       1.0  0.31028  0.87373  0.29474  1.0000 0.3428839315
C   C35       1.0  0.31028  0.62627  0.79474  1.0000 0.3428839315
C   C36       1.0  0.68972  0.37373  0.20526  1.0000 0.3428839315
C   C37       1.0  0.74293  0.17624  0.78165  1.0000 -0.4660121184
C   C38       1.0  0.25707  0.82376  0.21835  1.0000 -0.4660121184
C   C39       1.0  0.25707  0.67624  0.71835  1.0000 -0.4660121184
C   C40       1.0  0.74293  0.32376  0.28165  1.0000 -0.4660121184
C   C41       1.0  0.41957  0.39079  0.49493  1.0000 -0.1409264486
C   C42       1.0  0.58043  0.60921  0.50507  1.0000 -0.1409264486
C   C43       1.0  0.58043  0.89079  0.00507  1.0000 -0.1409264486
C   C44       1.0  0.41957  0.10921  0.99493  1.0000 -0.1409264486
C   C45       1.0  0.45713  0.46646  0.56017  1.0000 -0.040698316
C   C46       1.0  0.54287  0.53354  0.43983  1.0000 -0.040698316
C   C47       1.0  0.54287  0.96647  0.93983  1.0000 -0.040698316
C   C48       1.0  0.45713  0.03353  0.06017  1.0000 -0.040698316
C   C49       1.0  0.53772  0.57776  0.56494  1.0000 -0.0457803365
C   C50       1.0  0.46228  0.42224  0.43506  1.0000 -0.0457803365
C   C51       1.0  0.46228  0.07776  0.93506  1.0000 -0.0457803365
C   C52       1.0  0.53772  0.92224  0.06494  1.0000 -0.0457803365
C   C53       1.0  0.41939  0.41565  0.62490  1.0000 0.5653588492
C   C54       1.0  0.58061  0.58435  0.37510  1.0000 0.5653588492
C   C55       1.0  0.58061  0.91565  0.87510  1.0000 0.5653588492
C   C56       1.0  0.41939  0.08435  0.12490  1.0000 0.5653588492
C   C57       1.0  0.57807  0.66284  0.63356  1.0000 0.5609587747
C   C58       1.0  0.42193  0.33716  0.36644  1.0000 0.5609587747
C   C59       1.0  0.42193  0.16284  0.86643  1.0000 0.5609587747
C   C60       1.0  0.57807  0.83716  0.13357  1.0000 0.5609587747
N   N1        1.0  0.13787  0.32641  0.70790  1.0000 -0.2401935589
N   N2        1.0  0.86213  0.67359  0.29210  1.0000 -0.2401935589
N   N3        1.0  0.86213  0.82641  0.79210  1.0000 -0.2401935589
N   N4        1.0  0.13787  0.17359  0.20790  1.0000 -0.2401935589
N   N5        1.0  0.69138  0.19801  0.64381  1.0000 -0.0016649126
N   N6        1.0  0.30862  0.80199  0.35619  1.0000 -0.0016649126
N   N7        1.0  0.30862  0.69801  0.85619  1.0000 -0.0016649126
N   N8        1.0  0.69138  0.30199  0.14381  1.0000 -0.0016649126
N   N9        1.0  0.63446  0.00561  0.68485  1.0000 -0.3649909776
N   N10       1.0  0.36554  0.99439  0.31515  1.0000 -0.3658148628
N   N11       1.0  0.36554  0.50561  0.81515  1.0000 -0.3658148628
N   N12       1.0  0.63446  0.49439  0.18485  1.0000 -0.3658148628
O   O1        1.0  0.50172  0.40508  0.68732  1.0000 -0.5448131245
O   O2        1.0  0.49828  0.59492  0.31268  1.0000 -0.5448131245
O   O3        1.0  0.49828  0.90508  0.81268  1.0000 -0.5448131245
O   O4        1.0  0.50172  0.09492  0.18732  1.0000 -0.5448131245
O   O5        1.0  0.30830  0.37780  0.61414  1.0000 -0.5837347787
O   O6        1.0  0.69170  0.62220  0.38586  1.0000 -0.5837347787
O   O7        1.0  0.69170  0.87780  0.88586  1.0000 -0.5837347787
O   O8        1.0  0.30830  0.12220  0.11414  1.0000 -0.5837347787
O   O9        1.0  0.69266  0.68027  0.66361  1.0000 -0.5702955108
O   O10       1.0  0.30734  0.31973  0.33639  1.0000 -0.5702955108
O   O11       1.0  0.30734  0.18027  0.83639  1.0000 -0.5702955108
O   O12       1.0  0.69266  0.81973  0.16361  1.0000 -0.5702955108
O   O13       1.0  0.49457  0.71586  0.65754  1.0000 -0.5460896772
O   O14       1.0  0.50543  0.28414  0.34246  1.0000 -0.5460896772
O   O15       1.0  0.50543  0.21586  0.84246  1.0000 -0.5460896772
O   O16       1.0  0.49457  0.78414  0.15754  1.0000 -0.5460896772
