# DDEC6 charges by PACMAN v1.1 (https://github.com/mtap-research/PACMAN-charge/)
data_2012[Zn][sql]2[ASR]2
_chemical_formula_sum              "Zn2 H22 C44 O8"
_cell_length_a       6.8131
_cell_length_b       15.782
_cell_length_c       11.155
_cell_angle_alpha    90
_cell_angle_beta     103.078
_cell_angle_gamma    90

_symmetry_space_group_name_H-M    "P 1"
_symmetry_Int_Tables_number       1

loop_
  _symmetry_equiv_pos_as_xyz
  'x, y, z'

loop_
  _atom_site_type_symbol
  _atom_site_label
  _atom_site_symmetry_multiplicity
  _atom_site_fract_x
  _atom_site_fract_y
  _atom_site_fract_z
  _atom_site_occupancy
  _atom_site_charge
Zn  Zn1       1.0  0.62818  0.50000  0.91045  1.0000 0.9134824111
Zn  Zn2       1.0  0.37182  0.50000  0.08955  1.0000 0.9134824111
H   H1        1.0  0.39640  0.73750  0.73010  1.0000 0.1174136366
H   H2        1.0  0.60360  0.73750  0.26990  1.0000 0.1174136366
H   H3        1.0  0.60360  0.26250  0.26990  1.0000 0.1174136366
H   H4        1.0  0.39640  0.26250  0.73010  1.0000 0.1174136366
H   H5        1.0  0.23250  0.86160  0.65140  1.0000 0.1130627527
H   H6        1.0  0.76750  0.86160  0.34860  1.0000 0.1130627527
H   H7        1.0  0.76750  0.13840  0.34860  1.0000 0.1130627527
H   H8        1.0  0.23250  0.13840  0.65140  1.0000 0.1130627527
H   H9        1.0  0.76730  0.79940  0.80260  1.0000 0.1174136366
H   H10       1.0  0.23270  0.79940  0.19740  1.0000 0.1174136366
H   H11       1.0  0.23270  0.20060  0.19740  1.0000 0.1174136366
H   H12       1.0  0.76730  0.20060  0.80260  1.0000 0.1174136366
H   H13       1.0  0.93730  0.67850  0.88890  1.0000 0.1265742291
H   H14       1.0  0.06270  0.67850  0.11110  1.0000 0.1265742291
H   H15       1.0  0.06270  0.32150  0.11110  1.0000 0.1265742291
H   H16       1.0  0.93730  0.32150  0.88890  1.0000 0.1265742291
H   H17       1.0  0.10310  0.00000  0.75810  1.0000 0.1265742291
H   H18       1.0  0.89690  0.00000  0.24190  1.0000 0.1265742291
H   H19       1.0  0.65180  0.79140  0.57050  1.0000 0.1130627527
H   H20       1.0  0.34820  0.79140  0.42950  1.0000 0.1130627527
H   H21       1.0  0.34820  0.20860  0.42950  1.0000 0.1130627527
H   H22       1.0  0.65180  0.20860  0.57050  1.0000 0.1130627527
C   C1        1.0  0.29540  0.61828  0.87290  1.0000 0.5889967813
C   C2        1.0  0.70460  0.61828  0.12710  1.0000 0.5889967813
C   C3        1.0  0.70460  0.38172  0.12710  1.0000 0.5889967813
C   C4        1.0  0.29540  0.38172  0.87290  1.0000 0.5889967813
C   C5        1.0  0.18180  0.69500  0.81550  1.0000 -0.0290416919
C   C6        1.0  0.81820  0.69500  0.18450  1.0000 -0.0290416919
C   C7        1.0  0.81820  0.30500  0.18450  1.0000 -0.0290416919
C   C8        1.0  0.18180  0.30500  0.81550  1.0000 -0.0290416919
C   C9        1.0  0.26820  0.75040  0.74560  1.0000 -0.1028178183
C   C10       1.0  0.73180  0.75040  0.25440  1.0000 -0.1028178183
C   C11       1.0  0.73180  0.24960  0.25440  1.0000 -0.1028178183
C   C12       1.0  0.26820  0.24960  0.74560  1.0000 -0.1028178183
C   C13       1.0  0.17070  0.82410  0.69830  1.0000 -0.1501371713
C   C14       1.0  0.82930  0.82410  0.30170  1.0000 -0.1501371713
C   C15       1.0  0.82930  0.17590  0.30170  1.0000 -0.1501371713
C   C16       1.0  0.17070  0.17590  0.69830  1.0000 -0.1501371713
C   C17       1.0  0.98310  0.84310  0.71930  1.0000 0.0825732483
C   C18       1.0  0.01690  0.84310  0.28070  1.0000 0.0825732483
C   C19       1.0  0.01690  0.15690  0.28070  1.0000 0.0825732483
C   C20       1.0  0.98310  0.15690  0.71930  1.0000 0.0825732483
C   C21       1.0  0.89710  0.78730  0.78890  1.0000 -0.1501371713
C   C22       1.0  0.10290  0.78730  0.21110  1.0000 -0.1501371713
C   C23       1.0  0.10290  0.21270  0.21110  1.0000 -0.1501371713
C   C24       1.0  0.89710  0.21270  0.78890  1.0000 -0.1501371713
C   C25       1.0  0.99630  0.71470  0.83880  1.0000 -0.0910157782
C   C26       1.0  0.00370  0.71470  0.16120  1.0000 -0.0910157782
C   C27       1.0  0.00370  0.28530  0.16120  1.0000 -0.0910157782
C   C28       1.0  0.99630  0.28530  0.83880  1.0000 -0.0910157782
C   C29       1.0  0.87770  0.92370  0.66790  1.0000 0.0258992503
C   C30       1.0  0.12230  0.92370  0.33210  1.0000 0.0258992503
C   C31       1.0  0.12230  0.07630  0.33210  1.0000 0.0258992503
C   C32       1.0  0.87770  0.07630  0.66790  1.0000 0.0258992503
C   C33       1.0  0.97210  0.00000  0.70570  1.0000 -0.1895015256
C   C34       1.0  0.02790  0.00000  0.29430  1.0000 -0.1895015256
C   C35       1.0  0.68640  0.92112  0.58480  1.0000 0.0197143427
C   C36       1.0  0.31360  0.92112  0.41520  1.0000 0.0197143427
C   C37       1.0  0.31360  0.07888  0.41520  1.0000 0.0197143427
C   C38       1.0  0.68640  0.07888  0.58480  1.0000 0.0197143427
C   C39       1.0  0.59610  0.00000  0.54390  1.0000 -0.015199214
C   C40       1.0  0.40390  0.00000  0.45610  1.0000 -0.013782609
C   C41       1.0  0.58990  0.84370  0.54140  1.0000 -0.1501371713
C   C42       1.0  0.41010  0.84370  0.45860  1.0000 -0.1550287471
C   C43       1.0  0.41010  0.15630  0.45860  1.0000 -0.1550287471
C   C44       1.0  0.58990  0.15630  0.54140  1.0000 -0.1501371713
O   O1        1.0  0.44080  0.59337  0.83220  1.0000 -0.5262519882
O   O2        1.0  0.55920  0.59337  0.16780  1.0000 -0.5262519882
O   O3        1.0  0.55920  0.40663  0.16780  1.0000 -0.5262519882
O   O4        1.0  0.44080  0.40663  0.83220  1.0000 -0.5262519882
O   O5        1.0  0.23990  0.58681  0.96090  1.0000 -0.5207581536
O   O6        1.0  0.76010  0.58681  0.03910  1.0000 -0.5207581536
O   O7        1.0  0.76010  0.41319  0.03910  1.0000 -0.5207581536
O   O8        1.0  0.23990  0.41319  0.96090  1.0000 -0.5207581536
