# DDEC6 charges by PACMAN v1.1 (https://github.com/mtap-research/PACMAN-charge/)
data_2012[Hf][reo]3[ASR]1
_chemical_formula_sum              "Hf36 H48 C240 S72 O144"
_cell_length_a       35.2422
_cell_length_b       35.2422
_cell_length_c       35.2422
_cell_angle_alpha    60
_cell_angle_beta     60
_cell_angle_gamma    60

_symmetry_space_group_name_H-M    "P 1"
_symmetry_Int_Tables_number       1

loop_
  _symmetry_equiv_pos_as_xyz
  'x, y, z'

loop_
  _atom_site_type_symbol
  _atom_site_label
  _atom_site_symmetry_multiplicity
  _atom_site_fract_x
  _atom_site_fract_y
  _atom_site_fract_z
  _atom_site_occupancy
  _atom_site_charge
Hf  Hf1       1.0  0.50000  0.93042  0.50000  1.0000 1.477192606
Hf  Hf2       1.0  0.93042  0.50000  0.50000  1.0000 1.4724025025
Hf  Hf3       1.0  0.93042  0.50000  0.06958  1.0000 1.477192606
Hf  Hf4       1.0  0.50000  0.93042  0.06958  1.0000 1.4901992044
Hf  Hf5       1.0  0.06958  0.50000  0.93042  1.0000 1.477192606
Hf  Hf6       1.0  0.50000  0.06958  0.93042  1.0000 1.477192606
Hf  Hf7       1.0  0.50000  0.06958  0.50000  1.0000 1.477192606
Hf  Hf8       1.0  0.06958  0.50000  0.50000  1.0000 1.477192606
Hf  Hf9       1.0  0.50000  0.50000  0.93042  1.0000 1.477192606
Hf  Hf10      1.0  0.93042  0.06958  0.50000  1.0000 1.477192606
Hf  Hf11      1.0  0.50000  0.50000  0.06958  1.0000 1.477192606
Hf  Hf12      1.0  0.06958  0.93042  0.50000  1.0000 1.477192606
Hf  Hf13      1.0  0.51455  0.03531  0.41483  1.0000 1.5080086484
Hf  Hf14      1.0  0.96469  0.58517  0.48545  1.0000 1.4988399639
Hf  Hf15      1.0  0.03531  0.51455  0.03531  1.0000 1.4901992044
Hf  Hf16      1.0  0.58517  0.96469  0.96469  1.0000 1.4901992044
Hf  Hf17      1.0  0.03531  0.41483  0.03531  1.0000 1.4901992044
Hf  Hf18      1.0  0.48545  0.96469  0.96469  1.0000 1.4901992044
Hf  Hf19      1.0  0.41483  0.03531  0.51455  1.0000 1.4988399639
Hf  Hf20      1.0  0.96469  0.48545  0.58517  1.0000 1.4901992044
Hf  Hf21      1.0  0.41483  0.51455  0.03531  1.0000 1.4901992044
Hf  Hf22      1.0  0.96469  0.96469  0.58517  1.0000 1.4901992044
Hf  Hf23      1.0  0.51455  0.41483  0.03531  1.0000 1.4901992044
Hf  Hf24      1.0  0.96469  0.96469  0.48545  1.0000 1.4988399639
Hf  Hf25      1.0  0.03531  0.03531  0.51455  1.0000 1.4988399639
Hf  Hf26      1.0  0.58517  0.48545  0.96469  1.0000 1.4901992044
Hf  Hf27      1.0  0.03531  0.03531  0.41483  1.0000 1.4901992044
Hf  Hf28      1.0  0.48545  0.58517  0.96469  1.0000 1.4901992044
Hf  Hf29      1.0  0.03531  0.41483  0.51455  1.0000 1.4901992044
Hf  Hf30      1.0  0.58517  0.96469  0.48545  1.0000 1.4988399639
Hf  Hf31      1.0  0.96469  0.48545  0.96469  1.0000 1.4901992044
Hf  Hf32      1.0  0.96469  0.58517  0.96469  1.0000 1.4901992044
Hf  Hf33      1.0  0.48545  0.96469  0.58517  1.0000 1.4901992044
Hf  Hf34      1.0  0.03531  0.51455  0.41483  1.0000 1.4988399639
Hf  Hf35      1.0  0.41483  0.03531  0.03531  1.0000 1.4901992044
Hf  Hf36      1.0  0.51455  0.03531  0.03531  1.0000 1.4901992044
H   H1        1.0  0.51110  0.87590  0.39590  1.0000 0.154544432
H   H2        1.0  0.78290  0.60410  0.48890  1.0000 0.1569182738
H   H3        1.0  0.87590  0.51110  0.21710  1.0000 0.154544432
H   H4        1.0  0.60410  0.78290  0.12410  1.0000 0.1569182738
H   H5        1.0  0.21710  0.39590  0.87590  1.0000 0.1569182738
H   H6        1.0  0.48890  0.12410  0.78290  1.0000 0.1569182738
H   H7        1.0  0.39590  0.21710  0.51110  1.0000 0.154544432
H   H8        1.0  0.12410  0.48890  0.60410  1.0000 0.154544432
H   H9        1.0  0.39590  0.51110  0.87590  1.0000 0.154544432
H   H10       1.0  0.78290  0.12410  0.60410  1.0000 0.154544432
H   H11       1.0  0.51110  0.39590  0.21710  1.0000 0.154544432
H   H12       1.0  0.12410  0.78290  0.48890  1.0000 0.1569182738
H   H13       1.0  0.21710  0.87590  0.51110  1.0000 0.1569182738
H   H14       1.0  0.60410  0.48890  0.78290  1.0000 0.154544432
H   H15       1.0  0.87590  0.21710  0.39590  1.0000 0.154544432
H   H16       1.0  0.48890  0.60410  0.12410  1.0000 0.154544432
H   H17       1.0  0.87590  0.39590  0.51110  1.0000 0.154544432
H   H18       1.0  0.60410  0.12410  0.48890  1.0000 0.1569182738
H   H19       1.0  0.78290  0.48890  0.12410  1.0000 0.154544432
H   H20       1.0  0.12410  0.60410  0.78290  1.0000 0.1569182738
H   H21       1.0  0.48890  0.78290  0.60410  1.0000 0.1569182738
H   H22       1.0  0.21710  0.51110  0.39590  1.0000 0.1569182738
H   H23       1.0  0.39590  0.87590  0.21710  1.0000 0.154544432
H   H24       1.0  0.51110  0.21710  0.87590  1.0000 0.154544432
H   H25       1.0  0.48890  0.12410  0.60410  1.0000 0.1569182738
H   H26       1.0  0.21710  0.39590  0.51110  1.0000 0.154544432
H   H27       1.0  0.12410  0.48890  0.78290  1.0000 0.154544432
H   H28       1.0  0.39590  0.21710  0.87590  1.0000 0.154544432
H   H29       1.0  0.78290  0.60410  0.12410  1.0000 0.154544432
H   H30       1.0  0.51110  0.87590  0.21710  1.0000 0.154544432
H   H31       1.0  0.60410  0.78290  0.48890  1.0000 0.154544432
H   H32       1.0  0.87590  0.51110  0.39590  1.0000 0.154544432
H   H33       1.0  0.60410  0.48890  0.12410  1.0000 0.154544432
H   H34       1.0  0.21710  0.87590  0.39590  1.0000 0.154544432
H   H35       1.0  0.48890  0.60410  0.78290  1.0000 0.1569182738
H   H36       1.0  0.87590  0.21710  0.51110  1.0000 0.154544432
H   H37       1.0  0.78290  0.12410  0.48890  1.0000 0.1569182738
H   H38       1.0  0.39590  0.51110  0.21710  1.0000 0.1569182738
H   H39       1.0  0.12410  0.78290  0.60410  1.0000 0.1569182738
H   H40       1.0  0.51110  0.39590  0.87590  1.0000 0.1569182738
H   H41       1.0  0.12410  0.60410  0.48890  1.0000 0.1569182738
H   H42       1.0  0.39590  0.87590  0.51110  1.0000 0.1569182738
H   H43       1.0  0.21710  0.51110  0.87590  1.0000 0.154544432
H   H44       1.0  0.87590  0.39590  0.21710  1.0000 0.154544432
H   H45       1.0  0.51110  0.21710  0.39590  1.0000 0.154544432
H   H46       1.0  0.78290  0.48890  0.60410  1.0000 0.154544432
H   H47       1.0  0.60410  0.12410  0.78290  1.0000 0.154544432
H   H48       1.0  0.48890  0.78290  0.12410  1.0000 0.154544432
C   C1        1.0  0.51601  0.94001  0.36147  1.0000 -0.1138752213
C   C2        1.0  0.81749  0.63853  0.48399  1.0000 -0.1138752213
C   C3        1.0  0.94001  0.51601  0.18251  1.0000 -0.1138752213
C   C4        1.0  0.63853  0.81749  0.05999  1.0000 -0.1138752213
C   C5        1.0  0.18251  0.36147  0.94001  1.0000 -0.1138752213
C   C6        1.0  0.48399  0.05999  0.81749  1.0000 -0.1138752213
C   C7        1.0  0.36147  0.18251  0.51601  1.0000 -0.1138752213
C   C8        1.0  0.05999  0.48399  0.63853  1.0000 -0.1138752213
C   C9        1.0  0.36147  0.51601  0.94001  1.0000 -0.1138752213
C   C10       1.0  0.81749  0.05999  0.63853  1.0000 -0.1138752213
C   C11       1.0  0.51601  0.36147  0.18251  1.0000 -0.1138752213
C   C12       1.0  0.05999  0.81749  0.48399  1.0000 -0.1138752213
C   C13       1.0  0.18251  0.94001  0.51601  1.0000 -0.1138752213
C   C14       1.0  0.63853  0.48399  0.81749  1.0000 -0.1138752213
C   C15       1.0  0.94001  0.18251  0.36147  1.0000 -0.1138752213
C   C16       1.0  0.48399  0.63853  0.05999  1.0000 -0.1138752213
C   C17       1.0  0.94001  0.36147  0.51601  1.0000 -0.1138752213
C   C18       1.0  0.63853  0.05999  0.48399  1.0000 -0.1138752213
C   C19       1.0  0.81749  0.48399  0.05999  1.0000 -0.1138752213
C   C20       1.0  0.05999  0.63853  0.81749  1.0000 -0.1138752213
C   C21       1.0  0.48399  0.81749  0.63853  1.0000 -0.1138752213
C   C22       1.0  0.18251  0.51601  0.36147  1.0000 -0.1138752213
C   C23       1.0  0.36147  0.94001  0.18251  1.0000 -0.1138752213
C   C24       1.0  0.51601  0.18251  0.94001  1.0000 -0.1138752213
C   C25       1.0  0.48399  0.05999  0.63853  1.0000 -0.1138752213
C   C26       1.0  0.18251  0.36147  0.51601  1.0000 -0.1138752213
C   C27       1.0  0.05999  0.48399  0.81749  1.0000 -0.1138752213
C   C28       1.0  0.36147  0.18251  0.94001  1.0000 -0.1138752213
C   C29       1.0  0.81749  0.63853  0.05999  1.0000 -0.1138752213
C   C30       1.0  0.51601  0.94001  0.18251  1.0000 -0.1138752213
C   C31       1.0  0.63853  0.81749  0.48399  1.0000 -0.1138752213
C   C32       1.0  0.94001  0.51601  0.36147  1.0000 -0.1138752213
C   C33       1.0  0.63853  0.48399  0.05999  1.0000 -0.1138752213
C   C34       1.0  0.18251  0.94001  0.36147  1.0000 -0.1159000055
C   C35       1.0  0.48399  0.63853  0.81749  1.0000 -0.1138752213
C   C36       1.0  0.94001  0.18251  0.51601  1.0000 -0.1138752213
C   C37       1.0  0.81749  0.05999  0.48399  1.0000 -0.1138752213
C   C38       1.0  0.36147  0.51601  0.18251  1.0000 -0.1138752213
C   C39       1.0  0.05999  0.81749  0.63853  1.0000 -0.1138752213
C   C40       1.0  0.51601  0.36147  0.94001  1.0000 -0.1138752213
C   C41       1.0  0.05999  0.63853  0.48399  1.0000 -0.1138752213
C   C42       1.0  0.36147  0.94001  0.51601  1.0000 -0.1138752213
C   C43       1.0  0.18251  0.51601  0.94001  1.0000 -0.1138752213
C   C44       1.0  0.94001  0.36147  0.18251  1.0000 -0.1138752213
C   C45       1.0  0.51601  0.18251  0.36147  1.0000 -0.1138752213
C   C46       1.0  0.81749  0.48399  0.63853  1.0000 -0.1138752213
C   C47       1.0  0.63853  0.05999  0.81749  1.0000 -0.1138752213
C   C48       1.0  0.48399  0.81749  0.05999  1.0000 -0.1138752213
C   C49       1.0  0.51321  0.90061  0.36799  1.0000 -0.1316158044
C   C50       1.0  0.78181  0.63201  0.48679  1.0000 -0.1316158044
C   C51       1.0  0.90061  0.51321  0.21819  1.0000 -0.1316158044
C   C52       1.0  0.63201  0.78181  0.09939  1.0000 -0.1316158044
C   C53       1.0  0.21819  0.36799  0.90061  1.0000 -0.1316158044
C   C54       1.0  0.48679  0.09939  0.78181  1.0000 -0.1316158044
C   C55       1.0  0.36799  0.21819  0.51321  1.0000 -0.1316158044
C   C56       1.0  0.09939  0.48679  0.63201  1.0000 -0.1316158044
C   C57       1.0  0.36799  0.51321  0.90061  1.0000 -0.1316158044
C   C58       1.0  0.78181  0.09939  0.63201  1.0000 -0.1316158044
C   C59       1.0  0.51321  0.36799  0.21819  1.0000 -0.1316158044
C   C60       1.0  0.09939  0.78181  0.48679  1.0000 -0.1316158044
C   C61       1.0  0.21819  0.90061  0.51321  1.0000 -0.1316158044
C   C62       1.0  0.63201  0.48679  0.78181  1.0000 -0.1316158044
C   C63       1.0  0.90061  0.21819  0.36799  1.0000 -0.1316158044
C   C64       1.0  0.48679  0.63201  0.09939  1.0000 -0.1316158044
C   C65       1.0  0.90061  0.36799  0.51321  1.0000 -0.1316158044
C   C66       1.0  0.63201  0.09939  0.48679  1.0000 -0.1316158044
C   C67       1.0  0.78181  0.48679  0.09939  1.0000 -0.1316158044
C   C68       1.0  0.09939  0.63201  0.78181  1.0000 -0.1316158044
C   C69       1.0  0.48679  0.78181  0.63201  1.0000 -0.1316158044
C   C70       1.0  0.21819  0.51321  0.36799  1.0000 -0.1316158044
C   C71       1.0  0.36799  0.90061  0.21819  1.0000 -0.1316158044
C   C72       1.0  0.51321  0.21819  0.90061  1.0000 -0.1316158044
C   C73       1.0  0.48679  0.09939  0.63201  1.0000 -0.1316158044
C   C74       1.0  0.21819  0.36799  0.51321  1.0000 -0.1316158044
C   C75       1.0  0.09939  0.48679  0.78181  1.0000 -0.1316158044
C   C76       1.0  0.36799  0.21819  0.90061  1.0000 -0.1316158044
C   C77       1.0  0.78181  0.63201  0.09939  1.0000 -0.1316158044
C   C78       1.0  0.51321  0.90061  0.21819  1.0000 -0.1316158044
C   C79       1.0  0.63201  0.78181  0.48679  1.0000 -0.1316158044
C   C80       1.0  0.90061  0.51321  0.36799  1.0000 -0.1316158044
C   C81       1.0  0.63201  0.48679  0.09939  1.0000 -0.1316158044
C   C82       1.0  0.21819  0.90061  0.36799  1.0000 -0.1316158044
C   C83       1.0  0.48679  0.63201  0.78181  1.0000 -0.1316158044
C   C84       1.0  0.90061  0.21819  0.51321  1.0000 -0.1316158044
C   C85       1.0  0.78181  0.09939  0.48679  1.0000 -0.1316158044
C   C86       1.0  0.36799  0.51321  0.21819  1.0000 -0.1316158044
C   C87       1.0  0.09939  0.78181  0.63201  1.0000 -0.1316158044
C   C88       1.0  0.51321  0.36799  0.90061  1.0000 -0.1316158044
C   C89       1.0  0.09939  0.63201  0.48679  1.0000 -0.1316158044
C   C90       1.0  0.36799  0.90061  0.51321  1.0000 -0.1316158044
C   C91       1.0  0.21819  0.51321  0.90061  1.0000 -0.1316158044
C   C92       1.0  0.90061  0.36799  0.21819  1.0000 -0.1316158044
C   C93       1.0  0.51321  0.21819  0.36799  1.0000 -0.1316158044
C   C94       1.0  0.78181  0.48679  0.63201  1.0000 -0.1316158044
C   C95       1.0  0.63201  0.09939  0.78181  1.0000 -0.1316158044
C   C96       1.0  0.48679  0.78181  0.09939  1.0000 -0.1316158044
C   C97       1.0  0.51390  0.90128  0.32710  1.0000 -0.0121862476
C   C98       1.0  0.74228  0.67290  0.48610  1.0000 -0.0121862476
C   C99       1.0  0.90128  0.51390  0.25772  1.0000 -0.0121862476
C   C100      1.0  0.67290  0.74228  0.09872  1.0000 -0.0121862476
C   C101      1.0  0.25772  0.32710  0.90128  1.0000 -0.0121862476
C   C102      1.0  0.48610  0.09872  0.74228  1.0000 -0.0121862476
C   C103      1.0  0.32710  0.25772  0.51390  1.0000 -0.0121862476
C   C104      1.0  0.09872  0.48610  0.67290  1.0000 -0.0121862476
C   C105      1.0  0.32710  0.51390  0.90128  1.0000 -0.0121862476
C   C106      1.0  0.74228  0.09872  0.67290  1.0000 -0.0121862476
C   C107      1.0  0.51390  0.32710  0.25772  1.0000 -0.0121862476
C   C108      1.0  0.09872  0.74228  0.48610  1.0000 -0.0121862476
C   C109      1.0  0.25772  0.90128  0.51390  1.0000 -0.0121862476
C   C110      1.0  0.67290  0.48610  0.74228  1.0000 -0.0121862476
C   C111      1.0  0.90128  0.25772  0.32710  1.0000 -0.0121862476
C   C112      1.0  0.48610  0.67290  0.09872  1.0000 -0.0121862476
C   C113      1.0  0.90128  0.32710  0.51390  1.0000 -0.0121862476
C   C114      1.0  0.67290  0.09872  0.48610  1.0000 -0.0176515172
C   C115      1.0  0.74228  0.48610  0.09872  1.0000 -0.0121862476
C   C116      1.0  0.09872  0.67290  0.74228  1.0000 -0.0121862476
C   C117      1.0  0.48610  0.74228  0.67290  1.0000 -0.0121862476
C   C118      1.0  0.25772  0.51390  0.32710  1.0000 -0.0176515172
C   C119      1.0  0.32710  0.90128  0.25772  1.0000 -0.0121862476
C   C120      1.0  0.51390  0.25772  0.90128  1.0000 -0.0121862476
C   C121      1.0  0.48610  0.09872  0.67290  1.0000 -0.0121862476
C   C122      1.0  0.25772  0.32710  0.51390  1.0000 -0.0121862476
C   C123      1.0  0.09872  0.48610  0.74228  1.0000 -0.0121862476
C   C124      1.0  0.32710  0.25772  0.90128  1.0000 -0.0121862476
C   C125      1.0  0.74228  0.67290  0.09872  1.0000 -0.0121862476
C   C126      1.0  0.51390  0.90128  0.25772  1.0000 -0.0121862476
C   C127      1.0  0.67290  0.74228  0.48610  1.0000 -0.0121862476
C   C128      1.0  0.90128  0.51390  0.32710  1.0000 -0.0121862476
C   C129      1.0  0.67290  0.48610  0.09872  1.0000 -0.0121862476
C   C130      1.0  0.25772  0.90128  0.32710  1.0000 -0.0121862476
C   C131      1.0  0.48610  0.67290  0.74228  1.0000 -0.0121862476
C   C132      1.0  0.90128  0.25772  0.51390  1.0000 -0.0121862476
C   C133      1.0  0.74228  0.09872  0.48610  1.0000 -0.0176515172
C   C134      1.0  0.32710  0.51390  0.25772  1.0000 -0.0176515172
C   C135      1.0  0.09872  0.74228  0.67290  1.0000 -0.0121862476
C   C136      1.0  0.51390  0.32710  0.90128  1.0000 -0.0121862476
C   C137      1.0  0.09872  0.67290  0.48610  1.0000 -0.0121862476
C   C138      1.0  0.32710  0.90128  0.51390  1.0000 -0.0121862476
C   C139      1.0  0.25772  0.51390  0.90128  1.0000 -0.0121862476
C   C140      1.0  0.90128  0.32710  0.25772  1.0000 -0.0121862476
C   C141      1.0  0.51390  0.25772  0.32710  1.0000 -0.0121862476
C   C142      1.0  0.74228  0.48610  0.67290  1.0000 -0.0121862476
C   C143      1.0  0.67290  0.09872  0.74228  1.0000 -0.0121862476
C   C144      1.0  0.48610  0.74228  0.09872  1.0000 -0.0121862476
C   C145      1.0  0.51585  0.95307  0.39545  1.0000 0.5979674205
C   C146      1.0  0.86437  0.60455  0.48415  1.0000 0.5935768397
C   C147      1.0  0.95307  0.51585  0.13563  1.0000 0.5935768397
C   C148      1.0  0.60455  0.86437  0.04693  1.0000 0.5935768397
C   C149      1.0  0.13563  0.39545  0.95307  1.0000 0.5935768397
C   C150      1.0  0.48415  0.04693  0.86437  1.0000 0.5935768397
C   C151      1.0  0.39545  0.13563  0.51585  1.0000 0.5935768397
C   C152      1.0  0.04693  0.48415  0.60455  1.0000 0.5979674205
C   C153      1.0  0.39545  0.51585  0.95307  1.0000 0.5935768397
C   C154      1.0  0.86437  0.04693  0.60455  1.0000 0.5935768397
C   C155      1.0  0.51585  0.39545  0.13563  1.0000 0.5935768397
C   C156      1.0  0.04693  0.86437  0.48415  1.0000 0.5979674205
C   C157      1.0  0.13563  0.95307  0.51585  1.0000 0.5935768397
C   C158      1.0  0.60455  0.48415  0.86437  1.0000 0.5979674205
C   C159      1.0  0.95307  0.13563  0.39545  1.0000 0.5979674205
C   C160      1.0  0.48415  0.60455  0.04693  1.0000 0.5935768397
C   C161      1.0  0.95307  0.39545  0.51585  1.0000 0.5935768397
C   C162      1.0  0.60455  0.04693  0.48415  1.0000 0.5935768397
C   C163      1.0  0.86437  0.48415  0.04693  1.0000 0.5935768397
C   C164      1.0  0.04693  0.60455  0.86437  1.0000 0.5935768397
C   C165      1.0  0.48415  0.86437  0.60455  1.0000 0.5935768397
C   C166      1.0  0.13563  0.51585  0.39545  1.0000 0.5979674205
C   C167      1.0  0.39545  0.95307  0.13563  1.0000 0.5935768397
C   C168      1.0  0.51585  0.13563  0.95307  1.0000 0.5935768397
C   C169      1.0  0.48415  0.04693  0.60455  1.0000 0.5935768397
C   C170      1.0  0.13563  0.39545  0.51585  1.0000 0.5935768397
C   C171      1.0  0.04693  0.48415  0.86437  1.0000 0.5979674205
C   C172      1.0  0.39545  0.13563  0.95307  1.0000 0.5935768397
C   C173      1.0  0.86437  0.60455  0.04693  1.0000 0.5935768397
C   C174      1.0  0.51585  0.95307  0.13563  1.0000 0.5935768397
C   C175      1.0  0.60455  0.86437  0.48415  1.0000 0.5979674205
C   C176      1.0  0.95307  0.51585  0.39545  1.0000 0.5979674205
C   C177      1.0  0.60455  0.48415  0.04693  1.0000 0.5935768397
C   C178      1.0  0.13563  0.95307  0.39545  1.0000 0.5979674205
C   C179      1.0  0.48415  0.60455  0.86437  1.0000 0.5935768397
C   C180      1.0  0.95307  0.13563  0.51585  1.0000 0.5935768397
C   C181      1.0  0.86437  0.04693  0.48415  1.0000 0.5935768397
C   C182      1.0  0.39545  0.51585  0.13563  1.0000 0.5935768397
C   C183      1.0  0.04693  0.86437  0.60455  1.0000 0.5979674205
C   C184      1.0  0.51585  0.39545  0.95307  1.0000 0.5935768397
C   C185      1.0  0.04693  0.60455  0.48415  1.0000 0.5935768397
C   C186      1.0  0.39545  0.95307  0.51585  1.0000 0.5935768397
C   C187      1.0  0.13563  0.51585  0.95307  1.0000 0.5935768397
C   C188      1.0  0.95307  0.39545  0.13563  1.0000 0.5935768397
C   C189      1.0  0.51585  0.13563  0.39545  1.0000 0.5935768397
C   C190      1.0  0.86437  0.48415  0.60455  1.0000 0.5935768397
C   C191      1.0  0.60455  0.04693  0.86437  1.0000 0.5935768397
C   C192      1.0  0.48415  0.86437  0.04693  1.0000 0.5979674205
C   C193      1.0  0.51848  0.94064  0.29076  1.0000 -0.0937398657
C   C194      1.0  0.74988  0.70924  0.48152  1.0000 -0.0937398657
C   C195      1.0  0.94064  0.51848  0.25012  1.0000 -0.0937398657
C   C196      1.0  0.70924  0.74988  0.05936  1.0000 -0.0937398657
C   C197      1.0  0.25012  0.29076  0.94064  1.0000 -0.0937398657
C   C198      1.0  0.48152  0.05936  0.74988  1.0000 -0.0937398657
C   C199      1.0  0.29076  0.25012  0.51848  1.0000 -0.0937398657
C   C200      1.0  0.05936  0.48152  0.70924  1.0000 -0.0937398657
C   C201      1.0  0.29076  0.51848  0.94064  1.0000 -0.0937398657
C   C202      1.0  0.74988  0.05936  0.70924  1.0000 -0.0952691477
C   C203      1.0  0.51848  0.29076  0.25012  1.0000 -0.0952691477
C   C204      1.0  0.05936  0.74988  0.48152  1.0000 -0.0937398657
C   C205      1.0  0.25012  0.94064  0.51848  1.0000 -0.0937398657
C   C206      1.0  0.70924  0.48152  0.74988  1.0000 -0.0937398657
C   C207      1.0  0.94064  0.25012  0.29076  1.0000 -0.0952691477
C   C208      1.0  0.48152  0.70924  0.05936  1.0000 -0.0937398657
C   C209      1.0  0.94064  0.29076  0.51848  1.0000 -0.0937398657
C   C210      1.0  0.70924  0.05936  0.48152  1.0000 -0.0937398657
C   C211      1.0  0.74988  0.48152  0.05936  1.0000 -0.0937398657
C   C212      1.0  0.05936  0.70924  0.74988  1.0000 -0.0952691477
C   C213      1.0  0.48152  0.74988  0.70924  1.0000 -0.0952691477
C   C214      1.0  0.25012  0.51848  0.29076  1.0000 -0.0937398657
C   C215      1.0  0.29076  0.94064  0.25012  1.0000 -0.0952691477
C   C216      1.0  0.51848  0.25012  0.94064  1.0000 -0.0937398657
C   C217      1.0  0.48152  0.05936  0.70924  1.0000 -0.0952691477
C   C218      1.0  0.25012  0.29076  0.51848  1.0000 -0.0937398657
C   C219      1.0  0.05936  0.48152  0.74988  1.0000 -0.0952691477
C   C220      1.0  0.29076  0.25012  0.94064  1.0000 -0.0952691477
C   C221      1.0  0.74988  0.70924  0.05936  1.0000 -0.0937398657
C   C222      1.0  0.51848  0.94064  0.25012  1.0000 -0.0952691477
C   C223      1.0  0.70924  0.74988  0.48152  1.0000 -0.0937398657
C   C224      1.0  0.94064  0.51848  0.29076  1.0000 -0.0937398657
C   C225      1.0  0.70924  0.48152  0.05936  1.0000 -0.0937398657
C   C226      1.0  0.25012  0.94064  0.29076  1.0000 -0.0952691477
C   C227      1.0  0.48152  0.70924  0.74988  1.0000 -0.0937398657
C   C228      1.0  0.94064  0.25012  0.51848  1.0000 -0.0937398657
C   C229      1.0  0.74988  0.05936  0.48152  1.0000 -0.0937398657
C   C230      1.0  0.29076  0.51848  0.25012  1.0000 -0.0937398657
C   C231      1.0  0.05936  0.74988  0.70924  1.0000 -0.0952691477
C   C232      1.0  0.51848  0.29076  0.94064  1.0000 -0.0937398657
C   C233      1.0  0.05936  0.70924  0.48152  1.0000 -0.0937398657
C   C234      1.0  0.29076  0.94064  0.51848  1.0000 -0.0937398657
C   C235      1.0  0.25012  0.51848  0.94064  1.0000 -0.0937398657
C   C236      1.0  0.94064  0.29076  0.25012  1.0000 -0.0952691477
C   C237      1.0  0.51848  0.25012  0.29076  1.0000 -0.0952691477
C   C238      1.0  0.74988  0.48152  0.70924  1.0000 -0.0937398657
C   C239      1.0  0.70924  0.05936  0.74988  1.0000 -0.0937398657
C   C240      1.0  0.48152  0.74988  0.05936  1.0000 -0.0937398657
S   S1        1.0  0.50747  0.86331  0.31461  1.0000 0.0868697572
S   S2        1.0  0.68539  0.68539  0.49253  1.0000 0.0868697572
S   S3        1.0  0.86331  0.50747  0.31461  1.0000 0.0868697572
S   S4        1.0  0.68539  0.68539  0.13669  1.0000 0.0868697572
S   S5        1.0  0.31461  0.31461  0.86331  1.0000 0.0868697572
S   S6        1.0  0.49253  0.13669  0.68539  1.0000 0.0868697572
S   S7        1.0  0.31461  0.31461  0.50747  1.0000 0.0868697572
S   S8        1.0  0.13669  0.49253  0.68539  1.0000 0.0868697572
S   S9        1.0  0.31461  0.50747  0.86331  1.0000 0.0868697572
S   S10       1.0  0.68539  0.13669  0.68539  1.0000 0.0846027348
S   S11       1.0  0.50747  0.31461  0.31461  1.0000 0.0846027348
S   S12       1.0  0.13669  0.68539  0.49253  1.0000 0.0868697572
S   S13       1.0  0.31461  0.86331  0.50747  1.0000 0.0868697572
S   S14       1.0  0.68539  0.49253  0.68539  1.0000 0.0868697572
S   S15       1.0  0.86331  0.31461  0.31461  1.0000 0.0846027348
S   S16       1.0  0.49253  0.68539  0.13669  1.0000 0.0868697572
S   S17       1.0  0.86331  0.31461  0.50747  1.0000 0.0868697572
S   S18       1.0  0.68539  0.13669  0.49253  1.0000 0.0868697572
S   S19       1.0  0.68539  0.49253  0.13669  1.0000 0.0846027348
S   S20       1.0  0.13669  0.68539  0.68539  1.0000 0.0868697572
S   S21       1.0  0.49253  0.68539  0.68539  1.0000 0.0868697572
S   S22       1.0  0.31461  0.50747  0.31461  1.0000 0.0868697572
S   S23       1.0  0.31461  0.86331  0.31461  1.0000 0.0868697572
S   S24       1.0  0.50747  0.31461  0.86331  1.0000 0.0868697572
S   S25       1.0  0.52286  0.97808  0.30474  1.0000 0.154544432
S   S26       1.0  0.80568  0.69526  0.47714  1.0000 0.1569182738
S   S27       1.0  0.97808  0.52286  0.19432  1.0000 0.1569182738
S   S28       1.0  0.69526  0.80568  0.02192  1.0000 0.1569182738
S   S29       1.0  0.19432  0.30474  0.97808  1.0000 0.1569182738
S   S30       1.0  0.47714  0.02192  0.80568  1.0000 0.154544432
S   S31       1.0  0.30474  0.19432  0.52286  1.0000 0.1569182738
S   S32       1.0  0.02192  0.47714  0.69526  1.0000 0.154544432
S   S33       1.0  0.30474  0.52286  0.97808  1.0000 0.1569182738
S   S34       1.0  0.80568  0.02192  0.69526  1.0000 0.154544432
S   S35       1.0  0.52286  0.30474  0.19432  1.0000 0.1569182738
S   S36       1.0  0.02192  0.80568  0.47714  1.0000 0.1569182738
S   S37       1.0  0.19432  0.97808  0.52286  1.0000 0.1569182738
S   S38       1.0  0.69526  0.47714  0.80568  1.0000 0.1569182738
S   S39       1.0  0.97808  0.19432  0.30474  1.0000 0.154544432
S   S40       1.0  0.47714  0.69526  0.02192  1.0000 0.1569182738
S   S41       1.0  0.97808  0.30474  0.52286  1.0000 0.1569182738
S   S42       1.0  0.69526  0.02192  0.47714  1.0000 0.1569182738
S   S43       1.0  0.80568  0.47714  0.02192  1.0000 0.1569182738
S   S44       1.0  0.02192  0.69526  0.80568  1.0000 0.1569182738
S   S45       1.0  0.47714  0.80568  0.69526  1.0000 0.1569182738
S   S46       1.0  0.19432  0.52286  0.30474  1.0000 0.1569182738
S   S47       1.0  0.30474  0.97808  0.19432  1.0000 0.1569182738
S   S48       1.0  0.52286  0.19432  0.97808  1.0000 0.1569182738
S   S49       1.0  0.47714  0.02192  0.69526  1.0000 0.154544432
S   S50       1.0  0.19432  0.30474  0.52286  1.0000 0.1569182738
S   S51       1.0  0.02192  0.47714  0.80568  1.0000 0.154544432
S   S52       1.0  0.30474  0.19432  0.97808  1.0000 0.1569182738
S   S53       1.0  0.80568  0.69526  0.02192  1.0000 0.1569182738
S   S54       1.0  0.52286  0.97808  0.19432  1.0000 0.1569182738
S   S55       1.0  0.69526  0.80568  0.47714  1.0000 0.1569182738
S   S56       1.0  0.97808  0.52286  0.30474  1.0000 0.1569182738
S   S57       1.0  0.69526  0.47714  0.02192  1.0000 0.1569182738
S   S58       1.0  0.19432  0.97808  0.30474  1.0000 0.154544432
S   S59       1.0  0.47714  0.69526  0.80568  1.0000 0.1569182738
S   S60       1.0  0.97808  0.19432  0.52286  1.0000 0.1569182738
S   S61       1.0  0.80568  0.02192  0.47714  1.0000 0.1569182738
S   S62       1.0  0.30474  0.52286  0.19432  1.0000 0.1569182738
S   S63       1.0  0.02192  0.80568  0.69526  1.0000 0.154544432
S   S64       1.0  0.52286  0.30474  0.97808  1.0000 0.1569182738
S   S65       1.0  0.02192  0.69526  0.47714  1.0000 0.1569182738
S   S66       1.0  0.30474  0.97808  0.52286  1.0000 0.1569182738
S   S67       1.0  0.19432  0.52286  0.97808  1.0000 0.1569182738
S   S68       1.0  0.97808  0.30474  0.19432  1.0000 0.1569182738
S   S69       1.0  0.52286  0.19432  0.30474  1.0000 0.154544432
S   S70       1.0  0.80568  0.47714  0.69526  1.0000 0.1569182738
S   S71       1.0  0.69526  0.02192  0.80568  1.0000 0.154544432
S   S72       1.0  0.47714  0.80568  0.02192  1.0000 0.1569182738
O   O1        1.0  0.46503  0.00103  0.46503  1.0000 -0.7188472008
O   O2        1.0  0.93109  0.53497  0.53497  1.0000 -0.7188472008
O   O3        1.0  0.00103  0.46503  0.06891  1.0000 -0.7188472008
O   O4        1.0  0.53497  0.93109  0.99897  1.0000 -0.7188472008
O   O5        1.0  0.06891  0.46503  0.00103  1.0000 -0.7188472008
O   O6        1.0  0.53497  0.99897  0.93109  1.0000 -0.7188472008
O   O7        1.0  0.46503  0.06891  0.46503  1.0000 -0.7188472008
O   O8        1.0  0.99897  0.53497  0.53497  1.0000 -0.7188472008
O   O9        1.0  0.46503  0.46503  0.00103  1.0000 -0.7188472008
O   O10       1.0  0.93109  0.99897  0.53497  1.0000 -0.7188472008
O   O11       1.0  0.46503  0.46503  0.06891  1.0000 -0.7188472008
O   O12       1.0  0.99897  0.93109  0.53497  1.0000 -0.7188472008
O   O13       1.0  0.06891  0.00103  0.46503  1.0000 -0.7188472008
O   O14       1.0  0.53497  0.53497  0.93109  1.0000 -0.7188472008
O   O15       1.0  0.00103  0.06891  0.46503  1.0000 -0.7188472008
O   O16       1.0  0.53497  0.53497  0.99897  1.0000 -0.7188472008
O   O17       1.0  0.00103  0.46503  0.46503  1.0000 -0.7188472008
O   O18       1.0  0.53497  0.99897  0.53497  1.0000 -0.7188472008
O   O19       1.0  0.93109  0.53497  0.99897  1.0000 -0.7188472008
O   O20       1.0  0.99897  0.53497  0.93109  1.0000 -0.7188472008
O   O21       1.0  0.53497  0.93109  0.53497  1.0000 -0.7188472008
O   O22       1.0  0.06891  0.46503  0.46503  1.0000 -0.7188472008
O   O23       1.0  0.46503  0.00103  0.06891  1.0000 -0.7188472008
O   O24       1.0  0.46503  0.06891  0.00103  1.0000 -0.7188472008
O   O25       1.0  0.51084  0.92454  0.43596  1.0000 -0.4769878519
O   O26       1.0  0.87134  0.56404  0.48916  1.0000 -0.4740687416
O   O27       1.0  0.92454  0.51084  0.12866  1.0000 -0.4769878519
O   O28       1.0  0.56404  0.87134  0.07546  1.0000 -0.4769878519
O   O29       1.0  0.12866  0.43596  0.92454  1.0000 -0.4769878519
O   O30       1.0  0.48916  0.07546  0.87134  1.0000 -0.4769878519
O   O31       1.0  0.43596  0.12866  0.51084  1.0000 -0.4769878519
O   O32       1.0  0.07546  0.48916  0.56404  1.0000 -0.4769878519
O   O33       1.0  0.43596  0.51084  0.92454  1.0000 -0.4769878519
O   O34       1.0  0.87134  0.07546  0.56404  1.0000 -0.4769878519
O   O35       1.0  0.51084  0.43596  0.12866  1.0000 -0.4769878519
O   O36       1.0  0.07546  0.87134  0.48916  1.0000 -0.4769878519
O   O37       1.0  0.12866  0.92454  0.51084  1.0000 -0.4769878519
O   O38       1.0  0.56404  0.48916  0.87134  1.0000 -0.4769878519
O   O39       1.0  0.92454  0.12866  0.43596  1.0000 -0.4769878519
O   O40       1.0  0.48916  0.56404  0.07546  1.0000 -0.4769878519
O   O41       1.0  0.92454  0.43596  0.51084  1.0000 -0.4740687416
O   O42       1.0  0.56404  0.07546  0.48916  1.0000 -0.4769878519
O   O43       1.0  0.87134  0.48916  0.07546  1.0000 -0.4769878519
O   O44       1.0  0.07546  0.56404  0.87134  1.0000 -0.4769878519
O   O45       1.0  0.48916  0.87134  0.56404  1.0000 -0.4769878519
O   O46       1.0  0.12866  0.51084  0.43596  1.0000 -0.4769878519
O   O47       1.0  0.43596  0.92454  0.12866  1.0000 -0.4769878519
O   O48       1.0  0.51084  0.12866  0.92454  1.0000 -0.4769878519
O   O49       1.0  0.48916  0.07546  0.56404  1.0000 -0.4769878519
O   O50       1.0  0.12866  0.43596  0.51084  1.0000 -0.4769878519
O   O51       1.0  0.07546  0.48916  0.87134  1.0000 -0.4769878519
O   O52       1.0  0.43596  0.12866  0.92454  1.0000 -0.4769878519
O   O53       1.0  0.87134  0.56404  0.07546  1.0000 -0.4769878519
O   O54       1.0  0.51084  0.92454  0.12866  1.0000 -0.4769878519
O   O55       1.0  0.56404  0.87134  0.48916  1.0000 -0.4769878519
O   O56       1.0  0.92454  0.51084  0.43596  1.0000 -0.4740687416
O   O57       1.0  0.56404  0.48916  0.07546  1.0000 -0.4769878519
O   O58       1.0  0.12866  0.92454  0.43596  1.0000 -0.4769878519
O   O59       1.0  0.48916  0.56404  0.87134  1.0000 -0.4769878519
O   O60       1.0  0.92454  0.12866  0.51084  1.0000 -0.4769878519
O   O61       1.0  0.87134  0.07546  0.48916  1.0000 -0.4769878519
O   O62       1.0  0.43596  0.51084  0.12866  1.0000 -0.4769878519
O   O63       1.0  0.07546  0.87134  0.56404  1.0000 -0.4769878519
O   O64       1.0  0.51084  0.43596  0.92454  1.0000 -0.4769878519
O   O65       1.0  0.07546  0.56404  0.48916  1.0000 -0.4769878519
O   O66       1.0  0.43596  0.92454  0.51084  1.0000 -0.4769878519
O   O67       1.0  0.12866  0.51084  0.92454  1.0000 -0.4769878519
O   O68       1.0  0.92454  0.43596  0.12866  1.0000 -0.4769878519
O   O69       1.0  0.51084  0.12866  0.43596  1.0000 -0.4769878519
O   O70       1.0  0.87134  0.48916  0.56404  1.0000 -0.4740687416
O   O71       1.0  0.56404  0.07546  0.87134  1.0000 -0.4769878519
O   O72       1.0  0.48916  0.87134  0.07546  1.0000 -0.4769878519
O   O73       1.0  0.52010  0.99192  0.38080  1.0000 -0.5177967964
O   O74       1.0  0.89282  0.61920  0.47990  1.0000 -0.5177967964
O   O75       1.0  0.99192  0.52010  0.10718  1.0000 -0.5177967964
O   O76       1.0  0.61920  0.89282  0.00808  1.0000 -0.5177967964
O   O77       1.0  0.10718  0.38080  0.99192  1.0000 -0.5177967964
O   O78       1.0  0.47990  0.00808  0.89282  1.0000 -0.5177967964
O   O79       1.0  0.38080  0.10718  0.52010  1.0000 -0.5177967964
O   O80       1.0  0.00808  0.47990  0.61920  1.0000 -0.5177967964
O   O81       1.0  0.38080  0.52010  0.99192  1.0000 -0.5177967964
O   O82       1.0  0.89282  0.00808  0.61920  1.0000 -0.5177967964
O   O83       1.0  0.52010  0.38080  0.10718  1.0000 -0.5177967964
O   O84       1.0  0.00808  0.89282  0.47990  1.0000 -0.5177967964
O   O85       1.0  0.10718  0.99192  0.52010  1.0000 -0.5177967964
O   O86       1.0  0.61920  0.47990  0.89282  1.0000 -0.5177967964
O   O87       1.0  0.99192  0.10718  0.38080  1.0000 -0.5177967964
O   O88       1.0  0.47990  0.61920  0.00808  1.0000 -0.5177967964
O   O89       1.0  0.99192  0.38080  0.52010  1.0000 -0.5177967964
O   O90       1.0  0.61920  0.00808  0.47990  1.0000 -0.5177967964
O   O91       1.0  0.89282  0.47990  0.00808  1.0000 -0.5177967964
O   O92       1.0  0.00808  0.61920  0.89282  1.0000 -0.5177967964
O   O93       1.0  0.47990  0.89282  0.61920  1.0000 -0.5177967964
O   O94       1.0  0.10718  0.52010  0.38080  1.0000 -0.5177967964
O   O95       1.0  0.38080  0.99192  0.10718  1.0000 -0.5177967964
O   O96       1.0  0.52010  0.10718  0.99192  1.0000 -0.5177967964
O   O97       1.0  0.47990  0.00808  0.61920  1.0000 -0.5177967964
O   O98       1.0  0.10718  0.38080  0.52010  1.0000 -0.5177967964
O   O99       1.0  0.00808  0.47990  0.89282  1.0000 -0.5177967964
O   O100      1.0  0.38080  0.10718  0.99192  1.0000 -0.5177967964
O   O101      1.0  0.89282  0.61920  0.00808  1.0000 -0.5177967964
O   O102      1.0  0.52010  0.99192  0.10718  1.0000 -0.5177967964
O   O103      1.0  0.61920  0.89282  0.47990  1.0000 -0.5177967964
O   O104      1.0  0.99192  0.52010  0.38080  1.0000 -0.5177967964
O   O105      1.0  0.61920  0.47990  0.00808  1.0000 -0.5177967964
O   O106      1.0  0.10718  0.99192  0.38080  1.0000 -0.5177967964
O   O107      1.0  0.47990  0.61920  0.89282  1.0000 -0.5177967964
O   O108      1.0  0.99192  0.10718  0.52010  1.0000 -0.5177967964
O   O109      1.0  0.89282  0.00808  0.47990  1.0000 -0.5177967964
O   O110      1.0  0.38080  0.52010  0.10718  1.0000 -0.5177967964
O   O111      1.0  0.00808  0.89282  0.61920  1.0000 -0.5177967964
O   O112      1.0  0.52010  0.38080  0.99192  1.0000 -0.5177967964
O   O113      1.0  0.00808  0.61920  0.47990  1.0000 -0.5177967964
O   O114      1.0  0.38080  0.99192  0.52010  1.0000 -0.5177967964
O   O115      1.0  0.10718  0.52010  0.99192  1.0000 -0.5177967964
O   O116      1.0  0.99192  0.38080  0.10718  1.0000 -0.5177967964
O   O117      1.0  0.52010  0.10718  0.38080  1.0000 -0.5177967964
O   O118      1.0  0.89282  0.47990  0.61920  1.0000 -0.5177967964
O   O119      1.0  0.61920  0.00808  0.89282  1.0000 -0.5177967964
O   O120      1.0  0.47990  0.89282  0.00808  1.0000 -0.5177967964
O   O121      1.0  0.45087  0.96597  0.54913  1.0000 -0.7188472008
O   O122      1.0  0.96597  0.45087  0.54913  1.0000 -0.7188472008
O   O123      1.0  0.96597  0.45087  0.03403  1.0000 -0.7188472008
O   O124      1.0  0.45087  0.96597  0.03403  1.0000 -0.7188472008
O   O125      1.0  0.03403  0.54913  0.96597  1.0000 -0.7188472008
O   O126      1.0  0.54913  0.03403  0.96597  1.0000 -0.7188472008
O   O127      1.0  0.54913  0.03403  0.45087  1.0000 -0.7188472008
O   O128      1.0  0.03403  0.54913  0.45087  1.0000 -0.7188472008
O   O129      1.0  0.54913  0.45087  0.96597  1.0000 -0.7188472008
O   O130      1.0  0.96597  0.03403  0.45087  1.0000 -0.7188472008
O   O131      1.0  0.45087  0.54913  0.03403  1.0000 -0.7188472008
O   O132      1.0  0.03403  0.96597  0.54913  1.0000 -0.7188472008
O   O133      1.0  0.03403  0.96597  0.45087  1.0000 -0.7188472008
O   O134      1.0  0.45087  0.54913  0.96597  1.0000 -0.7188472008
O   O135      1.0  0.96597  0.03403  0.54913  1.0000 -0.7188472008
O   O136      1.0  0.54913  0.45087  0.03403  1.0000 -0.7188472008
O   O137      1.0  0.96597  0.54913  0.45087  1.0000 -0.7188472008
O   O138      1.0  0.45087  0.03403  0.54913  1.0000 -0.7188472008
O   O139      1.0  0.96597  0.54913  0.03403  1.0000 -0.7188472008
O   O140      1.0  0.03403  0.45087  0.96597  1.0000 -0.7188472008
O   O141      1.0  0.54913  0.96597  0.45087  1.0000 -0.7188472008
O   O142      1.0  0.03403  0.45087  0.54913  1.0000 -0.7188472008
O   O143      1.0  0.54913  0.96597  0.03403  1.0000 -0.7188472008
O   O144      1.0  0.45087  0.03403  0.96597  1.0000 -0.7188472008
