# DDEC6 charges by PACMAN v1.1 (https://github.com/mtap-research/PACMAN-charge/)
data_2012[Pr][seh]3[ASR]1
_chemical_formula_sum              "Pr6 H90 C162 O36"
_cell_length_a       16.4393
_cell_length_b       16.4393
_cell_length_c       23.777
_cell_angle_alpha    90
_cell_angle_beta     90
_cell_angle_gamma    120

_symmetry_space_group_name_H-M    "P 1"
_symmetry_Int_Tables_number       1

loop_
  _symmetry_equiv_pos_as_xyz
  'x, y, z'

loop_
  _atom_site_type_symbol
  _atom_site_label
  _atom_site_symmetry_multiplicity
  _atom_site_fract_x
  _atom_site_fract_y
  _atom_site_fract_z
  _atom_site_occupancy
  _atom_site_charge
Pr  Pr1       1.0  0.91567  0.00000  0.00000  1.0000 2.0924795115
Pr  Pr2       1.0  0.00000  0.91567  0.33333  1.0000 2.0924795115
Pr  Pr3       1.0  0.08433  0.08433  0.66667  1.0000 2.0924795115
Pr  Pr4       1.0  0.08433  0.00000  0.50000  1.0000 2.0924795115
Pr  Pr5       1.0  0.00000  0.08433  0.83333  1.0000 2.0924795115
Pr  Pr6       1.0  0.91567  0.91567  0.16667  1.0000 2.0924795115
H   H1        1.0  0.88910  0.70120  0.09100  1.0000 0.1303641355
H   H2        1.0  0.29880  0.18790  0.42433  1.0000 0.1303641355
H   H3        1.0  0.81210  0.11090  0.75767  1.0000 0.1303641355
H   H4        1.0  0.11090  0.29880  0.59100  1.0000 0.1303641355
H   H5        1.0  0.70120  0.81210  0.92433  1.0000 0.1303641355
H   H6        1.0  0.18790  0.88910  0.25767  1.0000 0.1303641355
H   H7        1.0  0.70120  0.88910  0.24233  1.0000 0.1303641355
H   H8        1.0  0.18790  0.29880  0.90900  1.0000 0.1303641355
H   H9        1.0  0.11090  0.81210  0.57567  1.0000 0.1303641355
H   H10       1.0  0.29880  0.11090  0.74233  1.0000 0.1303641355
H   H11       1.0  0.81210  0.70120  0.40900  1.0000 0.1303641355
H   H12       1.0  0.88910  0.18790  0.07567  1.0000 0.1303641355
H   H13       1.0  0.82230  0.54450  0.10650  1.0000 0.1088478385
H   H14       1.0  0.45550  0.27780  0.43983  1.0000 0.1088478385
H   H15       1.0  0.72220  0.17770  0.77317  1.0000 0.1088478385
H   H16       1.0  0.17770  0.45550  0.60650  1.0000 0.1088478385
H   H17       1.0  0.54450  0.72220  0.93983  1.0000 0.1088478385
H   H18       1.0  0.27780  0.82230  0.27317  1.0000 0.1088478385
H   H19       1.0  0.54450  0.82230  0.22683  1.0000 0.1088478385
H   H20       1.0  0.27780  0.45550  0.89350  1.0000 0.1088478385
H   H21       1.0  0.17770  0.72220  0.56017  1.0000 0.1088478385
H   H22       1.0  0.45550  0.17770  0.72683  1.0000 0.1088478385
H   H23       1.0  0.72220  0.54450  0.39350  1.0000 0.1088478385
H   H24       1.0  0.82230  0.27780  0.06017  1.0000 0.1088478385
H   H25       1.0  0.61310  0.49770  0.00080  1.0000 0.1088478385
H   H26       1.0  0.50230  0.11540  0.33413  1.0000 0.1088478385
H   H27       1.0  0.88460  0.38690  0.66747  1.0000 0.1088478385
H   H28       1.0  0.38690  0.50230  0.50080  1.0000 0.1088478385
H   H29       1.0  0.49770  0.88460  0.83413  1.0000 0.1088478385
H   H30       1.0  0.11540  0.61310  0.16747  1.0000 0.1088478385
H   H31       1.0  0.49770  0.61310  0.33253  1.0000 0.1088478385
H   H32       1.0  0.11540  0.50230  0.99920  1.0000 0.1088478385
H   H33       1.0  0.38690  0.88460  0.66587  1.0000 0.1088478385
H   H34       1.0  0.50230  0.38690  0.83253  1.0000 0.1088478385
H   H35       1.0  0.88460  0.49770  0.49920  1.0000 0.1088478385
H   H36       1.0  0.61310  0.11540  0.16587  1.0000 0.1088478385
H   H37       1.0  0.67490  0.65760  0.99100  1.0000 0.1206161348
H   H38       1.0  0.34240  0.01730  0.32433  1.0000 0.1206161348
H   H39       1.0  0.98270  0.32510  0.65767  1.0000 0.1206161348
H   H40       1.0  0.32510  0.34240  0.49100  1.0000 0.1206161348
H   H41       1.0  0.65760  0.98270  0.82433  1.0000 0.1206161348
H   H42       1.0  0.01730  0.67490  0.15767  1.0000 0.1206161348
H   H43       1.0  0.65760  0.67490  0.34233  1.0000 0.1206161348
H   H44       1.0  0.01730  0.34240  0.00900  1.0000 0.1206161348
H   H45       1.0  0.32510  0.98270  0.67567  1.0000 0.1206161348
H   H46       1.0  0.34240  0.32510  0.84233  1.0000 0.1206161348
H   H47       1.0  0.98270  0.65760  0.50900  1.0000 0.1206161348
H   H48       1.0  0.67490  0.01730  0.17567  1.0000 0.1206161348
H   H49       1.0  0.77230  0.38615  0.08333  1.0000 0.1088478385
H   H50       1.0  0.61385  0.38615  0.41667  1.0000 0.1088478385
H   H51       1.0  0.61385  0.22770  0.75000  1.0000 0.1088478385
H   H52       1.0  0.22770  0.61385  0.58333  1.0000 0.1088478385
H   H53       1.0  0.38615  0.61385  0.91667  1.0000 0.1088478385
H   H54       1.0  0.38615  0.77230  0.25000  1.0000 0.1088478385
H   H55       1.0  0.52840  0.37940  0.05770  1.0000 0.1088478385
H   H56       1.0  0.62060  0.14900  0.39103  1.0000 0.1088478385
H   H57       1.0  0.85100  0.47160  0.72437  1.0000 0.1088478385
H   H58       1.0  0.47160  0.62060  0.55770  1.0000 0.1088478385
H   H59       1.0  0.37940  0.85100  0.89103  1.0000 0.1088478385
H   H60       1.0  0.14900  0.52840  0.22437  1.0000 0.1088478385
H   H61       1.0  0.37940  0.52840  0.27563  1.0000 0.1088478385
H   H62       1.0  0.14900  0.62060  0.94230  1.0000 0.1088478385
H   H63       1.0  0.47160  0.85100  0.60897  1.0000 0.1088478385
H   H64       1.0  0.62060  0.47160  0.77563  1.0000 0.1088478385
H   H65       1.0  0.85100  0.37940  0.44230  1.0000 0.1088478385
H   H66       1.0  0.52840  0.14900  0.10897  1.0000 0.1088478385
H   H67       1.0  0.38910  0.26900  0.01530  1.0000 0.1088478385
H   H68       1.0  0.73100  0.12010  0.34863  1.0000 0.1088478385
H   H69       1.0  0.87990  0.61090  0.68197  1.0000 0.1043302609
H   H70       1.0  0.61090  0.73100  0.51530  1.0000 0.1043302609
H   H71       1.0  0.26900  0.87990  0.84863  1.0000 0.1088478385
H   H72       1.0  0.12010  0.38910  0.18197  1.0000 0.1043302609
H   H73       1.0  0.26900  0.38910  0.31803  1.0000 0.1043302609
H   H74       1.0  0.12010  0.73100  0.98470  1.0000 0.1088478385
H   H75       1.0  0.61090  0.87990  0.65137  1.0000 0.1043302609
H   H76       1.0  0.73100  0.61090  0.81803  1.0000 0.1088478385
H   H77       1.0  0.87990  0.26900  0.48470  1.0000 0.1088478385
H   H78       1.0  0.38910  0.12010  0.15137  1.0000 0.1088478385
H   H79       1.0  0.22670  0.18750  0.01670  1.0000 0.1303641355
H   H80       1.0  0.81250  0.03920  0.35003  1.0000 0.1303641355
H   H81       1.0  0.96080  0.77330  0.68337  1.0000 0.1303641355
H   H82       1.0  0.77330  0.81250  0.51670  1.0000 0.1303641355
H   H83       1.0  0.18750  0.96080  0.85003  1.0000 0.1303641355
H   H84       1.0  0.03920  0.22670  0.18337  1.0000 0.1303641355
H   H85       1.0  0.18750  0.22670  0.31663  1.0000 0.1303641355
H   H86       1.0  0.03920  0.81250  0.98330  1.0000 0.1303641355
H   H87       1.0  0.77330  0.96080  0.64997  1.0000 0.1303641355
H   H88       1.0  0.81250  0.77330  0.81663  1.0000 0.1303641355
H   H89       1.0  0.96080  0.18750  0.48330  1.0000 0.1303641355
H   H90       1.0  0.22670  0.03920  0.14997  1.0000 0.1303641355
C   C1        1.0  0.82430  0.80040  0.03630  1.0000 0.5994166527
C   C2        1.0  0.19960  0.02390  0.36963  1.0000 0.5994166527
C   C3        1.0  0.97610  0.17570  0.70297  1.0000 0.5994166527
C   C4        1.0  0.17570  0.19960  0.53630  1.0000 0.5994166527
C   C5        1.0  0.80040  0.97610  0.86963  1.0000 0.5994166527
C   C6        1.0  0.02390  0.82430  0.20297  1.0000 0.5994166527
C   C7        1.0  0.80040  0.82430  0.29703  1.0000 0.5994166527
C   C8        1.0  0.02390  0.19960  0.96370  1.0000 0.5994166527
C   C9        1.0  0.17570  0.97610  0.63037  1.0000 0.5994166527
C   C10       1.0  0.19960  0.17570  0.79703  1.0000 0.5994166527
C   C11       1.0  0.97610  0.80040  0.46370  1.0000 0.5994166527
C   C12       1.0  0.82430  0.02390  0.13037  1.0000 0.5994166527
C   C13       1.0  0.78630  0.69700  0.04150  1.0000 -0.0261826834
C   C14       1.0  0.30300  0.08930  0.37483  1.0000 -0.0261826834
C   C15       1.0  0.91070  0.21370  0.70817  1.0000 -0.0261826834
C   C16       1.0  0.21370  0.30300  0.54150  1.0000 -0.0261826834
C   C17       1.0  0.69700  0.91070  0.87483  1.0000 -0.0261826834
C   C18       1.0  0.08930  0.78630  0.20817  1.0000 -0.0261826834
C   C19       1.0  0.69700  0.78630  0.29183  1.0000 -0.0261826834
C   C20       1.0  0.08930  0.30300  0.95850  1.0000 -0.0261826834
C   C21       1.0  0.21370  0.91070  0.62517  1.0000 -0.0261826834
C   C22       1.0  0.30300  0.21370  0.79183  1.0000 -0.0261826834
C   C23       1.0  0.91070  0.69700  0.45850  1.0000 -0.0261826834
C   C24       1.0  0.78630  0.08930  0.12517  1.0000 -0.0261826834
C   C25       1.0  0.83150  0.66040  0.07460  1.0000 -0.0932172307
C   C26       1.0  0.33960  0.17110  0.40793  1.0000 -0.0932172307
C   C27       1.0  0.82890  0.16850  0.74127  1.0000 -0.0932172307
C   C28       1.0  0.16850  0.33960  0.57460  1.0000 -0.0932172307
C   C29       1.0  0.66040  0.82890  0.90793  1.0000 -0.0932172307
C   C30       1.0  0.17110  0.83150  0.24127  1.0000 -0.0932172307
C   C31       1.0  0.66040  0.83150  0.25873  1.0000 -0.0932172307
C   C32       1.0  0.17110  0.33960  0.92540  1.0000 -0.0932172307
C   C33       1.0  0.16850  0.82890  0.59207  1.0000 -0.0932172307
C   C34       1.0  0.33960  0.16850  0.75873  1.0000 -0.0932172307
C   C35       1.0  0.82890  0.66040  0.42540  1.0000 -0.0932172307
C   C36       1.0  0.83150  0.17110  0.09207  1.0000 -0.0932172307
C   C37       1.0  0.79280  0.56690  0.08290  1.0000 -0.1418790066
C   C38       1.0  0.43310  0.22590  0.41623  1.0000 -0.1418790066
C   C39       1.0  0.77410  0.20720  0.74957  1.0000 -0.1418790066
C   C40       1.0  0.20720  0.43310  0.58290  1.0000 -0.1418790066
C   C41       1.0  0.56690  0.77410  0.91623  1.0000 -0.1418790066
C   C42       1.0  0.22590  0.79280  0.24957  1.0000 -0.1418790066
C   C43       1.0  0.56690  0.79280  0.25043  1.0000 -0.1418790066
C   C44       1.0  0.22590  0.43310  0.91710  1.0000 -0.1418790066
C   C45       1.0  0.20720  0.77410  0.58377  1.0000 -0.1418790066
C   C46       1.0  0.43310  0.20720  0.75043  1.0000 -0.1418790066
C   C47       1.0  0.77410  0.56690  0.41710  1.0000 -0.1418790066
C   C48       1.0  0.79280  0.22590  0.08377  1.0000 -0.1418790066
C   C49       1.0  0.70690  0.50240  0.05590  1.0000 0.0713165898
C   C50       1.0  0.49760  0.20450  0.38923  1.0000 0.0713165898
C   C51       1.0  0.79550  0.29310  0.72257  1.0000 0.0713165898
C   C52       1.0  0.29310  0.49760  0.55590  1.0000 0.0713165898
C   C53       1.0  0.50240  0.79550  0.88923  1.0000 0.0713165898
C   C54       1.0  0.20450  0.70690  0.22257  1.0000 0.0713165898
C   C55       1.0  0.50240  0.70690  0.27743  1.0000 0.0713165898
C   C56       1.0  0.20450  0.49760  0.94410  1.0000 0.0713165898
C   C57       1.0  0.29310  0.79550  0.61077  1.0000 0.0713165898
C   C58       1.0  0.49760  0.29310  0.77743  1.0000 0.0713165898
C   C59       1.0  0.79550  0.50240  0.44410  1.0000 0.0713165898
C   C60       1.0  0.70690  0.20450  0.11077  1.0000 0.0713165898
C   C61       1.0  0.66690  0.53860  0.02070  1.0000 -0.1500876676
C   C62       1.0  0.46140  0.12830  0.35403  1.0000 -0.1500876676
C   C63       1.0  0.87170  0.33310  0.68737  1.0000 -0.1500876676
C   C64       1.0  0.33310  0.46140  0.52070  1.0000 -0.1500876676
C   C65       1.0  0.53860  0.87170  0.85403  1.0000 -0.1500876676
C   C66       1.0  0.12830  0.66690  0.18737  1.0000 -0.1500876676
C   C67       1.0  0.53860  0.66690  0.31263  1.0000 -0.1500876676
C   C68       1.0  0.12830  0.46140  0.97930  1.0000 -0.1500876676
C   C69       1.0  0.33310  0.87170  0.64597  1.0000 -0.1500876676
C   C70       1.0  0.46140  0.33310  0.81263  1.0000 -0.1500876676
C   C71       1.0  0.87170  0.53860  0.47930  1.0000 -0.1500876676
C   C72       1.0  0.66690  0.12830  0.14597  1.0000 -0.1500876676
C   C73       1.0  0.70480  0.63500  0.01410  1.0000 -0.1037951366
C   C74       1.0  0.36500  0.06980  0.34743  1.0000 -0.1037951366
C   C75       1.0  0.93020  0.29520  0.68077  1.0000 -0.1037951366
C   C76       1.0  0.29520  0.36500  0.51410  1.0000 -0.1037951366
C   C77       1.0  0.63500  0.93020  0.84743  1.0000 -0.1037951366
C   C78       1.0  0.06980  0.70480  0.18077  1.0000 -0.1037951366
C   C79       1.0  0.63500  0.70480  0.31923  1.0000 -0.1037951366
C   C80       1.0  0.06980  0.36500  0.98590  1.0000 -0.1037951366
C   C81       1.0  0.29520  0.93020  0.65257  1.0000 -0.1037951366
C   C82       1.0  0.36500  0.29520  0.81923  1.0000 -0.1037951366
C   C83       1.0  0.93020  0.63500  0.48590  1.0000 -0.1037951366
C   C84       1.0  0.70480  0.06980  0.15257  1.0000 -0.1037951366
C   C85       1.0  0.65790  0.40140  0.06970  1.0000 0.0713165898
C   C86       1.0  0.59860  0.25650  0.40303  1.0000 0.0713165898
C   C87       1.0  0.74350  0.34210  0.73637  1.0000 0.0713165898
C   C88       1.0  0.34210  0.59860  0.56970  1.0000 0.0713165898
C   C89       1.0  0.40140  0.74350  0.90303  1.0000 0.0713165898
C   C90       1.0  0.25650  0.65790  0.23637  1.0000 0.0713165898
C   C91       1.0  0.40140  0.65790  0.26363  1.0000 0.0713165898
C   C92       1.0  0.25650  0.59860  0.93030  1.0000 0.0713165898
C   C93       1.0  0.34210  0.74350  0.59697  1.0000 0.0713165898
C   C94       1.0  0.59860  0.34210  0.76363  1.0000 0.0713165898
C   C95       1.0  0.74350  0.40140  0.43030  1.0000 0.0713165898
C   C96       1.0  0.65790  0.25650  0.09697  1.0000 0.0713165898
C   C97       1.0  0.70690  0.35345  0.08333  1.0000 -0.206387585
C   C98       1.0  0.64655  0.35345  0.41667  1.0000 -0.206387585
C   C99       1.0  0.64655  0.29310  0.75000  1.0000 -0.206387585
C   C100      1.0  0.29310  0.64655  0.58333  1.0000 -0.206387585
C   C101      1.0  0.35345  0.64655  0.91667  1.0000 -0.206387585
C   C102      1.0  0.35345  0.70690  0.25000  1.0000 -0.206387585
C   C103      1.0  0.56150  0.34980  0.06870  1.0000 -0.1947613732
C   C104      1.0  0.65020  0.21170  0.40203  1.0000 -0.1958742396
C   C105      1.0  0.78830  0.43850  0.73537  1.0000 -0.1947613732
C   C106      1.0  0.43850  0.65020  0.56870  1.0000 -0.1947613732
C   C107      1.0  0.34980  0.78830  0.90203  1.0000 -0.1947613732
C   C108      1.0  0.21170  0.56150  0.23537  1.0000 -0.1947613732
C   C109      1.0  0.34980  0.56150  0.26463  1.0000 -0.1947613732
C   C110      1.0  0.21170  0.65020  0.93130  1.0000 -0.1947613732
C   C111      1.0  0.43850  0.78830  0.59797  1.0000 -0.1947613732
C   C112      1.0  0.65020  0.43850  0.76463  1.0000 -0.1947613732
C   C113      1.0  0.78830  0.34980  0.43130  1.0000 -0.1958742396
C   C114      1.0  0.56150  0.21170  0.09797  1.0000 -0.1947613732
C   C115      1.0  0.51150  0.25575  0.08333  1.0000 0.0713165898
C   C116      1.0  0.74425  0.25575  0.41667  1.0000 0.0713165898
C   C117      1.0  0.74425  0.48850  0.75000  1.0000 0.0713165898
C   C118      1.0  0.48850  0.74425  0.58333  1.0000 0.0713165898
C   C119      1.0  0.25575  0.74425  0.91667  1.0000 0.0713165898
C   C120      1.0  0.25575  0.51150  0.25000  1.0000 0.0713165898
C   C121      1.0  0.40530  0.20265  0.08333  1.0000 0.0812087537
C   C122      1.0  0.79735  0.20265  0.41667  1.0000 0.0812087537
C   C123      1.0  0.79735  0.59470  0.75000  1.0000 0.0812087537
C   C124      1.0  0.59470  0.79735  0.58333  1.0000 0.0812087537
C   C125      1.0  0.20265  0.79735  0.91667  1.0000 0.0812087537
C   C126      1.0  0.20265  0.40530  0.25000  1.0000 0.0812087537
C   C127      1.0  0.35670  0.22330  0.04240  1.0000 -0.1595950232
C   C128      1.0  0.77670  0.13340  0.37573  1.0000 -0.1595950232
C   C129      1.0  0.86660  0.64330  0.70907  1.0000 -0.1595950232
C   C130      1.0  0.64330  0.77670  0.54240  1.0000 -0.1595950232
C   C131      1.0  0.22330  0.86660  0.87573  1.0000 -0.1595950232
C   C132      1.0  0.13340  0.35670  0.20907  1.0000 -0.1595950232
C   C133      1.0  0.22330  0.35670  0.29093  1.0000 -0.1595950232
C   C134      1.0  0.13340  0.77670  0.95760  1.0000 -0.1595950232
C   C135      1.0  0.64330  0.86660  0.62427  1.0000 -0.1595950232
C   C136      1.0  0.77670  0.64330  0.79093  1.0000 -0.1595950232
C   C137      1.0  0.86660  0.22330  0.45760  1.0000 -0.1595950232
C   C138      1.0  0.35670  0.13340  0.12427  1.0000 -0.1595950232
C   C139      1.0  0.25970  0.17410  0.04340  1.0000 -0.0932172307
C   C140      1.0  0.82590  0.08560  0.37673  1.0000 -0.0932172307
C   C141      1.0  0.91440  0.74030  0.71007  1.0000 -0.0932172307
C   C142      1.0  0.74030  0.82590  0.54340  1.0000 -0.0932172307
C   C143      1.0  0.17410  0.91440  0.87673  1.0000 -0.0932172307
C   C144      1.0  0.08560  0.25970  0.21007  1.0000 -0.0932172307
C   C145      1.0  0.17410  0.25970  0.28993  1.0000 -0.0932172307
C   C146      1.0  0.08560  0.82590  0.95660  1.0000 -0.0932172307
C   C147      1.0  0.74030  0.91440  0.62327  1.0000 -0.0932172307
C   C148      1.0  0.82590  0.74030  0.78993  1.0000 -0.0932172307
C   C149      1.0  0.91440  0.17410  0.45660  1.0000 -0.0932172307
C   C150      1.0  0.25970  0.08560  0.12327  1.0000 -0.0932172307
C   C151      1.0  0.21030  0.10515  0.08333  1.0000 -0.0366187195
C   C152      1.0  0.89485  0.10515  0.41667  1.0000 -0.0366187195
C   C153      1.0  0.89485  0.78970  0.75000  1.0000 -0.0366187195
C   C154      1.0  0.78970  0.89485  0.58333  1.0000 -0.0366187195
C   C155      1.0  0.10515  0.89485  0.91667  1.0000 -0.0366187195
C   C156      1.0  0.10515  0.21030  0.25000  1.0000 -0.0366187195
C   C157      1.0  0.10530  0.05265  0.08333  1.0000 0.6437868022
C   C158      1.0  0.94735  0.05265  0.41667  1.0000 0.6437868022
C   C159      1.0  0.94735  0.89470  0.75000  1.0000 0.6437868022
C   C160      1.0  0.89470  0.94735  0.58333  1.0000 0.6437868022
C   C161      1.0  0.05265  0.94735  0.91667  1.0000 0.6437868022
C   C162      1.0  0.05265  0.10530  0.25000  1.0000 0.6437868022
O   O1        1.0  0.89110  0.85800  0.06836  1.0000 -0.7318508134
O   O2        1.0  0.14200  0.03310  0.40169  1.0000 -0.7318508134
O   O3        1.0  0.96690  0.10890  0.73503  1.0000 -0.7318508134
O   O4        1.0  0.10890  0.14200  0.56836  1.0000 -0.7318508134
O   O5        1.0  0.85800  0.96690  0.90169  1.0000 -0.7318508134
O   O6        1.0  0.03310  0.89110  0.23503  1.0000 -0.7318508134
O   O7        1.0  0.85800  0.89110  0.26497  1.0000 -0.7318508134
O   O8        1.0  0.03310  0.14200  0.93164  1.0000 -0.7318508134
O   O9        1.0  0.10890  0.96690  0.59831  1.0000 -0.7318508134
O   O10       1.0  0.14200  0.10890  0.76497  1.0000 -0.7318508134
O   O11       1.0  0.96690  0.85800  0.43164  1.0000 -0.7318508134
O   O12       1.0  0.89110  0.03310  0.09831  1.0000 -0.7318508134
O   O13       1.0  0.78980  0.83080  0.00210  1.0000 -0.5874411619
O   O14       1.0  0.16920  0.95900  0.33543  1.0000 -0.5874411619
O   O15       1.0  0.04100  0.21020  0.66877  1.0000 -0.5874411619
O   O16       1.0  0.21020  0.16920  0.50210  1.0000 -0.5874411619
O   O17       1.0  0.83080  0.04100  0.83543  1.0000 -0.5874411619
O   O18       1.0  0.95900  0.78980  0.16877  1.0000 -0.5874411619
O   O19       1.0  0.83080  0.78980  0.33123  1.0000 -0.5874411619
O   O20       1.0  0.95900  0.16920  0.99790  1.0000 -0.5874411619
O   O21       1.0  0.21020  0.04100  0.66457  1.0000 -0.5874411619
O   O22       1.0  0.16920  0.21020  0.83123  1.0000 -0.5874411619
O   O23       1.0  0.04100  0.83080  0.49790  1.0000 -0.5874411619
O   O24       1.0  0.78980  0.95900  0.16457  1.0000 -0.5874411619
O   O25       1.0  0.06520  0.07090  0.04446  1.0000 -0.6520070589
O   O26       1.0  0.92910  0.99430  0.37779  1.0000 -0.6520070589
O   O27       1.0  0.00570  0.93480  0.71113  1.0000 -0.6520070589
O   O28       1.0  0.93480  0.92910  0.54446  1.0000 -0.6520070589
O   O29       1.0  0.07090  0.00570  0.87779  1.0000 -0.6520070589
O   O30       1.0  0.99430  0.06520  0.21113  1.0000 -0.6520070589
O   O31       1.0  0.07090  0.06520  0.28887  1.0000 -0.6520070589
O   O32       1.0  0.99430  0.92910  0.95554  1.0000 -0.6520070589
O   O33       1.0  0.93480  0.00570  0.62221  1.0000 -0.6520070589
O   O34       1.0  0.92910  0.93480  0.78887  1.0000 -0.6520070589
O   O35       1.0  0.00570  0.07090  0.45554  1.0000 -0.6520070589
O   O36       1.0  0.06520  0.99430  0.12221  1.0000 -0.6520070589
