# DDEC6 charges by PACMAN v1.1 (https://github.com/mtap-research/PACMAN-charge/)
data_2012[Cu][tbo]3[ASR]5
_chemical_formula_sum              "Cu12 H24 C72 O48"
_cell_length_a       18.5661
_cell_length_b       18.5661
_cell_length_c       18.5661
_cell_angle_alpha    60
_cell_angle_beta     60
_cell_angle_gamma    60

_symmetry_space_group_name_H-M    "P 1"
_symmetry_Int_Tables_number       1

loop_
  _symmetry_equiv_pos_as_xyz
  'x, y, z'

loop_
  _atom_site_type_symbol
  _atom_site_label
  _atom_site_symmetry_multiplicity
  _atom_site_fract_x
  _atom_site_fract_y
  _atom_site_fract_z
  _atom_site_occupancy
  _atom_site_charge
Cu  Cu1       1.0  0.00000  0.56990  0.43010  1.0000 0.8448741862
Cu  Cu2       1.0  0.56990  0.43010  0.00000  1.0000 0.8467428812
Cu  Cu3       1.0  0.43010  0.00000  0.56990  1.0000 0.8467428812
Cu  Cu4       1.0  0.56990  0.00000  0.00000  1.0000 0.8467428812
Cu  Cu5       1.0  0.43010  0.56990  0.00000  1.0000 0.8467428812
Cu  Cu6       1.0  0.00000  0.43010  0.00000  1.0000 0.8467428812
Cu  Cu7       1.0  0.00000  0.00000  0.43010  1.0000 0.8467428812
Cu  Cu8       1.0  0.00000  0.56990  0.00000  1.0000 0.8467428812
Cu  Cu9       1.0  0.56990  0.00000  0.43010  1.0000 0.8467428812
Cu  Cu10      1.0  0.43010  0.00000  0.00000  1.0000 0.8467428812
Cu  Cu11      1.0  0.00000  0.00000  0.56990  1.0000 0.8448741862
Cu  Cu12      1.0  0.00000  0.43010  0.56990  1.0000 0.8467428812
H   H1        1.0  0.27040  0.48700  0.27040  1.0000 0.1364467247
H   H2        1.0  0.48700  0.27040  0.27040  1.0000 0.1364467247
H   H3        1.0  0.27040  0.27040  0.48700  1.0000 0.1364467247
H   H4        1.0  0.48700  0.27040  0.97220  1.0000 0.1364467247
H   H5        1.0  0.27040  0.48700  0.97220  1.0000 0.1364467247
H   H6        1.0  0.27040  0.27040  0.97220  1.0000 0.1364467247
H   H7        1.0  0.97220  0.27040  0.27040  1.0000 0.1364467247
H   H8        1.0  0.97220  0.48700  0.27040  1.0000 0.1364467247
H   H9        1.0  0.48700  0.97220  0.27040  1.0000 0.1364467247
H   H10       1.0  0.27040  0.97220  0.27040  1.0000 0.1364467247
H   H11       1.0  0.27040  0.97220  0.48700  1.0000 0.1364467247
H   H12       1.0  0.97220  0.27040  0.48700  1.0000 0.1364467247
H   H13       1.0  0.51300  0.72960  0.72960  1.0000 0.1364467247
H   H14       1.0  0.72960  0.51300  0.72960  1.0000 0.1364467247
H   H15       1.0  0.72960  0.72960  0.51300  1.0000 0.1364467247
H   H16       1.0  0.72960  0.51300  0.02780  1.0000 0.1364467247
H   H17       1.0  0.51300  0.72960  0.02780  1.0000 0.1364467247
H   H18       1.0  0.72960  0.72960  0.02780  1.0000 0.1364467247
H   H19       1.0  0.72960  0.02780  0.72960  1.0000 0.1364467247
H   H20       1.0  0.51300  0.02780  0.72960  1.0000 0.1364467247
H   H21       1.0  0.02780  0.51300  0.72960  1.0000 0.1364467247
H   H22       1.0  0.02780  0.72960  0.72960  1.0000 0.1364467247
H   H23       1.0  0.02780  0.72960  0.51300  1.0000 0.1364467247
H   H24       1.0  0.72960  0.02780  0.51300  1.0000 0.1364467247
C   C1        1.0  0.30040  0.42880  0.30040  1.0000 -0.0819791344
C   C2        1.0  0.42880  0.30040  0.30040  1.0000 -0.0819791344
C   C3        1.0  0.30040  0.30040  0.42880  1.0000 -0.0819791344
C   C4        1.0  0.42880  0.30040  0.97040  1.0000 -0.0819791344
C   C5        1.0  0.30040  0.42880  0.97040  1.0000 -0.0819791344
C   C6        1.0  0.30040  0.30040  0.97040  1.0000 -0.0819791344
C   C7        1.0  0.97040  0.30040  0.30040  1.0000 -0.0819791344
C   C8        1.0  0.97040  0.42880  0.30040  1.0000 -0.0819791344
C   C9        1.0  0.42880  0.97040  0.30040  1.0000 -0.0819791344
C   C10       1.0  0.30040  0.97040  0.30040  1.0000 -0.0819791344
C   C11       1.0  0.30040  0.97040  0.42880  1.0000 -0.0819791344
C   C12       1.0  0.97040  0.30040  0.42880  1.0000 -0.0819791344
C   C13       1.0  0.57120  0.69960  0.69960  1.0000 -0.0819791344
C   C14       1.0  0.69960  0.57120  0.69960  1.0000 -0.0819791344
C   C15       1.0  0.69960  0.69960  0.57120  1.0000 -0.0819791344
C   C16       1.0  0.69960  0.57120  0.02960  1.0000 -0.0819791344
C   C17       1.0  0.57120  0.69960  0.02960  1.0000 -0.0819791344
C   C18       1.0  0.69960  0.69960  0.02960  1.0000 -0.0819791344
C   C19       1.0  0.69960  0.02960  0.69960  1.0000 -0.0819791344
C   C20       1.0  0.57120  0.02960  0.69960  1.0000 -0.0819791344
C   C21       1.0  0.02960  0.57120  0.69960  1.0000 -0.0819791344
C   C22       1.0  0.02960  0.69960  0.69960  1.0000 -0.0819791344
C   C23       1.0  0.02960  0.69960  0.57120  1.0000 -0.0819791344
C   C24       1.0  0.69960  0.02960  0.57120  1.0000 -0.0819791344
C   C25       1.0  0.25748  0.38700  0.38700  1.0000 -0.0341421115
C   C26       1.0  0.38700  0.38700  0.25748  1.0000 -0.0341421115
C   C27       1.0  0.38700  0.25748  0.38700  1.0000 -0.0341421115
C   C28       1.0  0.38700  0.25748  0.96852  1.0000 -0.0341421115
C   C29       1.0  0.38700  0.38700  0.96852  1.0000 -0.0341421115
C   C30       1.0  0.25748  0.38700  0.96852  1.0000 -0.0341421115
C   C31       1.0  0.96852  0.25748  0.38700  1.0000 -0.0341421115
C   C32       1.0  0.96852  0.38700  0.25748  1.0000 -0.0341421115
C   C33       1.0  0.38700  0.96852  0.38700  1.0000 -0.0341421115
C   C34       1.0  0.38700  0.96852  0.25748  1.0000 -0.0361283033
C   C35       1.0  0.25748  0.96852  0.38700  1.0000 -0.0341421115
C   C36       1.0  0.96852  0.38700  0.38700  1.0000 -0.0341421115
C   C37       1.0  0.61300  0.74252  0.61300  1.0000 -0.0341421115
C   C38       1.0  0.61300  0.61300  0.74252  1.0000 -0.0341421115
C   C39       1.0  0.74252  0.61300  0.61300  1.0000 -0.0341421115
C   C40       1.0  0.74252  0.61300  0.03148  1.0000 -0.0341421115
C   C41       1.0  0.61300  0.61300  0.03148  1.0000 -0.0341421115
C   C42       1.0  0.61300  0.74252  0.03148  1.0000 -0.0341421115
C   C43       1.0  0.74252  0.03148  0.61300  1.0000 -0.0341421115
C   C44       1.0  0.61300  0.03148  0.74252  1.0000 -0.0341421115
C   C45       1.0  0.03148  0.61300  0.61300  1.0000 -0.0341421115
C   C46       1.0  0.03148  0.61300  0.74252  1.0000 -0.0341421115
C   C47       1.0  0.03148  0.74252  0.61300  1.0000 -0.0341421115
C   C48       1.0  0.61300  0.03148  0.61300  1.0000 -0.0341421115
C   C49       1.0  0.16220  0.42960  0.42960  1.0000 0.5766878033
C   C50       1.0  0.42960  0.42960  0.16220  1.0000 0.5766878033
C   C51       1.0  0.42960  0.16220  0.42960  1.0000 0.5766878033
C   C52       1.0  0.42960  0.16220  0.97860  1.0000 0.5766878033
C   C53       1.0  0.42960  0.42960  0.97860  1.0000 0.5766878033
C   C54       1.0  0.16220  0.42960  0.97860  1.0000 0.5766878033
C   C55       1.0  0.97860  0.16220  0.42960  1.0000 0.5766878033
C   C56       1.0  0.97860  0.42960  0.16220  1.0000 0.5766878033
C   C57       1.0  0.42960  0.97860  0.42960  1.0000 0.5766878033
C   C58       1.0  0.42960  0.97860  0.16220  1.0000 0.5766878033
C   C59       1.0  0.16220  0.97860  0.42960  1.0000 0.5766878033
C   C60       1.0  0.97860  0.42960  0.42960  1.0000 0.5766878033
C   C61       1.0  0.57040  0.83780  0.57040  1.0000 0.5766878033
C   C62       1.0  0.57040  0.57040  0.83780  1.0000 0.5766878033
C   C63       1.0  0.83780  0.57040  0.57040  1.0000 0.5766878033
C   C64       1.0  0.83780  0.57040  0.02140  1.0000 0.5766878033
C   C65       1.0  0.57040  0.57040  0.02140  1.0000 0.5766878033
C   C66       1.0  0.57040  0.83780  0.02140  1.0000 0.5766878033
C   C67       1.0  0.83780  0.02140  0.57040  1.0000 0.5766878033
C   C68       1.0  0.57040  0.02140  0.83780  1.0000 0.5766878033
C   C69       1.0  0.02140  0.57040  0.57040  1.0000 0.5766878033
C   C70       1.0  0.02140  0.57040  0.83780  1.0000 0.5766878033
C   C71       1.0  0.02140  0.83780  0.57040  1.0000 0.5766878033
C   C72       1.0  0.57040  0.02140  0.57040  1.0000 0.5766878033
O   O1        1.0  0.12624  0.50664  0.38714  1.0000 -0.51007312
O   O2        1.0  0.50664  0.38714  0.12624  1.0000 -0.51007312
O   O3        1.0  0.38714  0.12624  0.50664  1.0000 -0.51007312
O   O4        1.0  0.50664  0.12624  0.97998  1.0000 -0.51007312
O   O5        1.0  0.38714  0.50664  0.97998  1.0000 -0.51007312
O   O6        1.0  0.12624  0.38714  0.97998  1.0000 -0.51007312
O   O7        1.0  0.97998  0.12624  0.38714  1.0000 -0.51007312
O   O8        1.0  0.97998  0.50664  0.12624  1.0000 -0.51007312
O   O9        1.0  0.50664  0.97998  0.38714  1.0000 -0.51007312
O   O10       1.0  0.38714  0.97998  0.12624  1.0000 -0.51007312
O   O11       1.0  0.12624  0.97998  0.50664  1.0000 -0.51007312
O   O12       1.0  0.97998  0.38714  0.50664  1.0000 -0.51007312
O   O13       1.0  0.49336  0.87376  0.61286  1.0000 -0.51007312
O   O14       1.0  0.61286  0.49336  0.87376  1.0000 -0.51007312
O   O15       1.0  0.87376  0.61286  0.49336  1.0000 -0.51007312
O   O16       1.0  0.87376  0.49336  0.02002  1.0000 -0.51007312
O   O17       1.0  0.49336  0.61286  0.02002  1.0000 -0.51007312
O   O18       1.0  0.61286  0.87376  0.02002  1.0000 -0.51007312
O   O19       1.0  0.87376  0.02002  0.61286  1.0000 -0.51007312
O   O20       1.0  0.49336  0.02002  0.87376  1.0000 -0.51007312
O   O21       1.0  0.02002  0.49336  0.61286  1.0000 -0.51007312
O   O22       1.0  0.02002  0.61286  0.87376  1.0000 -0.51007312
O   O23       1.0  0.02002  0.87376  0.49336  1.0000 -0.51007312
O   O24       1.0  0.61286  0.02002  0.49336  1.0000 -0.51007312
O   O25       1.0  0.87376  0.49336  0.61286  1.0000 -0.51007312
O   O26       1.0  0.49336  0.61286  0.87376  1.0000 -0.51007312
O   O27       1.0  0.61286  0.87376  0.49336  1.0000 -0.51007312
O   O28       1.0  0.49336  0.87376  0.02002  1.0000 -0.51007312
O   O29       1.0  0.61286  0.49336  0.02002  1.0000 -0.51007312
O   O30       1.0  0.87376  0.61286  0.02002  1.0000 -0.51007312
O   O31       1.0  0.02002  0.87376  0.61286  1.0000 -0.51007312
O   O32       1.0  0.02002  0.49336  0.87376  1.0000 -0.51007312
O   O33       1.0  0.49336  0.02002  0.61286  1.0000 -0.51007312
O   O34       1.0  0.61286  0.02002  0.87376  1.0000 -0.51007312
O   O35       1.0  0.87376  0.02002  0.49336  1.0000 -0.51007312
O   O36       1.0  0.02002  0.61286  0.49336  1.0000 -0.51007312
O   O37       1.0  0.50664  0.12624  0.38714  1.0000 -0.51007312
O   O38       1.0  0.38714  0.50664  0.12624  1.0000 -0.51007312
O   O39       1.0  0.12624  0.38714  0.50664  1.0000 -0.51007312
O   O40       1.0  0.12624  0.50664  0.97998  1.0000 -0.51007312
O   O41       1.0  0.50664  0.38714  0.97998  1.0000 -0.51007312
O   O42       1.0  0.38714  0.12624  0.97998  1.0000 -0.51007312
O   O43       1.0  0.12624  0.97998  0.38714  1.0000 -0.51007312
O   O44       1.0  0.50664  0.97998  0.12624  1.0000 -0.51007312
O   O45       1.0  0.97998  0.50664  0.38714  1.0000 -0.51007312
O   O46       1.0  0.97998  0.38714  0.12624  1.0000 -0.51007312
O   O47       1.0  0.97998  0.12624  0.50664  1.0000 -0.51007312
O   O48       1.0  0.38714  0.97998  0.50664  1.0000 -0.51007312
