# DDEC6 charges by PACMAN v1.1 (https://github.com/mtap-research/PACMAN-charge/)
data_2012[Zn][pcu]3[ASR]6
_chemical_formula_sum              "Zn16 H72 C144 O52"
_cell_length_a       18.6086
_cell_length_b       20.2422
_cell_length_c       20.8135
_cell_angle_alpha    70.421
_cell_angle_beta     68.955
_cell_angle_gamma    68.031

_symmetry_space_group_name_H-M    "P 1"
_symmetry_Int_Tables_number       1

loop_
  _symmetry_equiv_pos_as_xyz
  'x, y, z'

loop_
  _atom_site_type_symbol
  _atom_site_label
  _atom_site_symmetry_multiplicity
  _atom_site_fract_x
  _atom_site_fract_y
  _atom_site_fract_z
  _atom_site_occupancy
  _atom_site_charge
Zn  Zn1       1.0  0.36447  0.21225  0.52309  1.0000 0.9305717618
Zn  Zn2       1.0  0.38468  0.35848  0.52669  1.0000 0.9390299192
Zn  Zn3       1.0  0.21932  0.35233  0.52529  1.0000 0.9305717618
Zn  Zn4       1.0  0.36429  0.34106  0.38270  1.0000 0.9992711614
Zn  Zn5       1.0  0.80098  0.79175  0.09395  1.0000 0.9390299192
Zn  Zn6       1.0  0.80413  0.92156  0.95983  1.0000 0.9390299192
Zn  Zn7       1.0  0.94887  0.77754  0.95973  1.0000 0.9491573642
Zn  Zn8       1.0  0.77454  0.77668  0.95546  1.0000 0.9793408583
Zn  Zn9       1.0  0.63553  0.78775  0.47691  1.0000 0.9249152015
Zn  Zn10      1.0  0.61532  0.64152  0.47331  1.0000 0.9390299192
Zn  Zn11      1.0  0.78068  0.64767  0.47471  1.0000 0.9305717618
Zn  Zn12      1.0  0.63571  0.65894  0.61730  1.0000 0.9992711614
Zn  Zn13      1.0  0.19902  0.20825  0.90605  1.0000 0.9390299192
Zn  Zn14      1.0  0.19587  0.07844  0.04017  1.0000 0.9390299192
Zn  Zn15      1.0  0.05113  0.22246  0.04027  1.0000 0.9491573642
Zn  Zn16      1.0  0.22546  0.22332  0.04454  1.0000 0.9793408583
H   H1        1.0  0.23330  0.06890  0.66870  1.0000 0.1211384711
H   H2        1.0  0.48410  0.53990  0.42460  1.0000 0.1282695939
H   H3        1.0  0.94140  0.05590  0.81590  1.0000 0.1282695939
H   H4        1.0  0.63650  0.67470  0.24090  1.0000 0.1282695939
H   H5        1.0  0.53940  0.45410  0.25920  1.0000 0.1211384711
H   H6        1.0  0.54910  0.62590  0.35540  1.0000 0.1211384711
H   H7        1.0  0.88740  0.61590  0.83220  1.0000 0.1211384711
H   H8        1.0  0.93840  0.67850  0.24180  1.0000 0.1282695939
H   H9        1.0  0.07990  0.47160  0.68430  1.0000 0.1211384711
H   H10       1.0  0.60310  0.94750  0.36200  1.0000 0.1282695939
H   H11       1.0  0.52420  0.03010  0.43050  1.0000 0.1211384711
H   H12       1.0  0.03880  0.53140  0.43340  1.0000 0.1282695939
H   H13       1.0  0.13360  0.88370  0.83320  1.0000 0.1211384711
H   H14       1.0  0.95900  0.61780  0.36330  1.0000 0.1282695939
H   H15       1.0  0.67830  0.09040  0.07060  1.0000 0.1211384711
H   H16       1.0  0.60800  0.17180  0.13900  1.0000 0.1211384711
H   H17       1.0  0.67710  0.92300  0.24180  1.0000 0.1282695939
H   H18       1.0  0.21700  0.94980  0.75120  1.0000 0.1211384711
H   H19       1.0  0.52920  0.19700  0.26050  1.0000 0.1282695939
H   H20       1.0  0.12410  0.63940  0.07230  1.0000 0.1211384711
H   H21       1.0  0.09550  0.64220  0.81730  1.0000 0.1211384711
H   H22       1.0  0.20560  0.56580  0.14080  1.0000 0.1211384711
H   H23       1.0  0.22610  0.50270  0.26310  1.0000 0.1282695939
H   H24       1.0  0.22260  0.57590  0.74340  1.0000 0.1211384711
H   H25       1.0  0.95260  0.53290  0.76270  1.0000 0.1211384711
H   H26       1.0  0.28850  0.49810  0.66900  1.0000 0.1119754981
H   H27       1.0  0.95950  0.17260  0.73330  1.0000 0.1211384711
H   H28       1.0  0.69950  0.58270  0.07670  1.0000 0.1211384711
H   H29       1.0  0.55960  0.95830  0.73760  1.0000 0.1211384711
H   H30       1.0  0.03930  0.24250  0.65490  1.0000 0.1211384711
H   H31       1.0  0.50870  0.07650  0.65770  1.0000 0.1211384711
H   H32       1.0  0.62350  0.50490  0.14330  1.0000 0.1211384711
H   H33       1.0  0.56860  0.25340  0.63960  1.0000 0.1211384711
H   H34       1.0  0.71000  0.06660  0.78630  1.0000 0.1282695939
H   H35       1.0  0.65090  0.88900  0.80620  1.0000 0.1211384711
H   H36       1.0  0.65720  0.18310  0.70750  1.0000 0.1211384711
H   H37       1.0  0.76670  0.93110  0.33130  1.0000 0.1211384711
H   H38       1.0  0.51590  0.46010  0.57540  1.0000 0.1282695939
H   H39       1.0  0.05860  0.94410  0.18410  1.0000 0.1282695939
H   H40       1.0  0.36350  0.32530  0.75910  1.0000 0.1282695939
H   H41       1.0  0.46060  0.54590  0.74080  1.0000 0.1211384711
H   H42       1.0  0.45090  0.37410  0.64460  1.0000 0.1211384711
H   H43       1.0  0.11260  0.38410  0.16780  1.0000 0.1211384711
H   H44       1.0  0.06160  0.32150  0.75820  1.0000 0.1282695939
H   H45       1.0  0.92010  0.52840  0.31570  1.0000 0.1211384711
H   H46       1.0  0.39690  0.05250  0.63800  1.0000 0.1282695939
H   H47       1.0  0.47580  0.96990  0.56950  1.0000 0.1211384711
H   H48       1.0  0.96120  0.46860  0.56660  1.0000 0.1282695939
H   H49       1.0  0.86640  0.11630  0.16680  1.0000 0.1211384711
H   H50       1.0  0.04100  0.38220  0.63670  1.0000 0.1282695939
H   H51       1.0  0.32170  0.90960  0.92940  1.0000 0.1211384711
H   H52       1.0  0.39200  0.82820  0.86100  1.0000 0.1211384711
H   H53       1.0  0.32290  0.07700  0.75820  1.0000 0.1282695939
H   H54       1.0  0.78300  0.05020  0.24880  1.0000 0.1211384711
H   H55       1.0  0.47080  0.80300  0.73950  1.0000 0.1282695939
H   H56       1.0  0.87590  0.36060  0.92770  1.0000 0.1282695939
H   H57       1.0  0.90450  0.35780  0.18270  1.0000 0.1211384711
H   H58       1.0  0.79440  0.43420  0.85920  1.0000 0.1211384711
H   H59       1.0  0.77390  0.49730  0.73690  1.0000 0.1282695939
H   H60       1.0  0.77740  0.42410  0.25660  1.0000 0.1211384711
H   H61       1.0  0.04740  0.46710  0.23730  1.0000 0.1211384711
H   H62       1.0  0.71150  0.50190  0.33100  1.0000 0.1119754981
H   H63       1.0  0.04050  0.82740  0.26670  1.0000 0.1211384711
H   H64       1.0  0.30050  0.41730  0.92330  1.0000 0.1211384711
H   H65       1.0  0.44040  0.04170  0.26240  1.0000 0.1211384711
H   H66       1.0  0.96070  0.75750  0.34510  1.0000 0.1211384711
H   H67       1.0  0.49130  0.92350  0.34230  1.0000 0.1211384711
H   H68       1.0  0.37650  0.49510  0.85670  1.0000 0.1211384711
H   H69       1.0  0.43140  0.74660  0.36040  1.0000 0.1211384711
H   H70       1.0  0.29000  0.93340  0.21370  1.0000 0.1282695939
H   H71       1.0  0.34910  0.11100  0.19380  1.0000 0.1211384711
H   H72       1.0  0.34280  0.81690  0.29250  1.0000 0.1211384711
C   C1        1.0  0.46040  0.43260  0.39470  1.0000 0.5900545489
C   C2        1.0  0.94010  0.68930  0.88070  1.0000 0.5958451699
C   C3        1.0  0.97510  0.91910  0.88560  1.0000 0.5958451699
C   C4        1.0  0.20030  0.20760  0.60260  1.0000 0.5900545489
C   C5        1.0  0.17810  0.09030  0.68290  1.0000 -0.1413078908
C   C6        1.0  0.50920  0.54010  0.37700  1.0000 -0.0999751343
C   C7        1.0  0.50600  0.48770  0.34780  1.0000 -0.020838878
C   C8        1.0  0.99680  0.03510  0.80280  1.0000 -0.1413078908
C   C9        1.0  0.63450  0.64030  0.22160  1.0000 -0.1413078908
C   C10       1.0  0.54290  0.48780  0.27830  1.0000 -0.1496948394
C   C11       1.0  0.98490  0.63690  0.83200  1.0000 -0.020838878
C   C12       1.0  0.12950  0.04680  0.73380  1.0000 0.080037659
C   C13       1.0  0.58930  0.59030  0.26420  1.0000 0.0701311084
C   C14       1.0  0.14690  0.16300  0.65370  1.0000 -0.0361134936
C   C15       1.0  0.54870  0.59080  0.33610  1.0000 -0.1413078908
C   C16       1.0  0.04560  0.07890  0.75240  1.0000 0.080037659
C   C17       1.0  0.94310  0.60430  0.81460  1.0000 -0.0904039633
C   C18       1.0  0.02890  0.96320  0.83270  1.0000 -0.0298297413
C   C19       1.0  0.04150  0.60910  0.26770  1.0000 0.0701311084
C   C20       1.0  0.99210  0.65550  0.22230  1.0000 -0.1496948394
C   C21       1.0  0.10830  0.49270  0.69640  1.0000 -0.1496948394
C   C22       1.0  0.58890  0.99720  0.34090  1.0000 -0.1496948394
C   C23       1.0  0.54140  0.04690  0.38170  1.0000 -0.0999751343
C   C24       1.0  0.51820  0.12200  0.35200  1.0000 -0.0298297413
C   C25       1.0  0.61610  0.02140  0.26710  1.0000 0.0631205659
C   C26       1.0  0.14010  0.50880  0.35470  1.0000 -0.0298297413
C   C27       1.0  0.06680  0.53930  0.74320  1.0000 0.080037659
C   C28       1.0  0.06000  0.54290  0.38460  1.0000 -0.0999751343
C   C29       1.0  0.46410  0.17490  0.39750  1.0000 0.5900545489
C   C30       1.0  0.11160  0.93250  0.81280  1.0000 -0.0904039633
C   C31       1.0  0.01160  0.59360  0.34250  1.0000 -0.1496948394
C   C32       1.0  0.66350  0.07380  0.11950  1.0000 -0.0999751343
C   C33       1.0  0.67530  0.63860  0.15230  1.0000 -0.0298297413
C   C34       1.0  0.62050  0.12200  0.16000  1.0000 -0.1496948394
C   C35       1.0  0.23260  0.42830  0.61770  1.0000 0.5900545489
C   C36       1.0  0.02200  0.66720  0.15030  1.0000 -0.020838878
C   C37       1.0  0.72370  0.69060  0.10790  1.0000 0.5900545489
C   C38       1.0  0.19300  0.45350  0.40020  1.0000 0.5900545489
C   C39       1.0  0.66240  0.97310  0.22230  1.0000 -0.1496948394
C   C40       1.0  0.68640  0.99850  0.15010  1.0000 -0.020838878
C   C41       1.0  0.16190  0.97200  0.76420  1.0000 -0.157087545
C   C42       1.0  0.19010  0.47760  0.66800  1.0000 -0.020838878
C   C43       1.0  0.59330  0.09780  0.23600  1.0000 0.0701311084
C   C44       1.0  0.73450  0.94470  0.10360  1.0000 0.5900545489
C   C45       1.0  0.54410  0.14700  0.28040  1.0000 -0.1496948394
C   C46       1.0  0.96750  0.71340  0.10320  1.0000 0.5900545489
C   C47       1.0  0.10380  0.63160  0.12120  1.0000 -0.0999751343
C   C48       1.0  0.06750  0.62050  0.80530  1.0000 -0.1413078908
C   C49       1.0  0.15220  0.58780  0.16180  1.0000 -0.1496948394
C   C50       1.0  0.10970  0.57240  0.76090  1.0000 0.0701311084
C   C51       1.0  0.12350  0.57350  0.23790  1.0000 0.0701311084
C   C52       1.0  0.58620  0.53800  0.23500  1.0000 0.0701311084
C   C53       1.0  0.17210  0.52450  0.28250  1.0000 -0.1496948394
C   C54       1.0  0.19330  0.55520  0.73180  1.0000 -0.1413078908
C   C55       1.0  0.98160  0.55550  0.77240  1.0000 -0.157087545
C   C56       1.0  0.23290  0.50890  0.68700  1.0000 -0.0999751343
C   C57       1.0  0.01490  0.15150  0.72140  1.0000 -0.1413078908
C   C58       1.0  0.67140  0.58510  0.12340  1.0000 -0.0999751343
C   C59       1.0  0.59170  0.97960  0.74480  1.0000 -0.1671806206
C   C60       1.0  0.58930  0.05330  0.71270  1.0000 0.080037659
C   C61       1.0  0.46970  0.21520  0.59920  1.0000 0.5900545489
C   C62       1.0  0.06250  0.19350  0.67400  1.0000 -0.0999751343
C   C63       1.0  0.52780  0.17150  0.64300  1.0000 -0.0298297413
C   C64       1.0  0.73820  0.92910  0.85690  1.0000 0.5900545489
C   C65       1.0  0.53740  0.09800  0.66910  1.0000 -0.1413078908
C   C66       1.0  0.68740  0.97310  0.80480  1.0000 -0.020838878
C   C67       1.0  0.62690  0.53780  0.16350  1.0000 -0.157087545
C   C68       1.0  0.57370  0.20370  0.65770  1.0000 -0.1116326754
C   C69       1.0  0.68140  0.04450  0.77530  1.0000 -0.1413078908
C   C70       1.0  0.63340  0.08690  0.72840  1.0000 0.080037659
C   C71       1.0  0.64430  0.93900  0.78820  1.0000 -0.0999751343
C   C72       1.0  0.62620  0.16150  0.69910  1.0000 -0.1496948394
C   C73       1.0  0.53960  0.56740  0.60530  1.0000 0.5900545489
C   C74       1.0  0.05990  0.31070  0.11930  1.0000 0.5958451699
C   C75       1.0  0.02490  0.08090  0.11440  1.0000 0.5958451699
C   C76       1.0  0.79970  0.79240  0.39740  1.0000 0.5900545489
C   C77       1.0  0.82190  0.90970  0.31710  1.0000 -0.1413078908
C   C78       1.0  0.49080  0.45990  0.62300  1.0000 -0.0999751343
C   C79       1.0  0.49400  0.51230  0.65220  1.0000 -0.020838878
C   C80       1.0  0.00320  0.96490  0.19720  1.0000 -0.1413078908
C   C81       1.0  0.36550  0.35970  0.77840  1.0000 -0.1413078908
C   C82       1.0  0.45710  0.51220  0.72170  1.0000 -0.1496948394
C   C83       1.0  0.01510  0.36310  0.16800  1.0000 -0.020838878
C   C84       1.0  0.87050  0.95320  0.26620  1.0000 0.080037659
C   C85       1.0  0.41070  0.40970  0.73580  1.0000 0.0701311084
C   C86       1.0  0.85310  0.83700  0.34630  1.0000 -0.0361134936
C   C87       1.0  0.45130  0.40920  0.66390  1.0000 -0.1413078908
C   C88       1.0  0.95440  0.92110  0.24760  1.0000 0.080037659
C   C89       1.0  0.05690  0.39570  0.18540  1.0000 -0.0904039633
C   C90       1.0  0.97110  0.03680  0.16730  1.0000 -0.0298297413
C   C91       1.0  0.95850  0.39090  0.73230  1.0000 0.0701311084
C   C92       1.0  0.00790  0.34450  0.77770  1.0000 -0.1496948394
C   C93       1.0  0.89170  0.50730  0.30360  1.0000 -0.1496948394
C   C94       1.0  0.41110  0.00280  0.65910  1.0000 -0.1496948394
C   C95       1.0  0.45860  0.95310  0.61830  1.0000 -0.0999751343
C   C96       1.0  0.48180  0.87800  0.64800  1.0000 -0.0298297413
C   C97       1.0  0.38390  0.97860  0.73290  1.0000 0.0631205659
C   C98       1.0  0.85990  0.49120  0.64530  1.0000 -0.0298297413
C   C99       1.0  0.93320  0.46070  0.25680  1.0000 0.080037659
C   C100      1.0  0.94000  0.45710  0.61540  1.0000 -0.0999751343
C   C101      1.0  0.53590  0.82510  0.60250  1.0000 0.5900545489
C   C102      1.0  0.88840  0.06750  0.18720  1.0000 -0.0904039633
C   C103      1.0  0.98840  0.40640  0.65750  1.0000 -0.1496948394
C   C104      1.0  0.33650  0.92620  0.88050  1.0000 -0.0999751343
C   C105      1.0  0.32470  0.36140  0.84770  1.0000 -0.0298297413
C   C106      1.0  0.37950  0.87800  0.84000  1.0000 -0.1496948394
C   C107      1.0  0.76740  0.57170  0.38230  1.0000 0.5900545489
C   C108      1.0  0.97800  0.33280  0.84970  1.0000 -0.020838878
C   C109      1.0  0.27630  0.30940  0.89210  1.0000 0.5900545489
C   C110      1.0  0.80700  0.54650  0.59980  1.0000 0.5900545489
C   C111      1.0  0.33760  0.02690  0.77770  1.0000 -0.1496948394
C   C112      1.0  0.31360  0.00150  0.84990  1.0000 -0.020838878
C   C113      1.0  0.83810  0.02800  0.23580  1.0000 -0.157087545
C   C114      1.0  0.80990  0.52240  0.33200  1.0000 -0.020838878
C   C115      1.0  0.40670  0.90220  0.76400  1.0000 0.0701311084
C   C116      1.0  0.26550  0.05530  0.89640  1.0000 0.5900545489
C   C117      1.0  0.45590  0.85300  0.71960  1.0000 -0.1496948394
C   C118      1.0  0.03250  0.28660  0.89680  1.0000 0.5900545489
C   C119      1.0  0.89620  0.36840  0.87880  1.0000 -0.0999751343
C   C120      1.0  0.93250  0.37950  0.19470  1.0000 -0.1413078908
C   C121      1.0  0.84780  0.41220  0.83820  1.0000 -0.1496948394
C   C122      1.0  0.89030  0.42760  0.23910  1.0000 0.0701311084
C   C123      1.0  0.87650  0.42650  0.76210  1.0000 0.0701311084
C   C124      1.0  0.41380  0.46200  0.76500  1.0000 0.0701311084
C   C125      1.0  0.82790  0.47550  0.71750  1.0000 -0.1496948394
C   C126      1.0  0.80670  0.44480  0.26820  1.0000 -0.1413078908
C   C127      1.0  0.01840  0.44450  0.22760  1.0000 -0.157087545
C   C128      1.0  0.76710  0.49110  0.31300  1.0000 -0.0999751343
C   C129      1.0  0.98510  0.84850  0.27860  1.0000 -0.1413078908
C   C130      1.0  0.32860  0.41490  0.87660  1.0000 -0.0999751343
C   C131      1.0  0.40830  0.02040  0.25520  1.0000 -0.1671806206
C   C132      1.0  0.41070  0.94670  0.28730  1.0000 0.080037659
C   C133      1.0  0.53030  0.78480  0.40080  1.0000 0.5900545489
C   C134      1.0  0.93750  0.80650  0.32600  1.0000 -0.0999751343
C   C135      1.0  0.47220  0.82850  0.35700  1.0000 -0.0298297413
C   C136      1.0  0.26180  0.07090  0.14310  1.0000 0.5900545489
C   C137      1.0  0.46260  0.90200  0.33090  1.0000 -0.1413078908
C   C138      1.0  0.31260  0.02690  0.19520  1.0000 -0.020838878
C   C139      1.0  0.37310  0.46220  0.83650  1.0000 -0.157087545
C   C140      1.0  0.42630  0.79630  0.34230  1.0000 -0.1116326754
C   C141      1.0  0.31860  0.95550  0.22470  1.0000 -0.1413078908
C   C142      1.0  0.36660  0.91310  0.27160  1.0000 0.080037659
C   C143      1.0  0.35570  0.06100  0.21180  1.0000 -0.0999751343
C   C144      1.0  0.37380  0.83850  0.30090  1.0000 -0.1496948394
O   O1        1.0  0.33436  0.31732  0.48980  1.0000 -1.0238230754
O   O2        1.0  0.83428  0.81613  0.99137  1.0000 -1.0300691653
O   O3        1.0  0.00620  0.85140  0.90356  1.0000 -0.5309913901
O   O4        1.0  0.15640  0.42470  0.46280  1.0000 -0.539294482
O   O5        1.0  0.43030  0.14789  0.45914  1.0000 -0.5237627108
O   O6        1.0  0.19140  0.40440  0.59990  1.0000 -0.539294482
O   O7        1.0  0.27420  0.17412  0.58436  1.0000 -0.539294482
O   O8        1.0  0.90270  0.95270  0.90710  1.0000 -0.539294482
O   O9        1.0  0.30780  0.41410  0.59730  1.0000 -0.5309913901
O   O10       1.0  0.43910  0.42840  0.45977  1.0000 -0.5237627108
O   O11       1.0  0.98580  0.71120  0.89800  1.0000 -0.549676456
O   O12       1.0  0.73210  0.72900  0.14030  1.0000 -0.539294482
O   O13       1.0  0.46290  0.28324  0.57665  1.0000 -0.539294482
O   O14       1.0  0.75300  0.97130  0.03757  1.0000 -0.539294482
O   O15       1.0  0.00010  0.72190  0.03732  1.0000 -0.539294482
O   O16       1.0  0.74400  0.96810  0.89120  1.0000 -0.539294482
O   O17       1.0  0.44660  0.39590  0.36567  1.0000 -0.5309913901
O   O18       1.0  0.89560  0.74100  0.13166  1.0000 -0.5309913901
O   O19       1.0  0.74990  0.87770  0.13396  1.0000 -0.539294482
O   O20       1.0  0.43220  0.18260  0.58860  1.0000 -0.5309913901
O   O21       1.0  0.16750  0.27430  0.57922  1.0000 -0.539294482
O   O22       1.0  0.86700  0.70680  0.89888  1.0000 -0.5019835759
O   O23       1.0  0.26640  0.43970  0.37587  1.0000 -0.5592237045
O   O24       1.0  0.45550  0.24180  0.37050  1.0000 -0.5696487953
O   O25       1.0  0.75660  0.69030  0.04520  1.0000 -0.549676456
O   O26       1.0  0.76241  0.86330  0.86618  1.0000 -0.539294482
O   O27       1.0  0.66564  0.68268  0.51020  1.0000 -1.0238230754
O   O28       1.0  0.16572  0.18387  0.00863  1.0000 -1.0300691653
O   O29       1.0  0.99380  0.14860  0.09644  1.0000 -0.5309913901
O   O30       1.0  0.84360  0.57530  0.53720  1.0000 -0.539294482
O   O31       1.0  0.56970  0.85211  0.54086  1.0000 -0.5237627108
O   O32       1.0  0.80860  0.59560  0.40010  1.0000 -0.539294482
O   O33       1.0  0.72580  0.82588  0.41564  1.0000 -0.539294482
O   O34       1.0  0.09730  0.04730  0.09290  1.0000 -0.539294482
O   O35       1.0  0.69220  0.58590  0.40270  1.0000 -0.5309913901
O   O36       1.0  0.56090  0.57160  0.54023  1.0000 -0.5237627108
O   O37       1.0  0.01420  0.28880  0.10200  1.0000 -0.549676456
O   O38       1.0  0.26790  0.27100  0.85970  1.0000 -0.539294482
O   O39       1.0  0.53710  0.71676  0.42335  1.0000 -0.539294482
O   O40       1.0  0.24700  0.02870  0.96243  1.0000 -0.539294482
O   O41       1.0  0.99990  0.27810  0.96268  1.0000 -0.539294482
O   O42       1.0  0.25600  0.03190  0.10880  1.0000 -0.539294482
O   O43       1.0  0.55340  0.60410  0.63433  1.0000 -0.5309913901
O   O44       1.0  0.10440  0.25900  0.86834  1.0000 -0.5309913901
O   O45       1.0  0.25010  0.12230  0.86604  1.0000 -0.539294482
O   O46       1.0  0.56780  0.81740  0.41140  1.0000 -0.5309913901
O   O47       1.0  0.83250  0.72570  0.42078  1.0000 -0.539294482
O   O48       1.0  0.13300  0.29320  0.10112  1.0000 -0.5019835759
O   O49       1.0  0.73360  0.56030  0.62413  1.0000 -0.5592237045
O   O50       1.0  0.54450  0.75820  0.62950  1.0000 -0.5696487953
O   O51       1.0  0.24340  0.30970  0.95480  1.0000 -0.549676456
O   O52       1.0  0.23759  0.13670  0.13382  1.0000 -0.5309913901
