# DDEC6 charges by PACMAN v1.1 (https://github.com/mtap-research/PACMAN-charge/)
data_2012[Zn][sit]3[ASR]1
_chemical_formula_sum              "Zn16 H264 C312 O80"
_cell_length_a       26.1041
_cell_length_b       26.1041
_cell_length_c       26.1041
_cell_angle_alpha    124.43
_cell_angle_beta     124.43
_cell_angle_gamma    82.4839

_symmetry_space_group_name_H-M    "P 1"
_symmetry_Int_Tables_number       1

loop_
  _symmetry_equiv_pos_as_xyz
  'x, y, z'

loop_
  _atom_site_type_symbol
  _atom_site_label
  _atom_site_symmetry_multiplicity
  _atom_site_fract_x
  _atom_site_fract_y
  _atom_site_fract_z
  _atom_site_occupancy
  _atom_site_charge
Zn  Zn1       1.0  0.06217  0.64854  0.63975  1.0000 0.8661391233
Zn  Zn2       1.0  0.00879  0.42242  0.36025  1.0000 0.8661391233
Zn  Zn3       1.0  0.06900  0.76817  0.78999  1.0000 0.9893558939
Zn  Zn4       1.0  0.97818  0.27901  0.21001  1.0000 0.9893558939
Zn  Zn5       1.0  0.17242  0.31217  0.91363  1.0000 0.8661391233
Zn  Zn6       1.0  0.39854  0.25879  0.08637  1.0000 0.8661391233
Zn  Zn7       1.0  0.02901  0.31900  0.80083  1.0000 0.9893558939
Zn  Zn8       1.0  0.51817  0.22818  0.19917  1.0000 0.9893558939
Zn  Zn9       1.0  0.68783  0.60146  0.86025  1.0000 0.8661391233
Zn  Zn10      1.0  0.74121  0.82758  0.13975  1.0000 0.8661391233
Zn  Zn11      1.0  0.68100  0.48183  0.71001  1.0000 0.9893558939
Zn  Zn12      1.0  0.77182  0.97099  0.28999  1.0000 0.9893558939
Zn  Zn13      1.0  0.57758  0.93783  0.58637  1.0000 0.8661391233
Zn  Zn14      1.0  0.35146  0.99121  0.41363  1.0000 0.8661391233
Zn  Zn15      1.0  0.72099  0.93100  0.69917  1.0000 0.9893558939
Zn  Zn16      1.0  0.23183  0.02182  0.30083  1.0000 0.9893558939
H   H1        1.0  0.14280  0.81390  0.67510  1.0000 0.1405617465
H   H2        1.0  0.13880  0.46770  0.32490  1.0000 0.1405617465
H   H3        1.0  0.14330  0.90970  0.79700  1.0000 0.1187910263
H   H4        1.0  0.11270  0.34630  0.20300  1.0000 0.1187910263
H   H5        1.0  0.18770  0.01580  0.85650  1.0000 0.1187910263
H   H6        1.0  0.15930  0.33120  0.14350  1.0000 0.1187910263
H   H7        1.0  0.23070  0.09580  0.86730  1.0000 0.1291130864
H   H8        1.0  0.22850  0.36340  0.13270  1.0000 0.1291130864
H   H9        1.0  0.20880  0.96000  0.66980  1.0000 0.1405617465
H   H10       1.0  0.29020  0.53900  0.33020  1.0000 0.1405617465
H   H11       1.0  0.17350  0.88170  0.66860  1.0000 0.1097365406
H   H12       1.0  0.21310  0.50490  0.33140  1.0000 0.1097365406
H   H13       1.0  0.24020  0.16320  0.83440  1.0000 0.0892126277
H   H14       1.0  0.32880  0.40580  0.16560  1.0000 0.0892126277
H   H15       1.0  0.30710  0.15180  0.88090  1.0000 0.0892126277
H   H16       1.0  0.27090  0.42620  0.11910  1.0000 0.0892126277
H   H17       1.0  0.45420  0.17270  0.91450  1.0000 0.1291130864
H   H18       1.0  0.25820  0.53970  0.08550  1.0000 0.1291130864
H   H19       1.0  0.41340  0.19170  0.94610  1.0000 0.1291130864
H   H20       1.0  0.24560  0.46730  0.05390  1.0000 0.1291130864
H   H21       1.0  0.39500  0.12060  0.87480  1.0000 0.1291130864
H   H22       1.0  0.24580  0.52020  0.12520  1.0000 0.1291130864
H   H23       1.0  0.18110  0.16570  0.74900  1.0000 0.1187910263
H   H24       1.0  0.41670  0.43210  0.25100  1.0000 0.1187910263
H   H25       1.0  0.18190  0.22540  0.74850  1.0000 0.1291130864
H   H26       1.0  0.47690  0.43340  0.25150  1.0000 0.1291130864
H   H27       1.0  0.16680  0.15610  0.67670  1.0000 0.1291130864
H   H28       1.0  0.47940  0.49010  0.32330  1.0000 0.1291130864
H   H29       1.0  0.42860  0.25910  0.78750  1.0000 0.1187910263
H   H30       1.0  0.47160  0.64110  0.21250  1.0000 0.1187910263
H   H31       1.0  0.36080  0.23290  0.70830  1.0000 0.1291130864
H   H32       1.0  0.52460  0.65250  0.29170  1.0000 0.1291130864
H   H33       1.0  0.38040  0.30190  0.78310  1.0000 0.1291130864
H   H34       1.0  0.51880  0.59730  0.21690  1.0000 0.1291130864
H   H35       1.0  0.27660  0.29050  0.73310  1.0000 0.0892126277
H   H36       1.0  0.55740  0.54350  0.26690  1.0000 0.0892126277
H   H37       1.0  0.21390  0.25840  0.71150  1.0000 0.0892126277
H   H38       1.0  0.54690  0.50240  0.28850  1.0000 0.0892126277
H   H39       1.0  0.18870  0.30140  0.64930  1.0000 0.1097365406
H   H40       1.0  0.65210  0.53940  0.35070  1.0000 0.1097365406
H   H41       1.0  0.13230  0.32160  0.55990  1.0000 0.1097365406
H   H42       1.0  0.76170  0.57240  0.44010  1.0000 0.1097365406
H   H43       1.0  0.14600  0.16900  0.41180  1.0000 0.1187910263
H   H44       1.0  0.75720  0.73420  0.58820  1.0000 0.1187910263
H   H45       1.0  0.20150  0.14440  0.50170  1.0000 0.1405617465
H   H46       1.0  0.64270  0.69980  0.49830  1.0000 0.1405617465
H   H47       1.0  0.09400  0.24020  0.38000  1.0000 0.1187910263
H   H48       1.0  0.86020  0.71400  0.62000  1.0000 0.1187910263
H   H49       1.0  0.08550  0.34300  0.48470  1.0000 0.1463583895
H   H50       1.0  0.85830  0.60080  0.51530  1.0000 0.1463583895
H   H51       1.0  0.46460  0.20570  0.81510  1.0000 0.0892126277
H   H52       1.0  0.39060  0.64950  0.18490  1.0000 0.0892126277
H   H53       1.0  0.47310  0.17330  0.85420  1.0000 0.0966952407
H   H54       1.0  0.31910  0.61890  0.14580  1.0000 0.0966952407
H   H55       1.0  0.56830  0.19940  0.87830  1.0000 0.1291130864
H   H56       1.0  0.32110  0.69000  0.12170  1.0000 0.1291130864
H   H57       1.0  0.68010  0.21550  0.95360  1.0000 0.1187910263
H   H58       1.0  0.26190  0.72650  0.04640  1.0000 0.1187910263
H   H59       1.0  0.70080  0.38660  0.12900  1.0000 0.1097365406
H   H60       1.0  0.25760  0.57180  0.87100  1.0000 0.1097365406
H   H61       1.0  0.58920  0.36283  0.05963  1.0000 0.1291130864
H   H62       1.0  0.30320  0.52957  0.94037  1.0000 0.1291130864
H   H63       1.0  0.78710  0.27310  0.07160  1.0000 0.1097365406
H   H64       1.0  0.20150  0.71550  0.92840  1.0000 0.1097365406
H   H65       1.0  0.79900  0.38310  0.19350  1.0000 0.1405617465
H   H66       1.0  0.18960  0.60550  0.80650  1.0000 0.1405617465
H   H67       1.0  0.21770  0.39280  0.82890  1.0000 0.1405617465
H   H68       1.0  0.56390  0.38880  0.17110  1.0000 0.1405617465
H   H69       1.0  0.09630  0.39330  0.73360  1.0000 0.1187910263
H   H70       1.0  0.65970  0.36270  0.26640  1.0000 0.1187910263
H   H71       1.0  0.08120  0.43770  0.67190  1.0000 0.1187910263
H   H72       1.0  0.76580  0.40930  0.32810  1.0000 0.1187910263
H   H73       1.0  0.11340  0.48070  0.63490  1.0000 0.1291130864
H   H74       1.0  0.84580  0.47850  0.36510  1.0000 0.1291130864
H   H75       1.0  0.28900  0.45880  0.74880  1.0000 0.1405617465
H   H76       1.0  0.71000  0.54020  0.25120  1.0000 0.1405617465
H   H77       1.0  0.25490  0.42350  0.79180  1.0000 0.1097365406
H   H78       1.0  0.63170  0.46310  0.20820  1.0000 0.1097365406
H   H79       1.0  0.15580  0.49020  0.57700  1.0000 0.0892126277
H   H80       1.0  0.91320  0.57880  0.42300  1.0000 0.0892126277
H   H81       1.0  0.17620  0.55710  0.65530  1.0000 0.0892126277
H   H82       1.0  0.90180  0.52090  0.34470  1.0000 0.0892126277
H   H83       1.0  0.28970  0.70420  0.78150  1.0000 0.1291130864
H   H84       1.0  0.92270  0.50820  0.21850  1.0000 0.1291130864
H   H85       1.0  0.21730  0.66340  0.72170  1.0000 0.1291130864
H   H86       1.0  0.94170  0.49560  0.27830  1.0000 0.1291130864
H   H87       1.0  0.27020  0.64500  0.77440  1.0000 0.1291130864
H   H88       1.0  0.87060  0.49580  0.22560  1.0000 0.1291130864
H   H89       1.0  0.18210  0.43110  0.51540  1.0000 0.1187910263
H   H90       1.0  0.91570  0.66667  0.48460  1.0000 0.1187910263
H   H91       1.0  0.18340  0.43190  0.45650  1.0000 0.1291130864
H   H92       1.0  0.97540  0.72690  0.54350  1.0000 0.1291130864
H   H93       1.0  0.24010  0.41680  0.51070  1.0000 0.1291130864
H   H94       1.0  0.90610  0.72940  0.48930  1.0000 0.1291130864
H   H95       1.0  0.39110  0.67860  0.66950  1.0000 0.1187910263
H   H96       1.0  0.00910  0.72160  0.33050  1.0000 0.1187910263
H   H97       1.0  0.40250  0.61080  0.62790  1.0000 0.1291130864
H   H98       1.0  0.98290  0.77460  0.37210  1.0000 0.1291130864
H   H99       1.0  0.34730  0.63040  0.57850  1.0000 0.1291130864
H   H100      1.0  0.05190  0.76880  0.42150  1.0000 0.1291130864
H   H101      1.0  0.29350  0.52660  0.48610  1.0000 0.0892126277
H   H102      1.0  0.04050  0.80740  0.51390  1.0000 0.0892126277
H   H103      1.0  0.25240  0.46390  0.45550  1.0000 0.0892126277
H   H104      1.0  0.00840  0.79690  0.54450  1.0000 0.0892126277
H   H105      1.0  0.28940  0.43870  0.38730  1.0000 0.1097365406
H   H106      1.0  0.05140  0.90210  0.61270  1.0000 0.1097365406
H   H107      1.0  0.32240  0.38230  0.31070  1.0000 0.1097365406
H   H108      1.0  0.07160  0.01170  0.68930  1.0000 0.1097365406
H   H109      1.0  0.48420  0.39600  0.47700  1.0000 0.1187910263
H   H110      1.0  0.91900  0.00720  0.52300  1.0000 0.1187910263
H   H111      1.0  0.44980  0.45150  0.55710  1.0000 0.1405617465
H   H112      1.0  0.89440  0.89270  0.44290  1.0000 0.1405617465
H   H113      1.0  0.46400  0.34400  0.35380  1.0000 0.1187910263
H   H114      1.0  0.99020  0.11020  0.64620  1.0000 0.1187910263
H   H115      1.0  0.35080  0.33550  0.24250  1.0000 0.1463583895
H   H116      1.0  0.09300  0.10830  0.75750  1.0000 0.1463583895
H   H117      1.0  0.39950  0.71460  0.75890  1.0000 0.0892126277
H   H118      1.0  0.95570  0.64060  0.24110  1.0000 0.0892126277
H   H119      1.0  0.36890  0.72310  0.79980  1.0000 0.0966952407
H   H120      1.0  0.92330  0.56910  0.20020  1.0000 0.0966952407
H   H121      1.0  0.44000  0.81830  0.86890  1.0000 0.1291130864
H   H122      1.0  0.94940  0.57110  0.13110  1.0000 0.1291130864
H   H123      1.0  0.47650  0.93010  0.96460  1.0000 0.1187910263
H   H124      1.0  0.96550  0.51190  0.03540  1.0000 0.1187910263
H   H125      1.0  0.32180  0.95080  0.81420  1.0000 0.1097365406
H   H126      1.0  0.13660  0.50760  0.18580  1.0000 0.1097365406
H   H127      1.0  0.27957  0.83920  0.72637  1.0000 0.1291130864
H   H128      1.0  0.11283  0.55320  0.27363  1.0000 0.1291130864
H   H129      1.0  0.46550  0.03710  0.01400  1.0000 0.1097365406
H   H130      1.0  0.02310  0.45150  0.98600  1.0000 0.1097365406
H   H131      1.0  0.35550  0.04900  0.91590  1.0000 0.1405617465
H   H132      1.0  0.13310  0.43960  0.08410  1.0000 0.1405617465
H   H133      1.0  0.60720  0.43610  0.82490  1.0000 0.1405617465
H   H134      1.0  0.61120  0.78230  0.17510  1.0000 0.1405617465
H   H135      1.0  0.60670  0.34030  0.70300  1.0000 0.1187910263
H   H136      1.0  0.63730  0.90370  0.29700  1.0000 0.1187910263
H   H137      1.0  0.56230  0.23420  0.64350  1.0000 0.1187910263
H   H138      1.0  0.59070  0.91880  0.35650  1.0000 0.1187910263
H   H139      1.0  0.51930  0.15420  0.63270  1.0000 0.1291130864
H   H140      1.0  0.52150  0.88660  0.36730  1.0000 0.1291130864
H   H141      1.0  0.54120  0.29000  0.83020  1.0000 0.1405617465
H   H142      1.0  0.45980  0.71100  0.16980  1.0000 0.1405617465
H   H143      1.0  0.57650  0.36830  0.83140  1.0000 0.1097365406
H   H144      1.0  0.53690  0.74510  0.16860  1.0000 0.1097365406
H   H145      1.0  0.50980  0.08680  0.66560  1.0000 0.0892126277
H   H146      1.0  0.42120  0.84420  0.33440  1.0000 0.0892126277
H   H147      1.0  0.44290  0.09820  0.61910  1.0000 0.0892126277
H   H148      1.0  0.47910  0.82380  0.38090  1.0000 0.0892126277
H   H149      1.0  0.29580  0.07730  0.58550  1.0000 0.1291130864
H   H150      1.0  0.49180  0.71030  0.41450  1.0000 0.1291130864
H   H151      1.0  0.33660  0.05830  0.55390  1.0000 0.1291130864
H   H152      1.0  0.50440  0.78270  0.44610  1.0000 0.1291130864
H   H153      1.0  0.35500  0.12940  0.62520  1.0000 0.1291130864
H   H154      1.0  0.50420  0.72980  0.37480  1.0000 0.1291130864
H   H155      1.0  0.56890  0.08430  0.75100  1.0000 0.1187910263
H   H156      1.0  0.33333  0.81790  0.24900  1.0000 0.1187910263
H   H157      1.0  0.56810  0.02460  0.75150  1.0000 0.1291130864
H   H158      1.0  0.27310  0.81660  0.24850  1.0000 0.1291130864
H   H159      1.0  0.58320  0.09390  0.82330  1.0000 0.1291130864
H   H160      1.0  0.27060  0.75990  0.17670  1.0000 0.1291130864
H   H161      1.0  0.32140  0.99090  0.71250  1.0000 0.1187910263
H   H162      1.0  0.27840  0.60890  0.28750  1.0000 0.1187910263
H   H163      1.0  0.38920  0.01710  0.79170  1.0000 0.1291130864
H   H164      1.0  0.22540  0.59750  0.20830  1.0000 0.1291130864
H   H165      1.0  0.36960  0.94810  0.71690  1.0000 0.1291130864
H   H166      1.0  0.23120  0.65270  0.28310  1.0000 0.1291130864
H   H167      1.0  0.47340  0.95950  0.76690  1.0000 0.0892126277
H   H168      1.0  0.19260  0.70650  0.23310  1.0000 0.0892126277
H   H169      1.0  0.53610  0.99160  0.78850  1.0000 0.0892126277
H   H170      1.0  0.20310  0.74760  0.21150  1.0000 0.0892126277
H   H171      1.0  0.56130  0.94860  0.85070  1.0000 0.1097365406
H   H172      1.0  0.09790  0.71060  0.14930  1.0000 0.1097365406
H   H173      1.0  0.61770  0.92840  0.94010  1.0000 0.1097365406
H   H174      1.0  0.98830  0.67760  0.05990  1.0000 0.1097365406
H   H175      1.0  0.60400  0.08100  0.08820  1.0000 0.1187910263
H   H176      1.0  0.99280  0.51580  0.91180  1.0000 0.1187910263
H   H177      1.0  0.54850  0.10560  0.99830  1.0000 0.1405617465
H   H178      1.0  0.10730  0.55020  0.00170  1.0000 0.1405617465
H   H179      1.0  0.65600  0.00980  0.12000  1.0000 0.1187910263
H   H180      1.0  0.88980  0.53600  0.88000  1.0000 0.1187910263
H   H181      1.0  0.66450  0.90700  0.01530  1.0000 0.1463583895
H   H182      1.0  0.89170  0.64920  0.98470  1.0000 0.1463583895
H   H183      1.0  0.28540  0.04430  0.68490  1.0000 0.0892126277
H   H184      1.0  0.35940  0.60050  0.31510  1.0000 0.0892126277
H   H185      1.0  0.27690  0.07670  0.64580  1.0000 0.0966952407
H   H186      1.0  0.43090  0.63110  0.35420  1.0000 0.0966952407
H   H187      1.0  0.18170  0.05060  0.62170  1.0000 0.1291130864
H   H188      1.0  0.42890  0.56000  0.37830  1.0000 0.1291130864
H   H189      1.0  0.06990  0.03450  0.54640  1.0000 0.1187910263
H   H190      1.0  0.48810  0.52350  0.45360  1.0000 0.1187910263
H   H191      1.0  0.04920  0.86340  0.37100  1.0000 0.1097365406
H   H192      1.0  0.49240  0.67820  0.62900  1.0000 0.1097365406
H   H193      1.0  0.16080  0.88717  0.44037  1.0000 0.1291130864
H   H194      1.0  0.44680  0.72043  0.55963  1.0000 0.1291130864
H   H195      1.0  0.96290  0.97690  0.42840  1.0000 0.1097365406
H   H196      1.0  0.54850  0.53450  0.57160  1.0000 0.1097365406
H   H197      1.0  0.95100  0.86690  0.30650  1.0000 0.1405617465
H   H198      1.0  0.56040  0.64450  0.69350  1.0000 0.1405617465
H   H199      1.0  0.53230  0.85720  0.67110  1.0000 0.1405617465
H   H200      1.0  0.18610  0.86120  0.32890  1.0000 0.1405617465
H   H201      1.0  0.65370  0.85670  0.76640  1.0000 0.1187910263
H   H202      1.0  0.09030  0.88730  0.23360  1.0000 0.1187910263
H   H203      1.0  0.66880  0.81230  0.82810  1.0000 0.1187910263
H   H204      1.0  0.98420  0.84070  0.17190  1.0000 0.1187910263
H   H205      1.0  0.63660  0.76930  0.86510  1.0000 0.1291130864
H   H206      1.0  0.90420  0.77150  0.13490  1.0000 0.1291130864
H   H207      1.0  0.46100  0.79120  0.75120  1.0000 0.1405617465
H   H208      1.0  0.04000  0.70980  0.24880  1.0000 0.1405617465
H   H209      1.0  0.49510  0.82650  0.70820  1.0000 0.1097365406
H   H210      1.0  0.11830  0.78690  0.29180  1.0000 0.1097365406
H   H211      1.0  0.59420  0.75980  0.92300  1.0000 0.0892126277
H   H212      1.0  0.83680  0.67120  0.07700  1.0000 0.0892126277
H   H213      1.0  0.57380  0.69290  0.84470  1.0000 0.0892126277
H   H214      1.0  0.84820  0.72910  0.15530  1.0000 0.0892126277
H   H215      1.0  0.46030  0.54580  0.71850  1.0000 0.1291130864
H   H216      1.0  0.82730  0.74180  0.28150  1.0000 0.1291130864
H   H217      1.0  0.53270  0.58660  0.77830  1.0000 0.1291130864
H   H218      1.0  0.80830  0.75440  0.22170  1.0000 0.1291130864
H   H219      1.0  0.47980  0.60500  0.72560  1.0000 0.1291130864
H   H220      1.0  0.87940  0.75420  0.27440  1.0000 0.1291130864
H   H221      1.0  0.56790  0.81890  0.98460  1.0000 0.1187910263
H   H222      1.0  0.83430  0.58330  0.01540  1.0000 0.1187910263
H   H223      1.0  0.56660  0.81810  0.04350  1.0000 0.1291130864
H   H224      1.0  0.77460  0.52310  0.95650  1.0000 0.1291130864
H   H225      1.0  0.50990  0.83320  0.98930  1.0000 0.1291130864
H   H226      1.0  0.84390  0.52060  0.01070  1.0000 0.1291130864
H   H227      1.0  0.35890  0.57140  0.83050  1.0000 0.1187910263
H   H228      1.0  0.74090  0.52840  0.16950  1.0000 0.1187910263
H   H229      1.0  0.34750  0.63920  0.87210  1.0000 0.1291130864
H   H230      1.0  0.76710  0.47540  0.12790  1.0000 0.1291130864
H   H231      1.0  0.40270  0.61960  0.92150  1.0000 0.1291130864
H   H232      1.0  0.69810  0.48120  0.07850  1.0000 0.1291130864
H   H233      1.0  0.45650  0.72340  0.01390  1.0000 0.0892126277
H   H234      1.0  0.70950  0.44260  0.98610  1.0000 0.0892126277
H   H235      1.0  0.49760  0.78610  0.04450  1.0000 0.0892126277
H   H236      1.0  0.74160  0.45310  0.95550  1.0000 0.0892126277
H   H237      1.0  0.46060  0.81130  0.11270  1.0000 0.1097365406
H   H238      1.0  0.69860  0.34790  0.88730  1.0000 0.1097365406
H   H239      1.0  0.42760  0.86770  0.18930  1.0000 0.1097365406
H   H240      1.0  0.67840  0.23830  0.81070  1.0000 0.1097365406
H   H241      1.0  0.26580  0.85400  0.02300  1.0000 0.1187910263
H   H242      1.0  0.83100  0.24280  0.97700  1.0000 0.1187910263
H   H243      1.0  0.30020  0.79850  0.94290  1.0000 0.1405617465
H   H244      1.0  0.85560  0.35730  0.05710  1.0000 0.1405617465
H   H245      1.0  0.28600  0.90600  0.14620  1.0000 0.1187910263
H   H246      1.0  0.75980  0.13980  0.85380  1.0000 0.1187910263
H   H247      1.0  0.39920  0.91450  0.25750  1.0000 0.1463583895
H   H248      1.0  0.65700  0.14170  0.74250  1.0000 0.1463583895
H   H249      1.0  0.35050  0.53540  0.74110  1.0000 0.0892126277
H   H250      1.0  0.79430  0.60940  0.25890  1.0000 0.0892126277
H   H251      1.0  0.38110  0.52690  0.70020  1.0000 0.0966952407
H   H252      1.0  0.82670  0.68090  0.29980  1.0000 0.0966952407
H   H253      1.0  0.31000  0.43170  0.63110  1.0000 0.1291130864
H   H254      1.0  0.80060  0.67890  0.36890  1.0000 0.1291130864
H   H255      1.0  0.27350  0.31990  0.53540  1.0000 0.1187910263
H   H256      1.0  0.78450  0.73810  0.46460  1.0000 0.1187910263
H   H257      1.0  0.42820  0.29920  0.68580  1.0000 0.1097365406
H   H258      1.0  0.61340  0.74240  0.31420  1.0000 0.1097365406
H   H259      1.0  0.47043  0.41080  0.77363  1.0000 0.1291130864
H   H260      1.0  0.63717  0.69680  0.22637  1.0000 0.1291130864
H   H261      1.0  0.28450  0.21290  0.48600  1.0000 0.1097365406
H   H262      1.0  0.72690  0.79850  0.51400  1.0000 0.1097365406
H   H263      1.0  0.39450  0.20100  0.58410  1.0000 0.1405617465
H   H264      1.0  0.61690  0.81040  0.41590  1.0000 0.1405617465
C   C1        1.0  0.11010  0.78250  0.71400  1.0000 0.6423240621
C   C2        1.0  0.06850  0.39610  0.28600  1.0000 0.6423240621
C   C3        1.0  0.13610  0.83080  0.71250  1.0000 -0.2214736509
C   C4        1.0  0.11830  0.42360  0.28750  1.0000 -0.2214736509
C   C5        1.0  0.14970  0.89390  0.75960  1.0000 -0.0884378468
C   C6        1.0  0.13430  0.39010  0.24040  1.0000 -0.0884378468
C   C7        1.0  0.17309  0.94169  0.76140  1.0000 0.0726388936
C   C8        1.0  0.18029  0.41169  0.23860  1.0000 0.0726388936
C   C9        1.0  0.19210  0.00380  0.81850  1.0000 -0.1365327052
C   C10       1.0  0.18530  0.37360  0.18150  1.0000 -0.1365327052
C   C11       1.0  0.21817  0.05257  0.82600  1.0000 -0.2214736509
C   C12       1.0  0.22657  0.39217  0.17400  1.0000 -0.2214736509
C   C13       1.0  0.22483  0.03413  0.76890  1.0000 0.2174106763
C   C14       1.0  0.26523  0.45593  0.23110  1.0000 0.2174106763
C   C15       1.0  0.20622  0.97182  0.70900  1.0000 -0.2029948482
C   C16       1.0  0.26282  0.49722  0.29100  1.0000 -0.2029948482
C   C17       1.0  0.18289  0.92519  0.70730  1.0000 -0.152622871
C   C18       1.0  0.21789  0.47559  0.29270  1.0000 -0.152622871
C   C19       1.0  0.27431  0.14511  0.83200  1.0000 -0.0491239674
C   C20       1.0  0.31311  0.44231  0.16800  1.0000 -0.0491239674
C   C21       1.0  0.30329  0.17649  0.81720  1.0000 -0.0491239674
C   C22       1.0  0.35929  0.48609  0.18280  1.0000 -0.0491239674
C   C23       1.0  0.26417  0.19487  0.76870  1.0000 0.0892126277
C   C24       1.0  0.42617  0.49547  0.23130  1.0000 0.0892126277
C   C25       1.0  0.29027  0.22357  0.75470  1.0000 -0.0554032008
C   C26       1.0  0.46887  0.53557  0.24530  1.0000 -0.0554032008
C   C27       1.0  0.35467  0.22897  0.78230  1.0000 0.0892126277
C   C28       1.0  0.44667  0.57237  0.21770  1.0000 0.0892126277
C   C29       1.0  0.39451  0.20751  0.82780  1.0000 -0.0434072268
C   C30       1.0  0.37971  0.56671  0.17220  1.0000 -0.0434072268
C   C31       1.0  0.36806  0.18236  0.84630  1.0000 0.0892126277
C   C32       1.0  0.33606  0.52176  0.15370  1.0000 0.0892126277
C   C33       1.0  0.41149  0.16529  0.90020  1.0000 -0.4706758142
C   C34       1.0  0.26509  0.51129  0.09980  1.0000 -0.4706758142
C   C35       1.0  0.19160  0.18450  0.73230  1.0000 -0.4706758142
C   C36       1.0  0.45220  0.45930  0.26770  1.0000 -0.4706758142
C   C37       1.0  0.38390  0.25860  0.76350  1.0000 -0.4706758142
C   C38       1.0  0.49510  0.62040  0.23650  1.0000 -0.4706758142
C   C39       1.0  0.25077  0.25027  0.71050  1.0000 -0.067786381
C   C40       1.0  0.53977  0.54027  0.28950  1.0000 -0.067786381
C   C41       1.0  0.19780  0.21970  0.58210  1.0000 0.2174106763
C   C42       1.0  0.63760  0.61570  0.41790  1.0000 0.2174106763
C   C43       1.0  0.17940  0.27240  0.60040  1.0000 -0.2091825245
C   C44       1.0  0.67200  0.57900  0.39960  1.0000 -0.2091825245
C   C45       1.0  0.14610  0.28430  0.54640  1.0000 -0.1365327052
C   C46       1.0  0.73790  0.59970  0.45360  1.0000 -0.1365327052
C   C47       1.0  0.13310  0.24860  0.48010  1.0000 0.0726388936
C   C48       1.0  0.76850  0.65300  0.51990  1.0000 0.0726388936
C   C49       1.0  0.15350  0.19570  0.45980  1.0000 -0.152622871
C   C50       1.0  0.73590  0.69370  0.54020  1.0000 -0.152622871
C   C51       1.0  0.18700  0.18130  0.51430  1.0000 -0.2091825245
C   C52       1.0  0.66700  0.67270  0.48570  1.0000 -0.2091825245
C   C53       1.0  0.10000  0.26770  0.42710  1.0000 -0.0766528271
C   C54       1.0  0.84060  0.67290  0.57290  1.0000 -0.0766528271
C   C55       1.0  0.08010  0.31440  0.43810  1.0000 -0.1758343707
C   C56       1.0  0.87630  0.64200  0.56190  1.0000 -0.1758343707
C   C57       1.0  0.46123  0.20913  0.85210  1.0000 -0.067786381
C   C58       1.0  0.35703  0.60913  0.14790  1.0000 -0.067786381
C   C59       1.0  0.56869  0.27659  0.96330  1.0000 0.2257055772
C   C60       1.0  0.31329  0.60539  0.03670  1.0000 0.2257055772
C   C61       1.0  0.59450  0.23490  0.93040  1.0000 -0.2214736509
C   C62       1.0  0.30450  0.66410  0.06960  1.0000 -0.2214736509
C   C63       1.0  0.66230  0.24550  0.97580  1.0000 -0.1290323701
C   C64       1.0  0.26970  0.68650  0.02420  1.0000 -0.1290323701
C   C65       1.0  0.70110  0.29740  0.04950  1.0000 0.0892126277
C   C66       1.0  0.24790  0.65160  0.95050  1.0000 0.0892126277
C   C67       1.0  0.67430  0.34670  0.08100  1.0000 -0.1290323701
C   C68       1.0  0.26570  0.59330  0.91900  1.0000 -0.1290323701
C   C69       1.0  0.60790  0.33340  0.03810  1.0000 -0.2029948482
C   C70       1.0  0.29530  0.56980  0.96190  1.0000 -0.2029948482
C   C71       1.0  0.77200  0.30470  0.09690  1.0000 -0.0766528271
C   C72       1.0  0.20780  0.67510  0.90310  1.0000 -0.0766528271
C   C73       1.0  0.81400  0.35050  0.16910  1.0000 -0.2091825245
C   C74       1.0  0.18140  0.64490  0.83090  1.0000 -0.2091825245
C   C75       1.0  0.88580  0.35680  0.21900  1.0000 0.6423240621
C   C76       1.0  0.13780  0.66680  0.78100  1.0000 0.6423240621
C   C77       1.0  0.04600  0.32900  0.37860  1.0000 0.6157536824
C   C78       1.0  0.95040  0.66740  0.62140  1.0000 0.6157536824
C   C79       1.0  0.14610  0.36010  0.82760  1.0000 0.6423240621
C   C80       1.0  0.53250  0.31850  0.17240  1.0000 0.6423240621
C   C81       1.0  0.17360  0.38610  0.80530  1.0000 -0.2214736509
C   C82       1.0  0.58080  0.36830  0.19470  1.0000 -0.2214736509
C   C83       1.0  0.14010  0.39970  0.75580  1.0000 -0.0884378468
C   C84       1.0  0.64390  0.38430  0.24420  1.0000 -0.0884378468
C   C85       1.0  0.16169  0.42309  0.73140  1.0000 0.0726388936
C   C86       1.0  0.69169  0.43029  0.26860  1.0000 0.0726388936
C   C87       1.0  0.12360  0.44210  0.68830  1.0000 -0.1365327052
C   C88       1.0  0.75380  0.43530  0.31170  1.0000 -0.1365327052
C   C89       1.0  0.14217  0.46817  0.66560  1.0000 -0.2214736509
C   C90       1.0  0.80257  0.47657  0.33440  1.0000 -0.2214736509
C   C91       1.0  0.20593  0.47483  0.69070  1.0000 0.2174106763
C   C92       1.0  0.78413  0.51523  0.30930  1.0000 0.2174106763
C   C93       1.0  0.24722  0.45622  0.73440  1.0000 -0.2029948482
C   C94       1.0  0.72182  0.51282  0.26560  1.0000 -0.2029948482
C   C95       1.0  0.22559  0.43289  0.75770  1.0000 -0.152622871
C   C96       1.0  0.67519  0.46789  0.24230  1.0000 -0.152622871
C   C97       1.0  0.19231  0.52431  0.62920  1.0000 -0.0491239674
C   C98       1.0  0.89511  0.56311  0.37080  1.0000 -0.0491239674
C   C99       1.0  0.23609  0.55329  0.62680  1.0000 -0.0491239674
C   C100      1.0  0.92649  0.60929  0.37320  1.0000 -0.0491239674
C   C101      1.0  0.24547  0.51417  0.56930  1.0000 0.0892126277
C   C102      1.0  0.94487  0.67617  0.43070  1.0000 0.0892126277
C   C103      1.0  0.28557  0.54027  0.56670  1.0000 -0.0554032008
C   C104      1.0  0.97357  0.71887  0.43330  1.0000 -0.0554032008
C   C105      1.0  0.32237  0.60467  0.62570  1.0000 0.0892126277
C   C106      1.0  0.97897  0.69667  0.37430  1.0000 0.0892126277
C   C107      1.0  0.31671  0.64451  0.68700  1.0000 -0.0434072268
C   C108      1.0  0.95751  0.62971  0.31300  1.0000 -0.0434072268
C   C109      1.0  0.27176  0.61806  0.68570  1.0000 0.0892126277
C   C110      1.0  0.93236  0.58606  0.31430  1.0000 0.0892126277
C   C111      1.0  0.26129  0.66149  0.74620  1.0000 -0.4706758142
C   C112      1.0  0.91529  0.51509  0.25380  1.0000 -0.4706758142
C   C113      1.0  0.20930  0.44160  0.50710  1.0000 -0.4706758142
C   C114      1.0  0.93450  0.70220  0.49290  1.0000 -0.4706758142
C   C115      1.0  0.37040  0.63390  0.62530  1.0000 -0.4706758142
C   C116      1.0  0.00860  0.74510  0.37470  1.0000 -0.4706758142
C   C117      1.0  0.29027  0.50077  0.50050  1.0000 -0.067786381
C   C118      1.0  0.00027  0.78977  0.49950  1.0000 -0.067786381
C   C119      1.0  0.36570  0.44780  0.47810  1.0000 0.2174106763
C   C120      1.0  0.96970  0.88760  0.52190  1.0000 0.2174106763
C   C121      1.0  0.32900  0.42940  0.40700  1.0000 -0.2091825245
C   C122      1.0  0.02240  0.92200  0.59300  1.0000 -0.2091825245
C   C123      1.0  0.34970  0.39610  0.36180  1.0000 -0.1365327052
C   C124      1.0  0.03430  0.98790  0.63820  1.0000 -0.1365327052
C   C125      1.0  0.40300  0.38310  0.38450  1.0000 0.0726388936
C   C126      1.0  0.99860  0.01850  0.61550  1.0000 0.0726388936
C   C127      1.0  0.44370  0.40350  0.45780  1.0000 -0.152622871
C   C128      1.0  0.94570  0.98590  0.54220  1.0000 -0.152622871
C   C129      1.0  0.42270  0.43700  0.50570  1.0000 -0.2091825245
C   C130      1.0  0.93130  0.91700  0.49430  1.0000 -0.2091825245
C   C131      1.0  0.42290  0.35000  0.33230  1.0000 -0.0766528271
C   C132      1.0  0.01770  0.09060  0.66770  1.0000 -0.0766528271
C   C133      1.0  0.39200  0.33010  0.26570  1.0000 -0.1758343707
C   C134      1.0  0.06440  0.12630  0.73430  1.0000 -0.1758343707
C   C135      1.0  0.35913  0.71123  0.75210  1.0000 -0.067786381
C   C136      1.0  0.95913  0.60703  0.24790  1.0000 -0.067786381
C   C137      1.0  0.35539  0.81869  0.79210  1.0000 0.2257055772
C   C138      1.0  0.02659  0.56329  0.20790  1.0000 0.2257055772
C   C139      1.0  0.41410  0.84450  0.85960  1.0000 -0.2214736509
C   C140      1.0  0.98490  0.55450  0.14040  1.0000 -0.2214736509
C   C141      1.0  0.43650  0.91230  0.91680  1.0000 -0.1290323701
C   C142      1.0  0.99550  0.51970  0.08320  1.0000 -0.1290323701
C   C143      1.0  0.40160  0.95110  0.90370  1.0000 0.0892126277
C   C144      1.0  0.04740  0.49790  0.09630  1.0000 0.0892126277
C   C145      1.0  0.34330  0.92430  0.82760  1.0000 -0.1290323701
C   C146      1.0  0.09670  0.51570  0.17240  1.0000 -0.1290323701
C   C147      1.0  0.31980  0.85790  0.77450  1.0000 -0.2029948482
C   C148      1.0  0.08340  0.54530  0.22550  1.0000 -0.2029948482
C   C149      1.0  0.42510  0.02200  0.96730  1.0000 -0.0766528271
C   C150      1.0  0.05470  0.45780  0.03270  1.0000 -0.0766528271
C   C151      1.0  0.39490  0.06400  0.96350  1.0000 -0.2091825245
C   C152      1.0  0.10050  0.43140  0.03650  1.0000 -0.2091825245
C   C153      1.0  0.41680  0.13580  0.02900  1.0000 0.6423240621
C   C154      1.0  0.10680  0.38780  0.97100  1.0000 0.6423240621
C   C155      1.0  0.41740  0.29600  0.21700  1.0000 0.6157536824
C   C156      1.0  0.07900  0.20040  0.78300  1.0000 0.6157536824
C   C157      1.0  0.63990  0.46750  0.78600  1.0000 0.6423240621
C   C158      1.0  0.68150  0.85390  0.21400  1.0000 0.6423240621
C   C159      1.0  0.61390  0.41920  0.78750  1.0000 -0.2214736509
C   C160      1.0  0.63170  0.82640  0.21250  1.0000 -0.2214736509
C   C161      1.0  0.60030  0.35610  0.74040  1.0000 -0.0884378468
C   C162      1.0  0.61570  0.85990  0.25960  1.0000 -0.0884378468
C   C163      1.0  0.57691  0.30831  0.73860  1.0000 0.0726388936
C   C164      1.0  0.56971  0.83831  0.26140  1.0000 0.0726388936
C   C165      1.0  0.55790  0.24620  0.68150  1.0000 -0.1365327052
C   C166      1.0  0.56470  0.87640  0.31850  1.0000 -0.1365327052
C   C167      1.0  0.53183  0.19743  0.67400  1.0000 -0.2214736509
C   C168      1.0  0.52343  0.85783  0.32600  1.0000 -0.2214736509
C   C169      1.0  0.52517  0.21587  0.73110  1.0000 0.2174106763
C   C170      1.0  0.48477  0.79407  0.26890  1.0000 0.2174106763
C   C171      1.0  0.54378  0.27818  0.79100  1.0000 -0.2029948482
C   C172      1.0  0.48718  0.75278  0.20900  1.0000 -0.2029948482
C   C173      1.0  0.56711  0.32481  0.79270  1.0000 -0.152622871
C   C174      1.0  0.53211  0.77441  0.20730  1.0000 -0.152622871
C   C175      1.0  0.47569  0.10489  0.66800  1.0000 -0.0491239674
C   C176      1.0  0.43689  0.80769  0.33200  1.0000 -0.0491239674
C   C177      1.0  0.44671  0.07351  0.68280  1.0000 -0.0491239674
C   C178      1.0  0.39071  0.76391  0.31720  1.0000 -0.0491239674
C   C179      1.0  0.48583  0.05513  0.73130  1.0000 0.0892126277
C   C180      1.0  0.32383  0.75453  0.26870  1.0000 0.0892126277
C   C181      1.0  0.45973  0.02643  0.74530  1.0000 -0.0554032008
C   C182      1.0  0.28113  0.71443  0.25470  1.0000 -0.0554032008
C   C183      1.0  0.39533  0.02103  0.71770  1.0000 0.0892126277
C   C184      1.0  0.30333  0.67763  0.28230  1.0000 0.0892126277
C   C185      1.0  0.35549  0.04249  0.67220  1.0000 -0.0434072268
C   C186      1.0  0.37029  0.68329  0.32780  1.0000 -0.0434072268
C   C187      1.0  0.38194  0.06764  0.65370  1.0000 0.0892126277
C   C188      1.0  0.41394  0.72824  0.34630  1.0000 0.0892126277
C   C189      1.0  0.33851  0.08471  0.59980  1.0000 -0.4706758142
C   C190      1.0  0.48491  0.73871  0.40020  1.0000 -0.4706758142
C   C191      1.0  0.55840  0.06550  0.76770  1.0000 -0.4706758142
C   C192      1.0  0.29780  0.79070  0.23230  1.0000 -0.4706758142
C   C193      1.0  0.36610  0.99140  0.73650  1.0000 -0.4706758142
C   C194      1.0  0.25490  0.62960  0.26350  1.0000 -0.4706758142
C   C195      1.0  0.49923  0.99973  0.78950  1.0000 -0.067786381
C   C196      1.0  0.21023  0.70973  0.21050  1.0000 -0.067786381
C   C197      1.0  0.55220  0.03030  0.91790  1.0000 0.2174106763
C   C198      1.0  0.11240  0.63430  0.08210  1.0000 0.2174106763
C   C199      1.0  0.57060  0.97760  0.89960  1.0000 -0.2091825245
C   C200      1.0  0.07800  0.67100  0.10040  1.0000 -0.2091825245
C   C201      1.0  0.60390  0.96570  0.95360  1.0000 -0.1365327052
C   C202      1.0  0.01210  0.65030  0.04640  1.0000 -0.1365327052
C   C203      1.0  0.61690  0.00140  0.01990  1.0000 0.0726388936
C   C204      1.0  0.98150  0.59700  0.98010  1.0000 0.0726388936
C   C205      1.0  0.59650  0.05430  0.04020  1.0000 -0.152622871
C   C206      1.0  0.01410  0.55630  0.95980  1.0000 -0.152622871
C   C207      1.0  0.56300  0.06870  0.98570  1.0000 -0.2091825245
C   C208      1.0  0.08300  0.57730  0.01430  1.0000 -0.2091825245
C   C209      1.0  0.65000  0.98230  0.07290  1.0000 -0.0766528271
C   C210      1.0  0.90940  0.57710  0.92710  1.0000 -0.0766528271
C   C211      1.0  0.66990  0.93560  0.06190  1.0000 -0.1758343707
C   C212      1.0  0.87370  0.60800  0.93810  1.0000 -0.1758343707
C   C213      1.0  0.28877  0.04087  0.64790  1.0000 -0.067786381
C   C214      1.0  0.39297  0.64087  0.35210  1.0000 -0.067786381
C   C215      1.0  0.18131  0.97341  0.53670  1.0000 0.2257055772
C   C216      1.0  0.43671  0.64461  0.46330  1.0000 0.2257055772
C   C217      1.0  0.15550  0.01510  0.56960  1.0000 -0.2214736509
C   C218      1.0  0.44550  0.58590  0.43040  1.0000 -0.2214736509
C   C219      1.0  0.08770  0.00450  0.52420  1.0000 -0.1290323701
C   C220      1.0  0.48030  0.56350  0.47580  1.0000 -0.1290323701
C   C221      1.0  0.04890  0.95260  0.45050  1.0000 0.0892126277
C   C222      1.0  0.50210  0.59840  0.54950  1.0000 0.0892126277
C   C223      1.0  0.07570  0.90330  0.41900  1.0000 -0.1290323701
C   C224      1.0  0.48430  0.65670  0.58100  1.0000 -0.1290323701
C   C225      1.0  0.14210  0.91660  0.46190  1.0000 -0.2029948482
C   C226      1.0  0.45470  0.68020  0.53810  1.0000 -0.2029948482
C   C227      1.0  0.97800  0.94530  0.40310  1.0000 -0.0766528271
C   C228      1.0  0.54220  0.57490  0.59690  1.0000 -0.0766528271
C   C229      1.0  0.93600  0.89950  0.33090  1.0000 -0.2091825245
C   C230      1.0  0.56860  0.60510  0.66910  1.0000 -0.2091825245
C   C231      1.0  0.86420  0.89320  0.28100  1.0000 0.6423240621
C   C232      1.0  0.61220  0.58320  0.71900  1.0000 0.6423240621
C   C233      1.0  0.70400  0.92100  0.12140  1.0000 0.6157536824
C   C234      1.0  0.79960  0.58260  0.87860  1.0000 0.6157536824
C   C235      1.0  0.60390  0.88990  0.67240  1.0000 0.6423240621
C   C236      1.0  0.21750  0.93150  0.32760  1.0000 0.6423240621
C   C237      1.0  0.57640  0.86390  0.69470  1.0000 -0.2214736509
C   C238      1.0  0.16920  0.88170  0.30530  1.0000 -0.2214736509
C   C239      1.0  0.60990  0.85030  0.74420  1.0000 -0.0884378468
C   C240      1.0  0.10610  0.86570  0.25580  1.0000 -0.0884378468
C   C241      1.0  0.58831  0.82691  0.76860  1.0000 0.0726388936
C   C242      1.0  0.05831  0.81971  0.23140  1.0000 0.0726388936
C   C243      1.0  0.62640  0.80790  0.81170  1.0000 -0.1365327052
C   C244      1.0  0.99620  0.81470  0.18830  1.0000 -0.1365327052
C   C245      1.0  0.60783  0.78183  0.83440  1.0000 -0.2214736509
C   C246      1.0  0.94743  0.77343  0.16560  1.0000 -0.2214736509
C   C247      1.0  0.54407  0.77517  0.80930  1.0000 0.2174106763
C   C248      1.0  0.96587  0.73477  0.19070  1.0000 0.2174106763
C   C249      1.0  0.50278  0.79378  0.76560  1.0000 -0.2029948482
C   C250      1.0  0.02818  0.73718  0.23440  1.0000 -0.2029948482
C   C251      1.0  0.52441  0.81711  0.74230  1.0000 -0.152622871
C   C252      1.0  0.07481  0.78211  0.25770  1.0000 -0.152622871
C   C253      1.0  0.55769  0.72569  0.87080  1.0000 -0.0491239674
C   C254      1.0  0.85489  0.68689  0.12920  1.0000 -0.0491239674
C   C255      1.0  0.51391  0.69671  0.87320  1.0000 -0.0491239674
C   C256      1.0  0.82351  0.64071  0.12680  1.0000 -0.0491239674
C   C257      1.0  0.50453  0.73583  0.93070  1.0000 0.0892126277
C   C258      1.0  0.80513  0.57383  0.06930  1.0000 0.0892126277
C   C259      1.0  0.46443  0.70973  0.93330  1.0000 -0.0554032008
C   C260      1.0  0.77643  0.53113  0.06670  1.0000 -0.0554032008
C   C261      1.0  0.42763  0.64533  0.87430  1.0000 0.0892126277
C   C262      1.0  0.77103  0.55333  0.12570  1.0000 0.0892126277
C   C263      1.0  0.43329  0.60549  0.81300  1.0000 -0.0434072268
C   C264      1.0  0.79249  0.62029  0.18700  1.0000 -0.0434072268
C   C265      1.0  0.47824  0.63194  0.81430  1.0000 0.0892126277
C   C266      1.0  0.81764  0.66394  0.18570  1.0000 0.0892126277
C   C267      1.0  0.48871  0.58851  0.75380  1.0000 -0.4706758142
C   C268      1.0  0.83471  0.73491  0.24620  1.0000 -0.4706758142
C   C269      1.0  0.54070  0.80840  0.99290  1.0000 -0.4706758142
C   C270      1.0  0.81550  0.54780  0.00710  1.0000 -0.4706758142
C   C271      1.0  0.37960  0.61610  0.87470  1.0000 -0.4706758142
C   C272      1.0  0.74140  0.50490  0.12530  1.0000 -0.4706758142
C   C273      1.0  0.45973  0.74923  0.99950  1.0000 -0.067786381
C   C274      1.0  0.74973  0.46023  0.00050  1.0000 -0.067786381
C   C275      1.0  0.38430  0.80220  0.02190  1.0000 0.2174106763
C   C276      1.0  0.78030  0.36240  0.97810  1.0000 0.2174106763
C   C277      1.0  0.42100  0.82060  0.09300  1.0000 -0.2091825245
C   C278      1.0  0.72760  0.32800  0.90700  1.0000 -0.2091825245
C   C279      1.0  0.40030  0.85390  0.13820  1.0000 -0.1365327052
C   C280      1.0  0.71570  0.26210  0.86180  1.0000 -0.1365327052
C   C281      1.0  0.34700  0.86690  0.11550  1.0000 0.0726388936
C   C282      1.0  0.75140  0.23150  0.88450  1.0000 0.0726388936
C   C283      1.0  0.30630  0.84650  0.04220  1.0000 -0.152622871
C   C284      1.0  0.80430  0.26410  0.95780  1.0000 -0.152622871
C   C285      1.0  0.32730  0.81300  0.99430  1.0000 -0.2091825245
C   C286      1.0  0.81870  0.33300  0.00570  1.0000 -0.2091825245
C   C287      1.0  0.32710  0.90000  0.16770  1.0000 -0.0766528271
C   C288      1.0  0.73230  0.15940  0.83230  1.0000 -0.0766528271
C   C289      1.0  0.35800  0.91990  0.23430  1.0000 -0.1758343707
C   C290      1.0  0.68560  0.12370  0.76570  1.0000 -0.1758343707
C   C291      1.0  0.39087  0.53877  0.74790  1.0000 -0.067786381
C   C292      1.0  0.79087  0.64297  0.25210  1.0000 -0.067786381
C   C293      1.0  0.39461  0.43131  0.70790  1.0000 0.2257055772
C   C294      1.0  0.72341  0.68671  0.29210  1.0000 0.2257055772
C   C295      1.0  0.33590  0.40550  0.64040  1.0000 -0.2214736509
C   C296      1.0  0.76510  0.69550  0.35960  1.0000 -0.2214736509
C   C297      1.0  0.31350  0.33770  0.58320  1.0000 -0.1290323701
C   C298      1.0  0.75450  0.73030  0.41680  1.0000 -0.1290323701
C   C299      1.0  0.34840  0.29890  0.59630  1.0000 0.0892126277
C   C300      1.0  0.70260  0.75210  0.40370  1.0000 0.0892126277
C   C301      1.0  0.40670  0.32570  0.67240  1.0000 -0.1290323701
C   C302      1.0  0.65330  0.73430  0.32760  1.0000 -0.1290323701
C   C303      1.0  0.43020  0.39210  0.72550  1.0000 -0.2029948482
C   C304      1.0  0.66667  0.70470  0.27450  1.0000 -0.2029948482
C   C305      1.0  0.32490  0.22800  0.53270  1.0000 -0.0766528271
C   C306      1.0  0.69530  0.79220  0.46730  1.0000 -0.0766528271
C   C307      1.0  0.35510  0.18600  0.53650  1.0000 -0.2091825245
C   C308      1.0  0.64950  0.81860  0.46350  1.0000 -0.2091825245
C   C309      1.0  0.33320  0.11420  0.47100  1.0000 0.6423240621
C   C310      1.0  0.64320  0.86220  0.52900  1.0000 0.6423240621
C   C311      1.0  0.33260  0.95400  0.28300  1.0000 0.6157536824
C   C312      1.0  0.67100  0.04960  0.71700  1.0000 0.6157536824
O   O1        1.0  0.10299  0.80899  0.76880  1.0000 -0.6041077803
O   O2        1.0  0.04019  0.33419  0.23120  1.0000 -0.6041077803
O   O3        1.0  0.09718  0.72448  0.66190  1.0000 -0.5352678478
O   O4        1.0  0.06258  0.43528  0.33810  1.0000 -0.5340136866
O   O5        1.0  0.24928  0.07828  0.76920  1.0000 -0.2091825245
O   O6        1.0  0.30908  0.48008  0.23080  1.0000 -0.2091825245
O   O7        1.0  0.50280  0.26870  0.92670  1.0000 -0.1621054689
O   O8        1.0  0.34200  0.57610  0.07330  1.0000 -0.1621054689
O   O9        1.0  0.22915  0.20105  0.63030  1.0000 -0.2029948482
O   O10       1.0  0.57075  0.59885  0.36970  1.0000 -0.2029948482
O   O11       1.0  0.91922  0.40122  0.28560  1.0000 -0.5014363359
O   O12       1.0  0.11562  0.63362  0.71440  1.0000 -0.5014363359
O   O13       1.0  0.90120  0.30910  0.18110  1.0000 -0.5911870877
O   O14       1.0  0.12800  0.72010  0.81890  1.0000 -0.5911870877
O   O15       1.0  0.04090  0.39110  0.41620  1.0000 -0.581703348
O   O16       1.0  0.97490  0.62470  0.58380  1.0000 -0.581703348
O   O17       1.0  0.03130  0.29070  0.31660  1.0000 -0.4453003387
O   O18       1.0  0.97410  0.71470  0.68340  1.0000 -0.4453003387
O   O19       1.0  0.06080  0.57320  0.54380  1.0000 -0.3119152765
O   O20       1.0  0.02940  0.51700  0.45620  1.0000 -0.3119152765
O   O21       1.0  0.08419  0.35299  0.79400  1.0000 -0.6041077803
O   O22       1.0  0.55899  0.29019  0.20600  1.0000 -0.6041077803
O   O23       1.0  0.18528  0.34718  0.87270  1.0000 -0.5352678478
O   O24       1.0  0.47448  0.31258  0.12730  1.0000 -0.5340136866
O   O25       1.0  0.23008  0.49928  0.67100  1.0000 -0.2091825245
O   O26       1.0  0.82828  0.55908  0.32900  1.0000 -0.2091825245
O   O27       1.0  0.32610  0.75280  0.73410  1.0000 -0.1621054689
O   O28       1.0  0.01870  0.59200  0.26590  1.0000 -0.1621054689
O   O29       1.0  0.34885  0.47915  0.52810  1.0000 -0.2029948482
O   O30       1.0  0.95105  0.82075  0.47190  1.0000 -0.2029948482
O   O31       1.0  0.38362  0.16922  0.01800  1.0000 -0.5014363359
O   O32       1.0  0.15122  0.36562  0.98200  1.0000 -0.5014363359
O   O33       1.0  0.47010  0.15120  0.09210  1.0000 -0.5911870877
O   O34       1.0  0.05910  0.37800  0.90790  1.0000 -0.5911870877
O   O35       1.0  0.37470  0.29090  0.14980  1.0000 -0.581703348
O   O36       1.0  0.14110  0.22490  0.85020  1.0000 -0.581703348
O   O37       1.0  0.46470  0.28130  0.24060  1.0000 -0.4453003387
O   O38       1.0  0.04070  0.22410  0.75940  1.0000 -0.4453003387
O   O39       1.0  0.26700  0.31080  0.98760  1.0000 -0.3119152765
O   O40       1.0  0.32320  0.27940  0.01240  1.0000 -0.3119152765
O   O41       1.0  0.64701  0.44101  0.73120  1.0000 -0.6041077803
O   O42       1.0  0.70981  0.91581  0.26880  1.0000 -0.6041077803
O   O43       1.0  0.65282  0.52552  0.83810  1.0000 -0.5352678478
O   O44       1.0  0.68742  0.81472  0.16190  1.0000 -0.5352678478
O   O45       1.0  0.50072  0.17172  0.73080  1.0000 -0.2091825245
O   O46       1.0  0.44092  0.76992  0.26920  1.0000 -0.2091825245
O   O47       1.0  0.24720  0.98130  0.57330  1.0000 -0.1621054689
O   O48       1.0  0.40800  0.67390  0.42670  1.0000 -0.1621054689
O   O49       1.0  0.52085  0.04895  0.86970  1.0000 -0.2029948482
O   O50       1.0  0.17925  0.65115  0.13030  1.0000 -0.2029948482
O   O51       1.0  0.83078  0.84878  0.21440  1.0000 -0.5014363359
O   O52       1.0  0.63438  0.61638  0.78560  1.0000 -0.5014363359
O   O53       1.0  0.84880  0.94090  0.31890  1.0000 -0.5911870877
O   O54       1.0  0.62200  0.52990  0.68110  1.0000 -0.5911870877
O   O55       1.0  0.70910  0.85890  0.08380  1.0000 -0.581703348
O   O56       1.0  0.77510  0.62530  0.91620  1.0000 -0.581703348
O   O57       1.0  0.71870  0.95930  0.18340  1.0000 -0.4453003387
O   O58       1.0  0.77590  0.53530  0.81660  1.0000 -0.4453003387
O   O59       1.0  0.68920  0.67680  0.95620  1.0000 -0.3119152765
O   O60       1.0  0.72060  0.73300  0.04380  1.0000 -0.3119152765
O   O61       1.0  0.66581  0.89701  0.70600  1.0000 -0.6041077803
O   O62       1.0  0.19101  0.95981  0.29400  1.0000 -0.6041077803
O   O63       1.0  0.56472  0.90282  0.62730  1.0000 -0.5352678478
O   O64       1.0  0.27552  0.93742  0.37270  1.0000 -0.5352678478
O   O65       1.0  0.51992  0.75072  0.82900  1.0000 -0.2091825245
O   O66       1.0  0.92172  0.69092  0.17100  1.0000 -0.2091825245
O   O67       1.0  0.42390  0.49720  0.76590  1.0000 -0.1621054689
O   O68       1.0  0.73130  0.65800  0.23410  1.0000 -0.1621054689
O   O69       1.0  0.40115  0.77085  0.97190  1.0000 -0.2029948482
O   O70       1.0  0.79895  0.42925  0.02810  1.0000 -0.2029948482
O   O71       1.0  0.36638  0.08078  0.48200  1.0000 -0.5014363359
O   O72       1.0  0.59878  0.88438  0.51800  1.0000 -0.5014363359
O   O73       1.0  0.27990  0.09880  0.40790  1.0000 -0.5911870877
O   O74       1.0  0.69090  0.87200  0.59210  1.0000 -0.5911870877
O   O75       1.0  0.37530  0.95910  0.35020  1.0000 -0.581703348
O   O76       1.0  0.60890  0.02510  0.64980  1.0000 -0.581703348
O   O77       1.0  0.28530  0.96870  0.25940  1.0000 -0.4453003387
O   O78       1.0  0.70930  0.02590  0.74060  1.0000 -0.4437698404
O   O79       1.0  0.48300  0.93920  0.51240  1.0000 -0.3119152765
O   O80       1.0  0.42680  0.97060  0.48760  1.0000 -0.3119152765
