# DDEC6 charges by PACMAN v1.1 (https://github.com/mtap-research/PACMAN-charge/)
data_2012[CoNd][nan]3[ASR]1
_chemical_formula_sum              "Nd4 Co6 H32 C80 N16 O48"
_cell_length_a       10.467
_cell_length_b       7.6374
_cell_length_c       30.492
_cell_angle_alpha    90
_cell_angle_beta     99.05
_cell_angle_gamma    90

_symmetry_space_group_name_H-M    "P 1"
_symmetry_Int_Tables_number       1

loop_
  _symmetry_equiv_pos_as_xyz
  'x, y, z'

loop_
  _atom_site_type_symbol
  _atom_site_label
  _atom_site_symmetry_multiplicity
  _atom_site_fract_x
  _atom_site_fract_y
  _atom_site_fract_z
  _atom_site_occupancy
  _atom_site_charge
Nd  Nd1       1.0  0.55179  0.87182  0.76810  1.0000 2.1195453788
Nd  Nd2       1.0  0.44821  0.37182  0.73190  1.0000 2.1195453788
Nd  Nd3       1.0  0.44821  0.12818  0.23190  1.0000 2.1195453788
Nd  Nd4       1.0  0.55179  0.62818  0.26810  1.0000 2.1195453788
Co  Co1       1.0  0.00000  0.00000  0.00000  1.0000 0.8258414651
Co  Co2       1.0  0.00000  0.50000  0.50000  1.0000 0.8245174671
Co  Co3       1.0  0.71369  0.94619  0.13011  1.0000 0.925349989
Co  Co4       1.0  0.28631  0.44619  0.36989  1.0000 0.925349989
Co  Co5       1.0  0.28631  0.05381  0.86989  1.0000 0.925349989
Co  Co6       1.0  0.71369  0.55381  0.63011  1.0000 0.925349989
H   H1        1.0  0.75650  0.05520  0.91830  1.0000 0.1571623693
H   H2        1.0  0.24350  0.55520  0.58170  1.0000 0.1571623693
H   H3        1.0  0.24350  0.94480  0.08170  1.0000 0.1571623693
H   H4        1.0  0.75650  0.44480  0.41830  1.0000 0.1571623693
H   H5        1.0  0.79970  0.65090  0.87780  1.0000 0.1511013021
H   H6        1.0  0.20030  0.15090  0.62220  1.0000 0.1511013021
H   H7        1.0  0.20030  0.34910  0.12220  1.0000 0.1511013021
H   H8        1.0  0.79970  0.84910  0.37780  1.0000 0.1511013021
H   H9        1.0  0.12720  0.37810  0.98580  1.0000 0.1208611513
H   H10       1.0  0.87280  0.87810  0.51420  1.0000 0.1208611513
H   H11       1.0  0.87280  0.62190  0.01420  1.0000 0.1208611513
H   H12       1.0  0.12720  0.12190  0.48580  1.0000 0.1208611513
H   H13       1.0  0.07770  0.31770  0.21700  1.0000 0.1571623693
H   H14       1.0  0.92230  0.81770  0.28300  1.0000 0.1571623693
H   H15       1.0  0.92230  0.68230  0.78300  1.0000 0.1571623693
H   H16       1.0  0.07770  0.18230  0.71700  1.0000 0.1571623693
H   H17       1.0  0.02510  0.92540  0.18610  1.0000 0.1511013021
H   H18       1.0  0.97490  0.42540  0.31390  1.0000 0.1511013021
H   H19       1.0  0.97490  0.07460  0.81390  1.0000 0.1511013021
H   H20       1.0  0.02510  0.57460  0.68610  1.0000 0.1511013021
H   H21       1.0  0.68950  0.52940  0.12420  1.0000 0.1284124526
H   H22       1.0  0.31050  0.02940  0.37580  1.0000 0.1284124526
H   H23       1.0  0.31050  0.47060  0.87580  1.0000 0.1284124526
H   H24       1.0  0.68950  0.97060  0.62420  1.0000 0.1284124526
H   H25       1.0  0.03510  0.60700  0.93770  1.0000 0.3033622588
H   H26       1.0  0.96490  0.10700  0.56230  1.0000 0.3033622588
H   H27       1.0  0.96490  0.39300  0.06230  1.0000 0.3033622588
H   H28       1.0  0.03510  0.89300  0.43770  1.0000 0.3033622588
H   H29       1.0  0.83460  0.31190  0.16010  1.0000 0.3058173741
H   H30       1.0  0.16540  0.81190  0.33990  1.0000 0.3058173741
H   H31       1.0  0.16540  0.68810  0.83990  1.0000 0.3058173741
H   H32       1.0  0.83460  0.18810  0.66010  1.0000 0.3058173741
C   C1        1.0  0.79010  0.97040  0.04461  1.0000 0.4625776495
C   C2        1.0  0.20990  0.47040  0.45539  1.0000 0.4625776495
C   C3        1.0  0.20990  0.02960  0.95539  1.0000 0.4625776495
C   C4        1.0  0.79010  0.52960  0.54461  1.0000 0.4625776495
C   C5        1.0  0.89510  0.06770  0.07721  1.0000 0.45183275
C   C6        1.0  0.10490  0.56770  0.42279  1.0000 0.45183275
C   C7        1.0  0.10490  0.93230  0.92279  1.0000 0.45183275
C   C8        1.0  0.89510  0.43230  0.57721  1.0000 0.45183275
C   C9        1.0  0.55530  0.15070  0.86095  1.0000 0.6573621417
C   C10       1.0  0.44470  0.65070  0.63905  1.0000 0.6573621417
C   C11       1.0  0.44470  0.84930  0.13905  1.0000 0.6573621417
C   C12       1.0  0.55530  0.34930  0.36095  1.0000 0.6573621417
C   C13       1.0  0.67300  0.25520  0.87909  1.0000 -0.0302900634
C   C14       1.0  0.32700  0.75520  0.62091  1.0000 -0.0302900634
C   C15       1.0  0.32700  0.74480  0.12091  1.0000 -0.0302900634
C   C16       1.0  0.67300  0.24480  0.37909  1.0000 -0.0302900634
C   C17       1.0  0.76470  0.17450  0.91042  1.0000 -0.1717365002
C   C18       1.0  0.23530  0.67450  0.58958  1.0000 -0.1717365002
C   C19       1.0  0.23530  0.82550  0.08958  1.0000 -0.1717365002
C   C20       1.0  0.76470  0.32550  0.41042  1.0000 -0.1717365002
C   C21       1.0  0.86870  0.27510  0.92973  1.0000 0.1413322139
C   C22       1.0  0.13130  0.77510  0.57027  1.0000 0.1413322139
C   C23       1.0  0.13130  0.72490  0.07027  1.0000 0.1413322139
C   C24       1.0  0.86870  0.22490  0.42973  1.0000 0.1413322139
C   C25       1.0  0.88220  0.44950  0.91647  1.0000 0.1284124526
C   C26       1.0  0.11780  0.94950  0.58353  1.0000 0.1284124526
C   C27       1.0  0.11780  0.55050  0.08353  1.0000 0.1284124526
C   C28       1.0  0.88220  0.05050  0.41647  1.0000 0.1284124526
C   C29       1.0  0.79050  0.53190  0.88586  1.0000 -0.1798678552
C   C30       1.0  0.20950  0.03190  0.61414  1.0000 -0.1798678552
C   C31       1.0  0.20950  0.46810  0.11414  1.0000 -0.1798678552
C   C32       1.0  0.79050  0.96810  0.38586  1.0000 -0.1798678552
C   C33       1.0  0.68450  0.43320  0.86744  1.0000 -0.0723517154
C   C34       1.0  0.31550  0.93320  0.63256  1.0000 -0.0723517154
C   C35       1.0  0.31550  0.56680  0.13256  1.0000 -0.0723517154
C   C36       1.0  0.68450  0.06680  0.36744  1.0000 -0.0723517154
C   C37       1.0  0.58490  0.51350  0.83320  1.0000 0.6333659301
C   C38       1.0  0.41510  0.01350  0.66680  1.0000 0.6333659301
C   C39       1.0  0.41510  0.48650  0.16680  1.0000 0.6333659301
C   C40       1.0  0.58490  0.98650  0.33320  1.0000 0.6333659301
C   C41       1.0  0.04750  0.37160  0.96610  1.0000 0.1680163155
C   C42       1.0  0.95250  0.87160  0.53390  1.0000 0.1680163155
C   C43       1.0  0.95250  0.62840  0.03390  1.0000 0.1680163155
C   C44       1.0  0.04750  0.12840  0.46610  1.0000 0.1680163155
C   C45       1.0  0.26220  0.49830  0.26696  1.0000 0.6333659301
C   C46       1.0  0.73780  0.99830  0.23304  1.0000 0.6333659301
C   C47       1.0  0.73780  0.50170  0.73304  1.0000 0.6333659301
C   C48       1.0  0.26220  0.00170  0.76696  1.0000 0.6333659301
C   C49       1.0  0.15790  0.56010  0.23042  1.0000 -0.0138357989
C   C50       1.0  0.84210  0.06010  0.26958  1.0000 -0.0138357989
C   C51       1.0  0.84210  0.43990  0.76958  1.0000 -0.0138357989
C   C52       1.0  0.15790  0.93990  0.73042  1.0000 -0.0138357989
C   C53       1.0  0.06680  0.43960  0.21152  1.0000 -0.2113491957
C   C54       1.0  0.93320  0.93960  0.28848  1.0000 -0.2113491957
C   C55       1.0  0.93320  0.56040  0.78848  1.0000 -0.2113491957
C   C56       1.0  0.06680  0.06040  0.71152  1.0000 -0.2113491957
C   C57       1.0  0.95860  0.50520  0.18412  1.0000 0.1511013021
C   C58       1.0  0.04140  0.00520  0.31588  1.0000 0.1511013021
C   C59       1.0  0.04140  0.49480  0.81588  1.0000 0.1511013021
C   C60       1.0  0.95860  0.99480  0.68412  1.0000 0.1511013021
C   C61       1.0  0.93940  0.68520  0.17557  1.0000 0.1413322139
C   C62       1.0  0.06060  0.18520  0.32443  1.0000 0.1413322139
C   C63       1.0  0.06060  0.31480  0.82443  1.0000 0.1413322139
C   C64       1.0  0.93940  0.81480  0.67557  1.0000 0.1413322139
C   C65       1.0  0.03460  0.80420  0.19280  1.0000 -0.1468464052
C   C66       1.0  0.96540  0.30420  0.30720  1.0000 -0.1468464052
C   C67       1.0  0.96540  0.19580  0.80720  1.0000 -0.1468464052
C   C68       1.0  0.03460  0.69580  0.69280  1.0000 -0.1468464052
C   C69       1.0  0.14320  0.74190  0.21984  1.0000 -0.0723517154
C   C70       1.0  0.85680  0.24190  0.28016  1.0000 -0.0723517154
C   C71       1.0  0.85680  0.25810  0.78016  1.0000 -0.0723517154
C   C72       1.0  0.14320  0.75810  0.71984  1.0000 -0.0723517154
C   C73       1.0  0.24860  0.86870  0.23488  1.0000 0.6112206961
C   C74       1.0  0.75140  0.36870  0.26512  1.0000 0.6112206961
C   C75       1.0  0.75140  0.13130  0.76512  1.0000 0.6112206961
C   C76       1.0  0.24860  0.63130  0.73488  1.0000 0.6112206961
C   C77       1.0  0.77140  0.55210  0.14154  1.0000 0.194287737
C   C78       1.0  0.22860  0.05210  0.35846  1.0000 0.194287737
C   C79       1.0  0.22860  0.44790  0.85846  1.0000 0.194287737
C   C80       1.0  0.77140  0.94790  0.64154  1.0000 0.194287737
N   N1        1.0  0.97310  0.23140  0.96174  1.0000 -0.3752410849
N   N2        1.0  0.02690  0.73140  0.53826  1.0000 -0.3752410849
N   N3        1.0  0.02690  0.76860  0.03826  1.0000 -0.3752410849
N   N4        1.0  0.97310  0.26860  0.46174  1.0000 -0.3752410849
N   N5        1.0  0.99890  0.50390  0.93977  1.0000 -0.2467283522
N   N6        1.0  0.00110  0.00390  0.56023  1.0000 -0.2467283522
N   N7        1.0  0.00110  0.49610  0.06023  1.0000 -0.2467283522
N   N8        1.0  0.99890  0.99610  0.43977  1.0000 -0.2467283522
N   N9        1.0  0.82010  0.71030  0.14869  1.0000 -0.3712535118
N   N10       1.0  0.17990  0.21030  0.35131  1.0000 -0.3712535118
N   N11       1.0  0.17990  0.28970  0.85131  1.0000 -0.3712535118
N   N12       1.0  0.82010  0.78970  0.64869  1.0000 -0.3712535118
N   N13       1.0  0.85000  0.42520  0.16144  1.0000 -0.2467283522
N   N14       1.0  0.15000  0.92520  0.33856  1.0000 -0.2467283522
N   N15       1.0  0.15000  0.57480  0.83856  1.0000 -0.2467283522
N   N16       1.0  0.85000  0.07480  0.66144  1.0000 -0.2467283522
O   O1        1.0  0.99030  0.12850  0.06119  1.0000 -0.4973609893
O   O2        1.0  0.00970  0.62850  0.43881  1.0000 -0.4973609893
O   O3        1.0  0.00970  0.87150  0.93881  1.0000 -0.4973609893
O   O4        1.0  0.99030  0.37150  0.56119  1.0000 -0.4973609893
O   O5        1.0  0.80310  0.96420  0.00433  1.0000 -0.4973609893
O   O6        1.0  0.19690  0.46420  0.49567  1.0000 -0.4973609893
O   O7        1.0  0.19690  0.03580  0.99567  1.0000 -0.4973609893
O   O8        1.0  0.80310  0.53580  0.50433  1.0000 -0.4947119867
O   O9        1.0  0.87780  0.08030  0.11646  1.0000 -0.5092020844
O   O10       1.0  0.12220  0.58030  0.38354  1.0000 -0.5092020844
O   O11       1.0  0.12220  0.91970  0.88354  1.0000 -0.5092020844
O   O12       1.0  0.87780  0.41970  0.61646  1.0000 -0.5092020844
O   O13       1.0  0.69960  0.90540  0.06121  1.0000 -0.4973609893
O   O14       1.0  0.30040  0.40540  0.43879  1.0000 -0.4947119867
O   O15       1.0  0.30040  0.09460  0.93879  1.0000 -0.4973609893
O   O16       1.0  0.69960  0.59460  0.56121  1.0000 -0.4947119867
O   O17       1.0  0.45508  0.18620  0.87716  1.0000 -0.550721622
O   O18       1.0  0.54492  0.68620  0.62284  1.0000 -0.550721622
O   O19       1.0  0.54492  0.81380  0.12284  1.0000 -0.550721622
O   O20       1.0  0.45508  0.31380  0.37716  1.0000 -0.550721622
O   O21       1.0  0.56560  0.02920  0.83447  1.0000 -0.6690322225
O   O22       1.0  0.43440  0.52920  0.66553  1.0000 -0.6690322225
O   O23       1.0  0.43440  0.97080  0.16553  1.0000 -0.6690322225
O   O24       1.0  0.56560  0.47080  0.33447  1.0000 -0.6690322225
O   O25       1.0  0.50870  0.41380  0.80887  1.0000 -0.6515107517
O   O26       1.0  0.49130  0.91380  0.69113  1.0000 -0.6515107517
O   O27       1.0  0.49130  0.58620  0.19113  1.0000 -0.6515107517
O   O28       1.0  0.50870  0.08620  0.30887  1.0000 -0.6515107517
O   O29       1.0  0.58300  0.67890  0.83023  1.0000 -0.6515107517
O   O30       1.0  0.41700  0.17890  0.66977  1.0000 -0.6515107517
O   O31       1.0  0.41700  0.32110  0.16977  1.0000 -0.6515107517
O   O32       1.0  0.58300  0.82110  0.33023  1.0000 -0.6515107517
O   O33       1.0  0.24740  0.53930  0.30509  1.0000 -0.5380858992
O   O34       1.0  0.75260  0.03930  0.19491  1.0000 -0.5380858992
O   O35       1.0  0.75260  0.46070  0.69491  1.0000 -0.5380858992
O   O36       1.0  0.24740  0.96070  0.80509  1.0000 -0.5380858992
O   O37       1.0  0.35833  0.41010  0.25723  1.0000 -0.7402129685
O   O38       1.0  0.64167  0.91010  0.24277  1.0000 -0.7402129685
O   O39       1.0  0.64167  0.58990  0.74277  1.0000 -0.7402129685
O   O40       1.0  0.35833  0.08990  0.75723  1.0000 -0.7402129685
O   O41       1.0  0.36292  0.81460  0.24952  1.0000 -0.7516144429
O   O42       1.0  0.63708  0.31460  0.25048  1.0000 -0.7516144429
O   O43       1.0  0.63708  0.18540  0.75048  1.0000 -0.7516144429
O   O44       1.0  0.36292  0.68540  0.74952  1.0000 -0.7516144429
O   O45       1.0  0.22682  0.03130  0.23093  1.0000 -0.6161055033
O   O46       1.0  0.77318  0.53130  0.26907  1.0000 -0.6161055033
O   O47       1.0  0.77318  0.96870  0.76907  1.0000 -0.6161055033
O   O48       1.0  0.22682  0.46870  0.73093  1.0000 -0.6161055033
