# DDEC6 charges by PACMAN v1.1 (https://github.com/mtap-research/PACMAN-charge/)
data_2012[Zn][nan]3[ASR]14
_chemical_formula_sum              "Zn6 H18 C54 O36"
_cell_length_a       14.0726
_cell_length_b       15.5171
_cell_length_c       16.965
_cell_angle_alpha    90
_cell_angle_beta     108.119
_cell_angle_gamma    90

_symmetry_space_group_name_H-M    "P 1"
_symmetry_Int_Tables_number       1

loop_
  _symmetry_equiv_pos_as_xyz
  'x, y, z'

loop_
  _atom_site_type_symbol
  _atom_site_label
  _atom_site_symmetry_multiplicity
  _atom_site_fract_x
  _atom_site_fract_y
  _atom_site_fract_z
  _atom_site_occupancy
  _atom_site_charge
Zn  Zn1       1.0  0.36364  0.29563  0.48775  1.0000 0.9595802548
Zn  Zn2       1.0  0.13636  0.29563  0.51225  1.0000 0.9595802548
Zn  Zn3       1.0  0.63636  0.70437  0.51225  1.0000 0.9595802548
Zn  Zn4       1.0  0.86364  0.70437  0.48775  1.0000 0.9595802548
Zn  Zn5       1.0  0.75000  0.04350  0.00000  1.0000 0.9953238192
Zn  Zn6       1.0  0.25000  0.95650  0.00000  1.0000 0.9922826114
H   H1        1.0  0.39350  0.56300  0.50370  1.0000 0.1363268145
H   H2        1.0  0.10650  0.56300  0.49630  1.0000 0.1363268145
H   H3        1.0  0.60650  0.43700  0.49630  1.0000 0.1363268145
H   H4        1.0  0.89350  0.43700  0.50370  1.0000 0.1363268145
H   H5        1.0  0.25000  0.78600  0.50000  1.0000 0.1269609901
H   H6        1.0  0.75000  0.21400  0.50000  1.0000 0.1269609901
H   H7        1.0  0.46400  0.08040  0.91670  1.0000 0.1485449049
H   H8        1.0  0.03600  0.08040  0.08330  1.0000 0.1485449049
H   H9        1.0  0.53600  0.91960  0.08330  1.0000 0.1485449049
H   H10       1.0  0.96400  0.91960  0.91670  1.0000 0.1485449049
H   H11       1.0  0.50350  0.20860  0.72910  1.0000 0.1363268145
H   H12       1.0  0.99650  0.20860  0.27090  1.0000 0.1363268145
H   H13       1.0  0.49650  0.79140  0.27090  1.0000 0.1363268145
H   H14       1.0  0.00350  0.79140  0.72910  1.0000 0.1363268145
H   H15       1.0  0.22540  0.15310  0.73300  1.0000 0.1363268145
H   H16       1.0  0.27460  0.15310  0.26700  1.0000 0.1363268145
H   H17       1.0  0.77460  0.84690  0.26700  1.0000 0.1363268145
H   H18       1.0  0.72540  0.84690  0.73300  1.0000 0.1363268145
C   C1        1.0  0.33590  0.59310  0.50270  1.0000 -0.0781656829
C   C2        1.0  0.16410  0.59310  0.49730  1.0000 -0.0781656829
C   C3        1.0  0.66410  0.40690  0.49730  1.0000 -0.0781656829
C   C4        1.0  0.83590  0.40690  0.50270  1.0000 -0.0781656829
C   C5        1.0  0.33800  0.68170  0.50410  1.0000 -0.0277198656
C   C6        1.0  0.16200  0.68170  0.49590  1.0000 -0.0277198656
C   C7        1.0  0.66200  0.31830  0.49590  1.0000 -0.0277198656
C   C8        1.0  0.83800  0.31830  0.50410  1.0000 -0.0277198656
C   C9        1.0  0.25000  0.72600  0.50000  1.0000 -0.0617932027
C   C10       1.0  0.75000  0.27400  0.50000  1.0000 -0.0617932027
C   C11       1.0  0.25000  0.54740  0.50000  1.0000 -0.0277198656
C   C12       1.0  0.75000  0.45260  0.50000  1.0000 -0.0277198656
C   C13       1.0  0.43150  0.72770  0.50880  1.0000 0.5582136037
C   C14       1.0  0.06850  0.72770  0.49120  1.0000 0.5582136037
C   C15       1.0  0.56850  0.27230  0.49120  1.0000 0.5582136037
C   C16       1.0  0.93150  0.27230  0.50880  1.0000 0.5582136037
C   C17       1.0  0.25000  0.45160  0.50000  1.0000 0.610458714
C   C18       1.0  0.75000  0.54840  0.50000  1.0000 0.610458714
C   C19       1.0  0.43690  0.10820  0.86610  1.0000 -0.0698001933
C   C20       1.0  0.06310  0.10820  0.13390  1.0000 -0.0698001933
C   C21       1.0  0.56310  0.89180  0.13390  1.0000 -0.0698001933
C   C22       1.0  0.93690  0.89180  0.86610  1.0000 -0.0698001933
C   C23       1.0  0.50010  0.14540  0.83000  1.0000 -0.0277198656
C   C24       1.0  0.99990  0.14540  0.17000  1.0000 -0.0277198656
C   C25       1.0  0.49990  0.85460  0.17000  1.0000 -0.0277198656
C   C26       1.0  0.00010  0.85460  0.83000  1.0000 -0.0277198656
C   C27       1.0  0.46040  0.18360  0.75440  1.0000 -0.0698001933
C   C28       1.0  0.03960  0.18360  0.24560  1.0000 -0.0698001933
C   C29       1.0  0.53960  0.81640  0.24560  1.0000 -0.0698001933
C   C30       1.0  0.96040  0.81640  0.75440  1.0000 -0.0698001933
C   C31       1.0  0.35700  0.18640  0.71320  1.0000 -0.0617932027
C   C32       1.0  0.14300  0.18640  0.28680  1.0000 -0.0617932027
C   C33       1.0  0.64300  0.81360  0.28680  1.0000 -0.0617932027
C   C34       1.0  0.85700  0.81360  0.71320  1.0000 -0.0617932027
C   C35       1.0  0.29450  0.14980  0.75620  1.0000 -0.0617932027
C   C36       1.0  0.20550  0.14980  0.24380  1.0000 -0.0617932027
C   C37       1.0  0.70550  0.85020  0.24380  1.0000 -0.0617932027
C   C38       1.0  0.79450  0.85020  0.75620  1.0000 -0.0617932027
C   C39       1.0  0.33480  0.10940  0.83160  1.0000 -0.0167580707
C   C40       1.0  0.16520  0.10940  0.16840  1.0000 -0.0167580707
C   C41       1.0  0.66520  0.89060  0.16840  1.0000 -0.0167580707
C   C42       1.0  0.83480  0.89060  0.83160  1.0000 -0.0167580707
C   C43       1.0  0.31500  0.22540  0.63210  1.0000 0.6044092598
C   C44       1.0  0.18500  0.22540  0.36790  1.0000 0.6044092598
C   C45       1.0  0.68500  0.77460  0.36790  1.0000 0.6044092598
C   C46       1.0  0.81500  0.77460  0.63210  1.0000 0.6044092598
C   C47       1.0  0.60890  0.14020  0.86870  1.0000 0.5540858778
C   C48       1.0  0.89110  0.14020  0.13130  1.0000 0.5540858778
C   C49       1.0  0.39110  0.85980  0.13130  1.0000 0.5540858778
C   C50       1.0  0.10890  0.85980  0.86870  1.0000 0.5582136037
C   C51       1.0  0.26650  0.06570  0.87040  1.0000 0.5582136037
C   C52       1.0  0.23350  0.06570  0.12960  1.0000 0.5582136037
C   C53       1.0  0.73350  0.93430  0.12960  1.0000 0.5582136037
C   C54       1.0  0.76650  0.93430  0.87040  1.0000 0.5540858778
O   O1        1.0  0.50670  0.68070  0.51940  1.0000 -0.4934029358
O   O2        1.0  0.99330  0.68070  0.48060  1.0000 -0.4954361496
O   O3        1.0  0.49330  0.31930  0.48060  1.0000 -0.4934029358
O   O4        1.0  0.00670  0.31930  0.51940  1.0000 -0.4934029358
O   O5        1.0  0.43230  0.80530  0.50120  1.0000 -0.4023130499
O   O6        1.0  0.06770  0.80530  0.49880  1.0000 -0.390352684
O   O7        1.0  0.56770  0.19470  0.49880  1.0000 -0.4023130499
O   O8        1.0  0.93230  0.19470  0.50120  1.0000 -0.4023130499
O   O9        1.0  0.32380  0.41520  0.48990  1.0000 -0.5217130718
O   O10       1.0  0.17620  0.41520  0.51010  1.0000 -0.5217130718
O   O11       1.0  0.67620  0.58480  0.51010  1.0000 -0.5217130718
O   O12       1.0  0.82380  0.58480  0.48990  1.0000 -0.5217130718
O   O13       1.0  0.37510  0.24600  0.59460  1.0000 -0.5217130718
O   O14       1.0  0.12490  0.24600  0.40540  1.0000 -0.5266139598
O   O15       1.0  0.62490  0.75400  0.40540  1.0000 -0.5266139598
O   O16       1.0  0.87510  0.75400  0.59460  1.0000 -0.5266139598
O   O17       1.0  0.22210  0.23370  0.60460  1.0000 -0.5266139598
O   O18       1.0  0.27790  0.23370  0.39540  1.0000 -0.5266139598
O   O19       1.0  0.77790  0.76630  0.39540  1.0000 -0.5266139598
O   O20       1.0  0.72210  0.76630  0.60460  1.0000 -0.5266139598
O   O21       1.0  0.63720  0.11640  0.94440  1.0000 -0.4686281932
O   O22       1.0  0.86280  0.11640  0.05560  1.0000 -0.4686281932
O   O23       1.0  0.36280  0.88360  0.05560  1.0000 -0.4686281932
O   O24       1.0  0.13720  0.88360  0.94440  1.0000 -0.4686281932
O   O25       1.0  0.66840  0.15930  0.82910  1.0000 -0.3828865392
O   O26       1.0  0.83160  0.15930  0.17090  1.0000 -0.3828865392
O   O27       1.0  0.33160  0.84070  0.17090  1.0000 -0.3828865392
O   O28       1.0  0.16840  0.84070  0.82910  1.0000 -0.3828865392
O   O29       1.0  0.31250  0.02150  0.93420  1.0000 -0.4785548476
O   O30       1.0  0.18750  0.02150  0.06580  1.0000 -0.4785548476
O   O31       1.0  0.68750  0.97850  0.06580  1.0000 -0.4785548476
O   O32       1.0  0.81250  0.97850  0.93420  1.0000 -0.4785548476
O   O33       1.0  0.17490  0.07730  0.84620  1.0000 -0.4023130499
O   O34       1.0  0.32510  0.07730  0.15380  1.0000 -0.4023130499
O   O35       1.0  0.82510  0.92270  0.15380  1.0000 -0.4023130499
O   O36       1.0  0.67490  0.92270  0.84620  1.0000 -0.4023130499
