# DDEC6 charges by PACMAN v1.1 (https://github.com/mtap-research/PACMAN-charge/)
data_2012[Cd][pcu]3[ASR]3
_chemical_formula_sum              "Cd2 H40 C52 N8 O12"
_cell_length_a       9.361
_cell_length_b       12.713
_cell_length_c       12.755
_cell_angle_alpha    111.843
_cell_angle_beta     105.938
_cell_angle_gamma    97.104

_symmetry_space_group_name_H-M    "P 1"
_symmetry_Int_Tables_number       1

loop_
  _symmetry_equiv_pos_as_xyz
  'x, y, z'

loop_
  _atom_site_type_symbol
  _atom_site_label
  _atom_site_symmetry_multiplicity
  _atom_site_fract_x
  _atom_site_fract_y
  _atom_site_fract_z
  _atom_site_occupancy
  _atom_site_charge
Cd  Cd1       1.0  0.98515  0.60331  0.42226  1.0000 0.8687254685
Cd  Cd2       1.0  0.01485  0.39669  0.57774  1.0000 0.8687254685
H   H1        1.0  0.37480  0.64740  0.55290  1.0000 0.1295096839
H   H2        1.0  0.62520  0.35260  0.44710  1.0000 0.1295096839
H   H3        1.0  0.55600  0.82350  0.71980  1.0000 0.1200173165
H   H4        1.0  0.44400  0.17650  0.28020  1.0000 0.1200173165
H   H5        1.0  0.13510  0.86510  0.66040  1.0000 0.1200173165
H   H6        1.0  0.86490  0.13490  0.33960  1.0000 0.1200173165
H   H7        1.0  0.61190  0.04360  0.79740  1.0000 0.1295096839
H   H8        1.0  0.38810  0.95640  0.20260  1.0000 0.1295096839
H   H9        1.0  0.70910  0.22680  0.95950  1.0000 0.1295096839
H   H10       1.0  0.29090  0.77320  0.04050  1.0000 0.1295096839
H   H11       1.0  0.33480  0.17090  0.04710  1.0000 0.1200173165
H   H12       1.0  0.66520  0.82910  0.95290  1.0000 0.1200173165
H   H13       1.0  0.24050  0.98910  0.88520  1.0000 0.1295096839
H   H14       1.0  0.75950  0.01090  0.11480  1.0000 0.1295096839
H   H15       1.0  0.81810  0.34250  0.17620  1.0000 0.1200173165
H   H16       1.0  0.18190  0.65750  0.82380  1.0000 0.1200173165
H   H17       1.0  0.40490  0.39520  0.14630  1.0000 0.1411454725
H   H18       1.0  0.59510  0.60480  0.85370  1.0000 0.1411454725
H   H19       1.0  0.59330  0.56060  0.32080  1.0000 0.1295096839
H   H20       1.0  0.40670  0.43940  0.67920  1.0000 0.1295096839
H   H21       1.0  0.93600  0.93890  0.36610  1.0000 0.1295096839
H   H22       1.0  0.06400  0.06110  0.63390  1.0000 0.1295096839
H   H23       1.0  0.77060  0.85880  0.28590  1.0000 0.1130866009
H   H24       1.0  0.22940  0.14120  0.71410  1.0000 0.1130866009
H   H25       1.0  0.58210  0.76140  0.31140  1.0000 0.1200173165
H   H26       1.0  0.41790  0.23860  0.68860  1.0000 0.1200173165
H   H27       1.0  0.77480  0.14660  0.59290  1.0000 0.1200173165
H   H28       1.0  0.22520  0.85340  0.40710  1.0000 0.1200173165
H   H29       1.0  0.32500  0.71640  0.29390  1.0000 0.1200173165
H   H30       1.0  0.67500  0.28360  0.70610  1.0000 0.1200173165
H   H31       1.0  0.30160  0.32880  0.35970  1.0000 0.1295096839
H   H32       1.0  0.69840  0.67120  0.64030  1.0000 0.1295096839
H   H33       1.0  0.15060  0.26220  0.36230  1.0000 0.1295096839
H   H34       1.0  0.84940  0.73780  0.63770  1.0000 0.1295096839
H   H35       1.0  0.16480  0.09730  0.30590  1.0000 0.1295096839
H   H36       1.0  0.83520  0.90270  0.69410  1.0000 0.1295096839
H   H37       1.0  0.08420  0.89450  0.21400  1.0000 0.1200173165
H   H38       1.0  0.91580  0.10550  0.78600  1.0000 0.1200173165
H   H39       1.0  0.97100  0.79580  0.00970  1.0000 0.1200173165
H   H40       1.0  0.02900  0.20420  0.99030  1.0000 0.1200173165
C   C1        1.0  0.34920  0.71480  0.59560  1.0000 -0.0207460082
C   C2        1.0  0.65080  0.28520  0.40440  1.0000 -0.0207460082
C   C3        1.0  0.45000  0.81070  0.68860  1.0000 -0.1179103208
C   C4        1.0  0.55000  0.18930  0.31140  1.0000 -0.1179103208
C   C5        1.0  0.21750  0.83220  0.65380  1.0000 0.1200173165
C   C6        1.0  0.78250  0.16780  0.34620  1.0000 0.1200173165
C   C7        1.0  0.42090  0.99850  0.82830  1.0000 0.1411454725
C   C8        1.0  0.57910  0.00150  0.17170  1.0000 0.1411454725
C   C9        1.0  0.55740  0.06940  0.84890  1.0000 -0.1535558504
C   C10       1.0  0.44260  0.93060  0.15110  1.0000 -0.1535558504
C   C11       1.0  0.61570  0.17900  0.94530  1.0000 -0.171805088
C   C12       1.0  0.38430  0.82100  0.05470  1.0000 -0.171805088
C   C13       1.0  0.53090  0.21590  0.02020  1.0000 0.1560697231
C   C14       1.0  0.46910  0.78410  0.97980  1.0000 0.1560697231
C   C15       1.0  0.39130  0.14500  0.99720  1.0000 -0.171805088
C   C16       1.0  0.60870  0.85500  0.00280  1.0000 -0.171805088
C   C17       1.0  0.33500  0.03640  0.90100  1.0000 -0.171805088
C   C18       1.0  0.66500  0.96360  0.09900  1.0000 -0.171805088
C   C19       1.0  0.73930  0.37680  0.19080  1.0000 0.1040082323
C   C20       1.0  0.26070  0.62320  0.80920  1.0000 0.1040082323
C   C21       1.0  0.51060  0.40440  0.17320  1.0000 -0.1036754203
C   C22       1.0  0.48940  0.59560  0.82680  1.0000 -0.1036754203
C   C23       1.0  0.61530  0.49580  0.26940  1.0000 -0.0402112034
C   C24       1.0  0.38470  0.50420  0.73060  1.0000 -0.0402112034
C   C25       1.0  0.89310  0.79080  0.39280  1.0000 0.5622810918
C   C26       1.0  0.10690  0.20920  0.60720  1.0000 0.5622810918
C   C27       1.0  0.84670  0.89150  0.36630  1.0000 -0.171805088
C   C28       1.0  0.15330  0.10850  0.63370  1.0000 -0.171805088
C   C29       1.0  0.63290  0.92710  0.43140  1.0000 0.1898052964
C   C30       1.0  0.36710  0.07290  0.56860  1.0000 0.1898052964
C   C31       1.0  0.54220  0.81810  0.35640  1.0000 -0.2401733202
C   C32       1.0  0.45780  0.18190  0.64360  1.0000 -0.2401733202
C   C33       1.0  0.57860  0.01450  0.50630  1.0000 -0.0112583096
C   C34       1.0  0.42140  0.98550  0.49370  1.0000 -0.0112583096
C   C35       1.0  0.67240  0.12740  0.58600  1.0000 -0.1580736739
C   C36       1.0  0.32760  0.87260  0.41400  1.0000 -0.1580736739
C   C37       1.0  0.38750  0.79090  0.34670  1.0000 -0.0835478407
C   C38       1.0  0.61250  0.20910  0.65330  1.0000 -0.0835478407
C   C39       1.0  0.13320  0.41650  0.35110  1.0000 0.5725359517
C   C40       1.0  0.86680  0.58350  0.64890  1.0000 0.5725359517
C   C41       1.0  0.19040  0.30760  0.32530  1.0000 -0.1821437629
C   C42       1.0  0.80960  0.69240  0.67470  1.0000 -0.1821437629
C   C43       1.0  0.09500  0.11850  0.15370  1.0000 0.1898052964
C   C44       1.0  0.90500  0.88150  0.84630  1.0000 0.1898052964
C   C45       1.0  0.11770  0.05780  0.22270  1.0000 -0.2569097382
C   C46       1.0  0.88230  0.94220  0.77730  1.0000 -0.2569097382
C   C47       1.0  0.06950  0.93630  0.16720  1.0000 -0.085491131
C   C48       1.0  0.93050  0.06370  0.83280  1.0000 -0.085491131
C   C49       1.0  0.00100  0.87720  0.04510  1.0000 -0.171805088
C   C50       1.0  0.99900  0.12280  0.95490  1.0000 -0.171805088
C   C51       1.0  0.02490  0.06180  0.02780  1.0000 -0.0207460082
C   C52       1.0  0.97510  0.93820  0.97220  1.0000 -0.0207460082
N   N1        1.0  0.20430  0.73030  0.57280  1.0000 -0.2792170745
N   N2        1.0  0.79570  0.26970  0.42720  1.0000 -0.2792170745
N   N3        1.0  0.36260  0.88570  0.72760  1.0000 0.0019825023
N   N4        1.0  0.63740  0.11430  0.27240  1.0000 0.0019825023
N   N5        1.0  0.58940  0.32720  0.12220  1.0000 -0.0013054631
N   N6        1.0  0.41060  0.67280  0.87780  1.0000 -0.0013054631
N   N7        1.0  0.76170  0.47830  0.28000  1.0000 -0.2792170745
N   N8        1.0  0.23830  0.52170  0.72000  1.0000 -0.2792170745
O   O1        1.0  0.87710  0.77800  0.48050  1.0000 -0.54897062
O   O2        1.0  0.12290  0.22200  0.51950  1.0000 -0.54897062
O   O3        1.0  0.94900  0.72560  0.32240  1.0000 -0.54897062
O   O4        1.0  0.05100  0.27440  0.67760  1.0000 -0.54897062
O   O5        1.0  0.10430  0.45460  0.44620  1.0000 -0.5395778221
O   O6        1.0  0.89570  0.54540  0.55380  1.0000 -0.5395778221
O   O7        1.0  0.11270  0.46520  0.28300  1.0000 -0.511337201
O   O8        1.0  0.88730  0.53480  0.71700  1.0000 -0.511337201
O   O9        1.0  0.14240  0.23880  0.19860  1.0000 -0.1821437629
O   O10       1.0  0.85760  0.76120  0.80140  1.0000 -0.1821437629
O   O11       1.0  0.78630  0.96540  0.44700  1.0000 -0.1821437629
O   O12       1.0  0.21370  0.03460  0.55300  1.0000 -0.1821437629
