# DDEC6 charges by PACMAN v1.1 (https://github.com/mtap-research/PACMAN-charge/)
data_2012[Mn][nan]3[ASR]1
_chemical_formula_sum              "Mn24 P16 H192 C336 O112"
_cell_length_a       20.0594
_cell_length_b       24.9943
_cell_length_c       25.0645
_cell_angle_alpha    90
_cell_angle_beta     90
_cell_angle_gamma    90

_symmetry_space_group_name_H-M    "P 1"
_symmetry_Int_Tables_number       1

loop_
  _symmetry_equiv_pos_as_xyz
  'x, y, z'

loop_
  _atom_site_type_symbol
  _atom_site_label
  _atom_site_symmetry_multiplicity
  _atom_site_fract_x
  _atom_site_fract_y
  _atom_site_fract_z
  _atom_site_occupancy
  _atom_site_charge
Mn  Mn1       1.0  0.91956  0.90903  0.07587  1.0000 1.0439133464
Mn  Mn2       1.0  0.41956  0.09097  0.42413  1.0000 1.0439133464
Mn  Mn3       1.0  0.08044  0.59097  0.57587  1.0000 1.0439133464
Mn  Mn4       1.0  0.58044  0.40903  0.92413  1.0000 1.0439133464
Mn  Mn5       1.0  0.08044  0.09097  0.92413  1.0000 1.0439133464
Mn  Mn6       1.0  0.58044  0.90903  0.57587  1.0000 1.0439133464
Mn  Mn7       1.0  0.91956  0.40903  0.42413  1.0000 1.045065385
Mn  Mn8       1.0  0.41956  0.59097  0.07587  1.0000 1.0439133464
Mn  Mn9       1.0  0.75200  0.94113  0.12666  1.0000 1.0975652008
Mn  Mn10      1.0  0.25200  0.05887  0.37334  1.0000 1.0975652008
Mn  Mn11      1.0  0.24800  0.55887  0.62666  1.0000 1.0975652008
Mn  Mn12      1.0  0.74800  0.44113  0.87334  1.0000 1.0975652008
Mn  Mn13      1.0  0.24800  0.05887  0.87334  1.0000 1.0975652008
Mn  Mn14      1.0  0.74800  0.94113  0.62666  1.0000 1.0975652008
Mn  Mn15      1.0  0.75200  0.44113  0.37334  1.0000 1.0975652008
Mn  Mn16      1.0  0.25200  0.55887  0.12666  1.0000 1.0975652008
Mn  Mn17      1.0  0.08137  0.52650  0.08406  1.0000 1.013192129
Mn  Mn18      1.0  0.58137  0.47350  0.41594  1.0000 1.013192129
Mn  Mn19      1.0  0.91863  0.97350  0.58406  1.0000 1.013192129
Mn  Mn20      1.0  0.41863  0.02650  0.91594  1.0000 1.013192129
Mn  Mn21      1.0  0.91863  0.47350  0.91594  1.0000 1.013192129
Mn  Mn22      1.0  0.41863  0.52650  0.58406  1.0000 1.013192129
Mn  Mn23      1.0  0.08137  0.02650  0.41594  1.0000 1.013192129
Mn  Mn24      1.0  0.58137  0.97350  0.08406  1.0000 1.013192129
P   P1        1.0  0.91162  0.76446  0.40359  1.0000 0.8389920115
P   P2        1.0  0.41162  0.23554  0.09641  1.0000 0.8389920115
P   P3        1.0  0.08838  0.73554  0.90359  1.0000 0.8389920115
P   P4        1.0  0.58838  0.26446  0.59641  1.0000 0.8389920115
P   P5        1.0  0.08838  0.23554  0.59641  1.0000 0.8389920115
P   P6        1.0  0.58838  0.76446  0.90359  1.0000 0.8389920115
P   P7        1.0  0.91162  0.26446  0.09641  1.0000 0.8389920115
P   P8        1.0  0.41162  0.73554  0.40359  1.0000 0.8389920115
P   P9        1.0  0.09176  0.88060  0.09406  1.0000 0.8554825702
P   P10       1.0  0.59176  0.11940  0.40594  1.0000 0.8536791621
P   P11       1.0  0.90824  0.61940  0.59406  1.0000 0.8554825702
P   P12       1.0  0.40824  0.38060  0.90594  1.0000 0.8554825702
P   P13       1.0  0.90824  0.11940  0.90594  1.0000 0.8554825702
P   P14       1.0  0.40824  0.88060  0.59406  1.0000 0.8554825702
P   P15       1.0  0.09176  0.38060  0.40594  1.0000 0.8536791621
P   P16       1.0  0.59176  0.61940  0.09406  1.0000 0.8554825702
H   H1        1.0  0.99280  0.79900  0.31780  1.0000 0.128140061
H   H2        1.0  0.49280  0.20100  0.18220  1.0000 0.128140061
H   H3        1.0  0.00720  0.70100  0.81780  1.0000 0.128140061
H   H4        1.0  0.50720  0.29900  0.68220  1.0000 0.128140061
H   H5        1.0  0.00720  0.20100  0.68220  1.0000 0.128140061
H   H6        1.0  0.50720  0.79900  0.81780  1.0000 0.128140061
H   H7        1.0  0.99280  0.29900  0.18220  1.0000 0.128140061
H   H8        1.0  0.49280  0.70100  0.31780  1.0000 0.128140061
H   H9        1.0  0.97590  0.83930  0.23520  1.0000 0.1196837412
H   H10       1.0  0.47590  0.16070  0.26480  1.0000 0.1196837412
H   H11       1.0  0.02410  0.66070  0.73520  1.0000 0.1196837412
H   H12       1.0  0.52410  0.33930  0.76480  1.0000 0.1196837412
H   H13       1.0  0.02410  0.16070  0.76480  1.0000 0.1196837412
H   H14       1.0  0.52410  0.83930  0.73520  1.0000 0.1196837412
H   H15       1.0  0.97590  0.33930  0.26480  1.0000 0.1196837412
H   H16       1.0  0.47590  0.66070  0.23520  1.0000 0.1196837412
H   H17       1.0  0.77900  0.84010  0.26070  1.0000 0.128140061
H   H18       1.0  0.27900  0.15990  0.23930  1.0000 0.128140061
H   H19       1.0  0.22100  0.65990  0.76070  1.0000 0.128140061
H   H20       1.0  0.72100  0.34010  0.73930  1.0000 0.128140061
H   H21       1.0  0.22100  0.15990  0.73930  1.0000 0.128140061
H   H22       1.0  0.72100  0.84010  0.76070  1.0000 0.128140061
H   H23       1.0  0.77900  0.34010  0.23930  1.0000 0.128140061
H   H24       1.0  0.27900  0.65990  0.26070  1.0000 0.128140061
H   H25       1.0  0.79430  0.79770  0.34250  1.0000 0.109866183
H   H26       1.0  0.29430  0.20230  0.15750  1.0000 0.109866183
H   H27       1.0  0.20570  0.70230  0.84250  1.0000 0.109866183
H   H28       1.0  0.70570  0.29770  0.65750  1.0000 0.109866183
H   H29       1.0  0.20570  0.20230  0.65750  1.0000 0.109866183
H   H30       1.0  0.70570  0.79770  0.84250  1.0000 0.109866183
H   H31       1.0  0.79430  0.29770  0.15750  1.0000 0.109866183
H   H32       1.0  0.29430  0.70230  0.34250  1.0000 0.109866183
H   H33       1.0  0.96480  0.67380  0.45470  1.0000 0.128140061
H   H34       1.0  0.46480  0.32620  0.04530  1.0000 0.128140061
H   H35       1.0  0.03520  0.82620  0.95470  1.0000 0.128140061
H   H36       1.0  0.53520  0.17380  0.54530  1.0000 0.128140061
H   H37       1.0  0.03520  0.32620  0.54530  1.0000 0.128140061
H   H38       1.0  0.53520  0.67380  0.95470  1.0000 0.128140061
H   H39       1.0  0.96480  0.17380  0.04530  1.0000 0.128140061
H   H40       1.0  0.46480  0.82620  0.45470  1.0000 0.128140061
H   H41       1.0  0.95420  0.58320  0.45170  1.0000 0.128140061
H   H42       1.0  0.45420  0.41680  0.04830  1.0000 0.128140061
H   H43       1.0  0.04580  0.91680  0.95170  1.0000 0.128140061
H   H44       1.0  0.54580  0.08320  0.54830  1.0000 0.128140061
H   H45       1.0  0.04580  0.41680  0.54830  1.0000 0.128140061
H   H46       1.0  0.54580  0.58320  0.95170  1.0000 0.128140061
H   H47       1.0  0.95420  0.08320  0.04830  1.0000 0.128140061
H   H48       1.0  0.45420  0.91680  0.45170  1.0000 0.128140061
H   H49       1.0  0.81550  0.59900  0.33630  1.0000 0.128140061
H   H50       1.0  0.31550  0.40100  0.16370  1.0000 0.128140061
H   H51       1.0  0.18450  0.90100  0.83630  1.0000 0.128140061
H   H52       1.0  0.68450  0.09900  0.66370  1.0000 0.128140061
H   H53       1.0  0.18450  0.40100  0.66370  1.0000 0.128140061
H   H54       1.0  0.68450  0.59900  0.83630  1.0000 0.128140061
H   H55       1.0  0.81550  0.09900  0.16370  1.0000 0.128140061
H   H56       1.0  0.31550  0.90100  0.33630  1.0000 0.128140061
H   H57       1.0  0.83040  0.69110  0.33840  1.0000 0.109866183
H   H58       1.0  0.33040  0.30890  0.16160  1.0000 0.109866183
H   H59       1.0  0.16960  0.80890  0.83840  1.0000 0.109866183
H   H60       1.0  0.66960  0.19110  0.66160  1.0000 0.109866183
H   H61       1.0  0.16960  0.30890  0.66160  1.0000 0.109866183
H   H62       1.0  0.66960  0.69110  0.83840  1.0000 0.109866183
H   H63       1.0  0.83040  0.19110  0.16160  1.0000 0.109866183
H   H64       1.0  0.33040  0.80890  0.33840  1.0000 0.109866183
H   H65       1.0  0.88370  0.86280  0.45310  1.0000 0.128140061
H   H66       1.0  0.38370  0.13720  0.04690  1.0000 0.1196837412
H   H67       1.0  0.11630  0.63720  0.95310  1.0000 0.128140061
H   H68       1.0  0.61630  0.36280  0.54690  1.0000 0.128140061
H   H69       1.0  0.11630  0.13720  0.54690  1.0000 0.128140061
H   H70       1.0  0.61630  0.86280  0.95310  1.0000 0.128140061
H   H71       1.0  0.88370  0.36280  0.04690  1.0000 0.1196837412
H   H72       1.0  0.38370  0.63720  0.45310  1.0000 0.128140061
H   H73       1.0  0.79830  0.89860  0.50530  1.0000 0.1196837412
H   H74       1.0  0.29830  0.10140  0.99470  1.0000 0.1196837412
H   H75       1.0  0.20170  0.60140  0.00530  1.0000 0.1196837412
H   H76       1.0  0.70170  0.39860  0.49470  1.0000 0.1196837412
H   H77       1.0  0.20170  0.10140  0.49470  1.0000 0.1196837412
H   H78       1.0  0.70170  0.89860  0.00530  1.0000 0.1196837412
H   H79       1.0  0.79830  0.39860  0.99470  1.0000 0.1196837412
H   H80       1.0  0.29830  0.60140  0.50530  1.0000 0.1196837412
H   H81       1.0  0.70530  0.75570  0.50430  1.0000 0.1196837412
H   H82       1.0  0.20530  0.24430  0.99570  1.0000 0.1196837412
H   H83       1.0  0.29470  0.74430  0.00430  1.0000 0.1196837412
H   H84       1.0  0.79470  0.25570  0.49570  1.0000 0.1196837412
H   H85       1.0  0.29470  0.24430  0.49570  1.0000 0.1196837412
H   H86       1.0  0.79470  0.75570  0.00430  1.0000 0.1196837412
H   H87       1.0  0.70530  0.25570  0.99570  1.0000 0.1196837412
H   H88       1.0  0.20530  0.74430  0.50430  1.0000 0.1196837412
H   H89       1.0  0.79120  0.71950  0.45390  1.0000 0.1047006069
H   H90       1.0  0.29120  0.28050  0.04610  1.0000 0.1047006069
H   H91       1.0  0.20880  0.78050  0.95390  1.0000 0.1047006069
H   H92       1.0  0.70880  0.21950  0.54610  1.0000 0.1047006069
H   H93       1.0  0.20880  0.28050  0.54610  1.0000 0.1047006069
H   H94       1.0  0.70880  0.71950  0.95390  1.0000 0.1047006069
H   H95       1.0  0.79120  0.21950  0.04610  1.0000 0.1047006069
H   H96       1.0  0.29120  0.78050  0.45390  1.0000 0.1047006069
H   H97       1.0  0.18240  0.80980  0.14960  1.0000 0.109866183
H   H98       1.0  0.68240  0.19020  0.35040  1.0000 0.109866183
H   H99       1.0  0.81760  0.69020  0.64960  1.0000 0.109866183
H   H100      1.0  0.31760  0.30980  0.85040  1.0000 0.109866183
H   H101      1.0  0.81760  0.19020  0.85040  1.0000 0.109866183
H   H102      1.0  0.31760  0.80980  0.64960  1.0000 0.109866183
H   H103      1.0  0.18240  0.30980  0.35040  1.0000 0.109866183
H   H104      1.0  0.68240  0.69020  0.14960  1.0000 0.109866183
H   H105      1.0  0.19690  0.71750  0.15320  1.0000 0.128140061
H   H106      1.0  0.69690  0.28250  0.34680  1.0000 0.128140061
H   H107      1.0  0.80310  0.78250  0.65320  1.0000 0.128140061
H   H108      1.0  0.30310  0.21750  0.84680  1.0000 0.128140061
H   H109      1.0  0.80310  0.28250  0.84680  1.0000 0.128140061
H   H110      1.0  0.30310  0.71750  0.65320  1.0000 0.128140061
H   H111      1.0  0.19690  0.21750  0.34680  1.0000 0.128140061
H   H112      1.0  0.69690  0.78250  0.15320  1.0000 0.128140061
H   H113      1.0  0.03500  0.69820  0.05950  1.0000 0.128140061
H   H114      1.0  0.53500  0.30180  0.44050  1.0000 0.128140061
H   H115      1.0  0.96500  0.80180  0.55950  1.0000 0.128140061
H   H116      1.0  0.46500  0.19820  0.94050  1.0000 0.128140061
H   H117      1.0  0.96500  0.30180  0.94050  1.0000 0.128140061
H   H118      1.0  0.46500  0.69820  0.55950  1.0000 0.128140061
H   H119      1.0  0.03500  0.19820  0.44050  1.0000 0.128140061
H   H120      1.0  0.53500  0.80180  0.05950  1.0000 0.128140061
H   H121      1.0  0.02180  0.79020  0.05620  1.0000 0.128140061
H   H122      1.0  0.52180  0.20980  0.44380  1.0000 0.128140061
H   H123      1.0  0.97820  0.70980  0.55620  1.0000 0.128140061
H   H124      1.0  0.47820  0.29020  0.94380  1.0000 0.128140061
H   H125      1.0  0.97820  0.20980  0.94380  1.0000 0.128140061
H   H126      1.0  0.47820  0.79020  0.55620  1.0000 0.128140061
H   H127      1.0  0.02180  0.29020  0.44380  1.0000 0.128140061
H   H128      1.0  0.52180  0.70980  0.05620  1.0000 0.128140061
H   H129      1.0  0.20990  0.91350  0.15310  1.0000 0.109866183
H   H130      1.0  0.70990  0.08650  0.34690  1.0000 0.109866183
H   H131      1.0  0.79010  0.58650  0.65310  1.0000 0.109866183
H   H132      1.0  0.29010  0.41350  0.84690  1.0000 0.109866183
H   H133      1.0  0.79010  0.08650  0.84690  1.0000 0.109866183
H   H134      1.0  0.29010  0.91350  0.65310  1.0000 0.109866183
H   H135      1.0  0.20990  0.41350  0.34690  1.0000 0.109866183
H   H136      1.0  0.70990  0.58650  0.15310  1.0000 0.109866183
H   H137      1.0  0.22820  0.95800  0.23340  1.0000 0.128140061
H   H138      1.0  0.72820  0.04200  0.26660  1.0000 0.128140061
H   H139      1.0  0.77180  0.54200  0.73340  1.0000 0.128140061
H   H140      1.0  0.27180  0.45800  0.76660  1.0000 0.128140061
H   H141      1.0  0.77180  0.04200  0.76660  1.0000 0.128140061
H   H142      1.0  0.27180  0.95800  0.73340  1.0000 0.128140061
H   H143      1.0  0.22820  0.45800  0.26660  1.0000 0.128140061
H   H144      1.0  0.72820  0.54200  0.23340  1.0000 0.128140061
H   H145      1.0  0.01210  0.92040  0.17860  1.0000 0.128140061
H   H146      1.0  0.51210  0.07960  0.32140  1.0000 0.128140061
H   H147      1.0  0.98790  0.57960  0.67860  1.0000 0.128140061
H   H148      1.0  0.48790  0.42040  0.82140  1.0000 0.128140061
H   H149      1.0  0.98790  0.07960  0.82140  1.0000 0.128140061
H   H150      1.0  0.48790  0.92040  0.67860  1.0000 0.128140061
H   H151      1.0  0.01210  0.42040  0.32140  1.0000 0.128140061
H   H152      1.0  0.51210  0.57960  0.17860  1.0000 0.128140061
H   H153      1.0  0.21320  0.83600  0.04440  1.0000 0.109866183
H   H154      1.0  0.71320  0.16400  0.45560  1.0000 0.109866183
H   H155      1.0  0.78680  0.66400  0.54440  1.0000 0.109866183
H   H156      1.0  0.28680  0.33600  0.95560  1.0000 0.109866183
H   H157      1.0  0.78680  0.16400  0.95560  1.0000 0.109866183
H   H158      1.0  0.28680  0.83600  0.54440  1.0000 0.109866183
H   H159      1.0  0.21320  0.33600  0.45560  1.0000 0.109866183
H   H160      1.0  0.71320  0.66400  0.04440  1.0000 0.109866183
H   H161      1.0  0.29910  0.87240  0.99400  1.0000 0.1196837412
H   H162      1.0  0.79910  0.12760  0.50600  1.0000 0.1196837412
H   H163      1.0  0.70090  0.62760  0.49400  1.0000 0.1196837412
H   H164      1.0  0.20090  0.37240  0.00600  1.0000 0.1196837412
H   H165      1.0  0.70090  0.12760  0.00600  1.0000 0.1196837412
H   H166      1.0  0.20090  0.87240  0.49400  1.0000 0.1196837412
H   H167      1.0  0.29910  0.37240  0.50600  1.0000 0.1196837412
H   H168      1.0  0.79910  0.62760  0.99400  1.0000 0.1196837412
H   H169      1.0  0.20570  0.01420  0.99360  1.0000 0.128140061
H   H170      1.0  0.70570  0.98580  0.50640  1.0000 0.128140061
H   H171      1.0  0.79430  0.48580  0.49360  1.0000 0.128140061
H   H172      1.0  0.29430  0.51420  0.00640  1.0000 0.128140061
H   H173      1.0  0.79430  0.98580  0.00640  1.0000 0.128140061
H   H174      1.0  0.29430  0.01420  0.49360  1.0000 0.128140061
H   H175      1.0  0.20570  0.51420  0.50640  1.0000 0.128140061
H   H176      1.0  0.70570  0.48580  0.99360  1.0000 0.128140061
H   H177      1.0  0.11990  0.97810  0.04440  1.0000 0.128140061
H   H178      1.0  0.61990  0.02190  0.45560  1.0000 0.128140061
H   H179      1.0  0.88010  0.52190  0.54440  1.0000 0.128140061
H   H180      1.0  0.38010  0.47810  0.95560  1.0000 0.128140061
H   H181      1.0  0.88010  0.02190  0.95560  1.0000 0.128140061
H   H182      1.0  0.38010  0.97810  0.54440  1.0000 0.128140061
H   H183      1.0  0.11990  0.47810  0.45560  1.0000 0.128140061
H   H184      1.0  0.61990  0.52190  0.04440  1.0000 0.128140061
H   H185      1.0  0.53150  0.53670  0.25920  1.0000 0.128140061
H   H186      1.0  0.03150  0.46330  0.24080  1.0000 0.128140061
H   H187      1.0  0.46850  0.96330  0.75920  1.0000 0.128140061
H   H188      1.0  0.96850  0.03670  0.74080  1.0000 0.128140061
H   H189      1.0  0.46850  0.46330  0.74080  1.0000 0.128140061
H   H190      1.0  0.96850  0.53670  0.75920  1.0000 0.128140061
H   H191      1.0  0.53150  0.03670  0.24080  1.0000 0.128140061
H   H192      1.0  0.03150  0.96330  0.25920  1.0000 0.128140061
C   C1        1.0  0.89540  0.79463  0.33917  1.0000 -0.1570698869
C   C2        1.0  0.39540  0.20537  0.16083  1.0000 -0.1570698869
C   C3        1.0  0.10460  0.70537  0.83917  1.0000 -0.1570698869
C   C4        1.0  0.60460  0.29463  0.66083  1.0000 -0.1570698869
C   C5        1.0  0.10460  0.20537  0.66083  1.0000 -0.1570698869
C   C6        1.0  0.60460  0.79463  0.83917  1.0000 -0.1570698869
C   C7        1.0  0.89540  0.29463  0.16083  1.0000 -0.1570698869
C   C8        1.0  0.39540  0.70537  0.33917  1.0000 -0.1570698869
C   C9        1.0  0.94920  0.80712  0.30660  1.0000 -0.0798992918
C   C10       1.0  0.44920  0.19288  0.19340  1.0000 -0.0798992918
C   C11       1.0  0.05080  0.69288  0.80660  1.0000 -0.0798992918
C   C12       1.0  0.55080  0.30712  0.69340  1.0000 -0.0798992918
C   C13       1.0  0.05080  0.19288  0.69340  1.0000 -0.0798992918
C   C14       1.0  0.55080  0.80712  0.80660  1.0000 -0.0798992918
C   C15       1.0  0.94920  0.30712  0.19340  1.0000 -0.0798992918
C   C16       1.0  0.44920  0.69288  0.30660  1.0000 -0.0798992918
C   C17       1.0  0.93920  0.83170  0.25720  1.0000 -0.0984485713
C   C18       1.0  0.43920  0.16830  0.24280  1.0000 -0.0984485713
C   C19       1.0  0.06080  0.66830  0.75720  1.0000 -0.0984485713
C   C20       1.0  0.56080  0.33170  0.74280  1.0000 -0.0984485713
C   C21       1.0  0.06080  0.16830  0.74280  1.0000 -0.0984485713
C   C22       1.0  0.56080  0.83170  0.75720  1.0000 -0.0984485713
C   C23       1.0  0.93920  0.33170  0.24280  1.0000 -0.0984485713
C   C24       1.0  0.43920  0.66830  0.25720  1.0000 -0.0984485713
C   C25       1.0  0.87590  0.84474  0.24025  1.0000 -0.019047024
C   C26       1.0  0.37590  0.15526  0.25975  1.0000 -0.019047024
C   C27       1.0  0.12410  0.65526  0.74025  1.0000 -0.019047024
C   C28       1.0  0.62410  0.34474  0.75975  1.0000 -0.019047024
C   C29       1.0  0.12410  0.15526  0.75975  1.0000 -0.019047024
C   C30       1.0  0.62410  0.84474  0.74025  1.0000 -0.019047024
C   C31       1.0  0.87590  0.34474  0.25975  1.0000 -0.019047024
C   C32       1.0  0.37590  0.65526  0.24025  1.0000 -0.019047024
C   C33       1.0  0.86390  0.87482  0.18824  1.0000 0.5907990802
C   C34       1.0  0.36390  0.12518  0.31176  1.0000 0.5907990802
C   C35       1.0  0.13610  0.62518  0.68824  1.0000 0.5907990802
C   C36       1.0  0.63610  0.37482  0.81176  1.0000 0.5907990802
C   C37       1.0  0.13610  0.12518  0.81176  1.0000 0.5907990802
C   C38       1.0  0.63610  0.87482  0.68824  1.0000 0.5907990802
C   C39       1.0  0.86390  0.37482  0.31176  1.0000 0.5907990802
C   C40       1.0  0.36390  0.62518  0.18824  1.0000 0.5907990802
C   C41       1.0  0.82240  0.83180  0.27220  1.0000 -0.0903969774
C   C42       1.0  0.32240  0.16820  0.22780  1.0000 -0.0903969774
C   C43       1.0  0.17760  0.66820  0.77220  1.0000 -0.0903969774
C   C44       1.0  0.67760  0.33180  0.72780  1.0000 -0.0903969774
C   C45       1.0  0.17760  0.16820  0.72780  1.0000 -0.0903969774
C   C46       1.0  0.67760  0.83180  0.77220  1.0000 -0.0903969774
C   C47       1.0  0.82240  0.33180  0.22780  1.0000 -0.0903969774
C   C48       1.0  0.32240  0.66820  0.27220  1.0000 -0.0903969774
C   C49       1.0  0.83140  0.80661  0.32140  1.0000 -0.0984485713
C   C50       1.0  0.33140  0.19339  0.17860  1.0000 -0.0984485713
C   C51       1.0  0.16860  0.69339  0.82140  1.0000 -0.0984485713
C   C52       1.0  0.66860  0.30661  0.67860  1.0000 -0.0984485713
C   C53       1.0  0.16860  0.19339  0.67860  1.0000 -0.0984485713
C   C54       1.0  0.66860  0.80661  0.82140  1.0000 -0.0984485713
C   C55       1.0  0.83140  0.30661  0.17860  1.0000 -0.0984485713
C   C56       1.0  0.33140  0.69339  0.32140  1.0000 -0.0984485713
C   C57       1.0  0.90060  0.69318  0.39679  1.0000 -0.1658185453
C   C58       1.0  0.40060  0.30682  0.10321  1.0000 -0.1658185453
C   C59       1.0  0.09940  0.80682  0.89679  1.0000 -0.1658185453
C   C60       1.0  0.59940  0.19318  0.60321  1.0000 -0.1658185453
C   C61       1.0  0.09940  0.30682  0.60321  1.0000 -0.1658185453
C   C62       1.0  0.59940  0.69318  0.89679  1.0000 -0.1658185453
C   C63       1.0  0.90060  0.19318  0.10321  1.0000 -0.1658185453
C   C64       1.0  0.40060  0.80682  0.39679  1.0000 -0.1658185453
C   C65       1.0  0.93510  0.65888  0.42984  1.0000 -0.0736053766
C   C66       1.0  0.43510  0.34112  0.07016  1.0000 -0.0736053766
C   C67       1.0  0.06490  0.84112  0.92984  1.0000 -0.0736053766
C   C68       1.0  0.56490  0.15888  0.57016  1.0000 -0.0736053766
C   C69       1.0  0.06490  0.34112  0.57016  1.0000 -0.0736053766
C   C70       1.0  0.56490  0.65888  0.92984  1.0000 -0.0736053766
C   C71       1.0  0.93510  0.15888  0.07016  1.0000 -0.0736053766
C   C72       1.0  0.43510  0.84112  0.42984  1.0000 -0.0736053766
C   C73       1.0  0.92870  0.60470  0.42855  1.0000 -0.0984485713
C   C74       1.0  0.42870  0.39530  0.07145  1.0000 -0.0984485713
C   C75       1.0  0.07130  0.89530  0.92855  1.0000 -0.0984485713
C   C76       1.0  0.57130  0.10470  0.57145  1.0000 -0.0984485713
C   C77       1.0  0.07130  0.39530  0.57145  1.0000 -0.0984485713
C   C78       1.0  0.57130  0.60470  0.92855  1.0000 -0.0984485713
C   C79       1.0  0.92870  0.10470  0.07145  1.0000 -0.0984485713
C   C80       1.0  0.42870  0.89530  0.42855  1.0000 -0.0984485713
C   C81       1.0  0.88510  0.58156  0.39342  1.0000 -0.0088323732
C   C82       1.0  0.38510  0.41844  0.10658  1.0000 -0.0088323732
C   C83       1.0  0.11490  0.91844  0.89342  1.0000 -0.0088323732
C   C84       1.0  0.61490  0.08156  0.60658  1.0000 -0.0088323732
C   C85       1.0  0.11490  0.41844  0.60658  1.0000 -0.0088323732
C   C86       1.0  0.61490  0.58156  0.89342  1.0000 -0.0088323732
C   C87       1.0  0.88510  0.08156  0.10658  1.0000 -0.0088323732
C   C88       1.0  0.38510  0.91844  0.39342  1.0000 -0.0088323732
C   C89       1.0  0.87490  0.52153  0.39268  1.0000 0.5907990802
C   C90       1.0  0.37490  0.47847  0.10732  1.0000 0.5907990802
C   C91       1.0  0.12510  0.97847  0.89268  1.0000 0.5907990802
C   C92       1.0  0.62510  0.02153  0.60732  1.0000 0.5907990802
C   C93       1.0  0.12510  0.47847  0.60732  1.0000 0.5907990802
C   C94       1.0  0.62510  0.52153  0.89268  1.0000 0.5907990802
C   C95       1.0  0.87490  0.02153  0.10732  1.0000 0.5907990802
C   C96       1.0  0.37490  0.97847  0.39268  1.0000 0.5907990802
C   C97       1.0  0.84670  0.61424  0.35980  1.0000 -0.0984485713
C   C98       1.0  0.34670  0.38576  0.14020  1.0000 -0.0984485713
C   C99       1.0  0.15330  0.88576  0.85980  1.0000 -0.0984485713
C   C100      1.0  0.65330  0.11424  0.64020  1.0000 -0.0984485713
C   C101      1.0  0.15330  0.38576  0.64020  1.0000 -0.0984485713
C   C102      1.0  0.65330  0.61424  0.85980  1.0000 -0.0984485713
C   C103      1.0  0.84670  0.11424  0.14020  1.0000 -0.0984485713
C   C104      1.0  0.34670  0.88576  0.35980  1.0000 -0.0984485713
C   C105      1.0  0.85540  0.66935  0.36150  1.0000 -0.0984485713
C   C106      1.0  0.35540  0.33065  0.13850  1.0000 -0.0984485713
C   C107      1.0  0.14460  0.83065  0.86150  1.0000 -0.0984485713
C   C108      1.0  0.64460  0.16935  0.63850  1.0000 -0.0984485713
C   C109      1.0  0.14460  0.33065  0.63850  1.0000 -0.0984485713
C   C110      1.0  0.64460  0.66935  0.86150  1.0000 -0.0984485713
C   C111      1.0  0.85540  0.16935  0.13850  1.0000 -0.0984485713
C   C112      1.0  0.35540  0.83065  0.36150  1.0000 -0.0984485713
C   C113      1.0  0.84470  0.78813  0.44649  1.0000 -0.1522377045
C   C114      1.0  0.34470  0.21187  0.05351  1.0000 -0.1570698869
C   C115      1.0  0.15530  0.71187  0.94649  1.0000 -0.1522377045
C   C116      1.0  0.65530  0.28813  0.55351  1.0000 -0.1522377045
C   C117      1.0  0.15530  0.21187  0.55351  1.0000 -0.1522377045
C   C118      1.0  0.65530  0.78813  0.94649  1.0000 -0.1522377045
C   C119      1.0  0.84470  0.28813  0.05351  1.0000 -0.1570698869
C   C120      1.0  0.34470  0.71187  0.44649  1.0000 -0.1570698869
C   C121      1.0  0.84740  0.84118  0.46318  1.0000 -0.0903969774
C   C122      1.0  0.34740  0.15882  0.03682  1.0000 -0.0903969774
C   C123      1.0  0.15260  0.65882  0.96318  1.0000 -0.0903969774
C   C124      1.0  0.65260  0.34118  0.53682  1.0000 -0.0903969774
C   C125      1.0  0.15260  0.15882  0.53682  1.0000 -0.0903969774
C   C126      1.0  0.65260  0.84118  0.96318  1.0000 -0.0903969774
C   C127      1.0  0.84740  0.34118  0.03682  1.0000 -0.0903969774
C   C128      1.0  0.34740  0.65882  0.46318  1.0000 -0.0903969774
C   C129      1.0  0.79660  0.86256  0.49475  1.0000 -0.0903969774
C   C130      1.0  0.29660  0.13744  0.00525  1.0000 -0.0903969774
C   C131      1.0  0.20340  0.63744  0.99475  1.0000 -0.0903969774
C   C132      1.0  0.70340  0.36256  0.50525  1.0000 -0.0903969774
C   C133      1.0  0.20340  0.13744  0.50525  1.0000 -0.0903969774
C   C134      1.0  0.70340  0.86256  0.99475  1.0000 -0.0903969774
C   C135      1.0  0.79660  0.36256  0.00525  1.0000 -0.0903969774
C   C136      1.0  0.29660  0.63744  0.49475  1.0000 -0.0903969774
C   C137      1.0  0.74330  0.83028  0.51060  1.0000 -0.0088323732
C   C138      1.0  0.24330  0.16972  0.98940  1.0000 -0.0088323732
C   C139      1.0  0.25670  0.66972  0.01060  1.0000 -0.0088323732
C   C140      1.0  0.75670  0.33028  0.48940  1.0000 -0.0088323732
C   C141      1.0  0.25670  0.16972  0.48940  1.0000 -0.0088323732
C   C142      1.0  0.75670  0.83028  0.01060  1.0000 -0.0088323732
C   C143      1.0  0.74330  0.33028  0.98940  1.0000 -0.0088323732
C   C144      1.0  0.24330  0.66972  0.51060  1.0000 -0.0088323732
C   C145      1.0  0.68660  0.85418  0.54117  1.0000 0.5714267089
C   C146      1.0  0.18660  0.14582  0.95883  1.0000 0.5714267089
C   C147      1.0  0.31340  0.64582  0.04117  1.0000 0.5714267089
C   C148      1.0  0.81340  0.35418  0.45883  1.0000 0.5714267089
C   C149      1.0  0.31340  0.14582  0.45883  1.0000 0.5714267089
C   C150      1.0  0.81340  0.85418  0.04117  1.0000 0.5714267089
C   C151      1.0  0.68660  0.35418  0.95883  1.0000 0.5714267089
C   C152      1.0  0.18660  0.64582  0.54117  1.0000 0.5714267089
C   C153      1.0  0.74150  0.77737  0.49430  1.0000 -0.0984485713
C   C154      1.0  0.24150  0.22263  0.00570  1.0000 -0.0984485713
C   C155      1.0  0.25850  0.72263  0.99430  1.0000 -0.0984485713
C   C156      1.0  0.75850  0.27737  0.50570  1.0000 -0.0984485713
C   C157      1.0  0.25850  0.22263  0.50570  1.0000 -0.0984485713
C   C158      1.0  0.75850  0.77737  0.99430  1.0000 -0.0984485713
C   C159      1.0  0.74150  0.27737  0.00570  1.0000 -0.0984485713
C   C160      1.0  0.24150  0.72263  0.49430  1.0000 -0.0984485713
C   C161      1.0  0.79230  0.75584  0.46340  1.0000 -0.0984485713
C   C162      1.0  0.29230  0.24416  0.03660  1.0000 -0.0984485713
C   C163      1.0  0.20770  0.74416  0.96340  1.0000 -0.0984485713
C   C164      1.0  0.70770  0.25584  0.53660  1.0000 -0.0984485713
C   C165      1.0  0.20770  0.24416  0.53660  1.0000 -0.0984485713
C   C166      1.0  0.70770  0.75584  0.96340  1.0000 -0.0984485713
C   C167      1.0  0.79230  0.25584  0.03660  1.0000 -0.0984485713
C   C168      1.0  0.29230  0.74416  0.46340  1.0000 -0.0984485713
C   C169      1.0  0.10120  0.80924  0.10218  1.0000 -0.1570698869
C   C170      1.0  0.60120  0.19076  0.39782  1.0000 -0.1570698869
C   C171      1.0  0.89880  0.69076  0.60218  1.0000 -0.1570698869
C   C172      1.0  0.39880  0.30924  0.89782  1.0000 -0.1570698869
C   C173      1.0  0.89880  0.19076  0.89782  1.0000 -0.1570698869
C   C174      1.0  0.39880  0.80924  0.60218  1.0000 -0.1570698869
C   C175      1.0  0.10120  0.30924  0.39782  1.0000 -0.1570698869
C   C176      1.0  0.60120  0.69076  0.10218  1.0000 -0.1570698869
C   C177      1.0  0.15270  0.78729  0.13130  1.0000 -0.106069492
C   C178      1.0  0.65270  0.21271  0.36870  1.0000 -0.106069492
C   C179      1.0  0.84730  0.71271  0.63130  1.0000 -0.106069492
C   C180      1.0  0.34730  0.28729  0.86870  1.0000 -0.106069492
C   C181      1.0  0.84730  0.21271  0.86870  1.0000 -0.106069492
C   C182      1.0  0.34730  0.78729  0.63130  1.0000 -0.106069492
C   C183      1.0  0.15270  0.28729  0.36870  1.0000 -0.106069492
C   C184      1.0  0.65270  0.71271  0.13130  1.0000 -0.106069492
C   C185      1.0  0.16110  0.73211  0.13390  1.0000 -0.0984485713
C   C186      1.0  0.66110  0.26789  0.36610  1.0000 -0.0984485713
C   C187      1.0  0.83890  0.76789  0.63390  1.0000 -0.0984485713
C   C188      1.0  0.33890  0.23211  0.86610  1.0000 -0.0984485713
C   C189      1.0  0.83890  0.26789  0.86610  1.0000 -0.0984485713
C   C190      1.0  0.33890  0.73211  0.63390  1.0000 -0.0984485713
C   C191      1.0  0.16110  0.23211  0.36610  1.0000 -0.0984485713
C   C192      1.0  0.66110  0.76789  0.13390  1.0000 -0.0984485713
C   C193      1.0  0.11630  0.69872  0.10762  1.0000 -0.0088323732
C   C194      1.0  0.61630  0.30128  0.39238  1.0000 -0.0088323732
C   C195      1.0  0.88370  0.80128  0.60762  1.0000 -0.0088323732
C   C196      1.0  0.38370  0.19872  0.89238  1.0000 -0.0088323732
C   C197      1.0  0.88370  0.30128  0.89238  1.0000 -0.0088323732
C   C198      1.0  0.38370  0.69872  0.60762  1.0000 -0.0088323732
C   C199      1.0  0.11630  0.19872  0.39238  1.0000 -0.0088323732
C   C200      1.0  0.61630  0.80128  0.10762  1.0000 -0.0088323732
C   C201      1.0  0.12570  0.63842  0.10979  1.0000 0.5842935561
C   C202      1.0  0.62570  0.36158  0.39021  1.0000 0.5842935561
C   C203      1.0  0.87430  0.86158  0.60979  1.0000 0.5842935561
C   C204      1.0  0.37430  0.13842  0.89021  1.0000 0.5842935561
C   C205      1.0  0.87430  0.36158  0.89021  1.0000 0.5842935561
C   C206      1.0  0.37430  0.63842  0.60979  1.0000 0.5842935561
C   C207      1.0  0.12570  0.13842  0.39021  1.0000 0.5842935561
C   C208      1.0  0.62570  0.86158  0.10979  1.0000 0.5842935561
C   C209      1.0  0.06470  0.72055  0.07800  1.0000 -0.0903969774
C   C210      1.0  0.56470  0.27945  0.42200  1.0000 -0.0903969774
C   C211      1.0  0.93530  0.77945  0.57800  1.0000 -0.0903969774
C   C212      1.0  0.43530  0.22055  0.92200  1.0000 -0.0903969774
C   C213      1.0  0.93530  0.27945  0.92200  1.0000 -0.0903969774
C   C214      1.0  0.43530  0.72055  0.57800  1.0000 -0.0903969774
C   C215      1.0  0.06470  0.22055  0.42200  1.0000 -0.0903969774
C   C216      1.0  0.56470  0.77945  0.07800  1.0000 -0.0903969774
C   C217      1.0  0.05720  0.77551  0.07583  1.0000 -0.0736053766
C   C218      1.0  0.55720  0.22449  0.42417  1.0000 -0.0736053766
C   C219      1.0  0.94280  0.72449  0.57583  1.0000 -0.0736053766
C   C220      1.0  0.44280  0.27551  0.92417  1.0000 -0.0736053766
C   C221      1.0  0.94280  0.22449  0.92417  1.0000 -0.0736053766
C   C222      1.0  0.44280  0.77551  0.57583  1.0000 -0.0736053766
C   C223      1.0  0.05720  0.27551  0.42417  1.0000 -0.0736053766
C   C224      1.0  0.55720  0.72449  0.07583  1.0000 -0.0736053766
C   C225      1.0  0.10870  0.91299  0.15727  1.0000 -0.1442547521
C   C226      1.0  0.60870  0.08701  0.34273  1.0000 -0.1522377045
C   C227      1.0  0.89130  0.58701  0.65727  1.0000 -0.1442547521
C   C228      1.0  0.39130  0.41299  0.84273  1.0000 -0.1442547521
C   C229      1.0  0.89130  0.08701  0.84273  1.0000 -0.1442547521
C   C230      1.0  0.39130  0.91299  0.65727  1.0000 -0.1442547521
C   C231      1.0  0.10870  0.41299  0.34273  1.0000 -0.1522377045
C   C232      1.0  0.60870  0.58701  0.15727  1.0000 -0.1442547521
C   C233      1.0  0.17340  0.92399  0.17423  1.0000 -0.106069492
C   C234      1.0  0.67340  0.07601  0.32577  1.0000 -0.106069492
C   C235      1.0  0.82660  0.57601  0.67423  1.0000 -0.106069492
C   C236      1.0  0.32660  0.42399  0.82577  1.0000 -0.106069492
C   C237      1.0  0.82660  0.07601  0.82577  1.0000 -0.106069492
C   C238      1.0  0.32660  0.92399  0.67423  1.0000 -0.106069492
C   C239      1.0  0.17340  0.42399  0.32577  1.0000 -0.106069492
C   C240      1.0  0.67340  0.57601  0.17423  1.0000 -0.106069492
C   C241      1.0  0.18440  0.95051  0.22236  1.0000 -0.0984485713
C   C242      1.0  0.68440  0.04949  0.27764  1.0000 -0.0984485713
C   C243      1.0  0.81560  0.54949  0.72236  1.0000 -0.0984485713
C   C244      1.0  0.31560  0.45051  0.77764  1.0000 -0.0984485713
C   C245      1.0  0.81560  0.04949  0.77764  1.0000 -0.0984485713
C   C246      1.0  0.31560  0.95051  0.72236  1.0000 -0.0984485713
C   C247      1.0  0.18440  0.45051  0.27764  1.0000 -0.0984485713
C   C248      1.0  0.68440  0.54949  0.22236  1.0000 -0.0984485713
C   C249      1.0  0.13140  0.96579  0.25387  1.0000 -0.019047024
C   C250      1.0  0.63140  0.03421  0.24613  1.0000 -0.019047024
C   C251      1.0  0.86860  0.53421  0.75387  1.0000 -0.019047024
C   C252      1.0  0.36860  0.46579  0.74613  1.0000 -0.019047024
C   C253      1.0  0.86860  0.03421  0.74613  1.0000 -0.019047024
C   C254      1.0  0.36860  0.96579  0.75387  1.0000 -0.019047024
C   C255      1.0  0.13140  0.46579  0.24613  1.0000 -0.019047024
C   C256      1.0  0.63140  0.53421  0.25387  1.0000 -0.019047024
C   C257      1.0  0.14320  0.99508  0.30589  1.0000 0.5907990802
C   C258      1.0  0.64320  0.00492  0.19411  1.0000 0.5907990802
C   C259      1.0  0.85680  0.50492  0.80589  1.0000 0.5907990802
C   C260      1.0  0.35680  0.49508  0.69411  1.0000 0.5907990802
C   C261      1.0  0.85680  0.00492  0.69411  1.0000 0.5907990802
C   C262      1.0  0.35680  0.99508  0.80589  1.0000 0.5907990802
C   C263      1.0  0.14320  0.49508  0.19411  1.0000 0.5907990802
C   C264      1.0  0.64320  0.50492  0.30589  1.0000 0.5907990802
C   C265      1.0  0.06780  0.95380  0.23740  1.0000 -0.0903969774
C   C266      1.0  0.56780  0.04620  0.26260  1.0000 -0.0903969774
C   C267      1.0  0.93220  0.54620  0.73740  1.0000 -0.0903969774
C   C268      1.0  0.43220  0.45380  0.76260  1.0000 -0.0903969774
C   C269      1.0  0.93220  0.04620  0.76260  1.0000 -0.0903969774
C   C270      1.0  0.43220  0.95380  0.73740  1.0000 -0.0903969774
C   C271      1.0  0.06780  0.45380  0.26260  1.0000 -0.0903969774
C   C272      1.0  0.56780  0.54620  0.23740  1.0000 -0.0903969774
C   C273      1.0  0.05600  0.92780  0.18930  1.0000 -0.0798992918
C   C274      1.0  0.55600  0.07220  0.31070  1.0000 -0.0798992918
C   C275      1.0  0.94400  0.57220  0.68930  1.0000 -0.0798992918
C   C276      1.0  0.44400  0.42780  0.81070  1.0000 -0.0798992918
C   C277      1.0  0.94400  0.07220  0.81070  1.0000 -0.0798992918
C   C278      1.0  0.44400  0.92780  0.68930  1.0000 -0.0798992918
C   C279      1.0  0.05600  0.42780  0.31070  1.0000 -0.0798992918
C   C280      1.0  0.55600  0.57220  0.18930  1.0000 -0.0798992918
C   C281      1.0  0.15840  0.90351  0.05065  1.0000 -0.1522377045
C   C282      1.0  0.65840  0.09649  0.44935  1.0000 -0.1522377045
C   C283      1.0  0.84160  0.59649  0.55065  1.0000 -0.1522377045
C   C284      1.0  0.34160  0.40351  0.94935  1.0000 -0.1522377045
C   C285      1.0  0.84160  0.09649  0.94935  1.0000 -0.1522377045
C   C286      1.0  0.34160  0.90351  0.55065  1.0000 -0.1522377045
C   C287      1.0  0.15840  0.40351  0.44935  1.0000 -0.1522377045
C   C288      1.0  0.65840  0.59649  0.05065  1.0000 -0.1522377045
C   C289      1.0  0.21170  0.87229  0.03460  1.0000 -0.0984485713
C   C290      1.0  0.71170  0.12771  0.46540  1.0000 -0.0984485713
C   C291      1.0  0.78830  0.62771  0.53460  1.0000 -0.0984485713
C   C292      1.0  0.28830  0.37229  0.96540  1.0000 -0.0984485713
C   C293      1.0  0.78830  0.12771  0.96540  1.0000 -0.0984485713
C   C294      1.0  0.28830  0.87229  0.53460  1.0000 -0.0984485713
C   C295      1.0  0.21170  0.37229  0.46540  1.0000 -0.0984485713
C   C296      1.0  0.71170  0.62771  0.03460  1.0000 -0.0984485713
C   C297      1.0  0.26290  0.89399  0.00420  1.0000 -0.0903969774
C   C298      1.0  0.76290  0.10601  0.49580  1.0000 -0.0903969774
C   C299      1.0  0.73710  0.60601  0.50420  1.0000 -0.0903969774
C   C300      1.0  0.23710  0.39399  0.99580  1.0000 -0.0903969774
C   C301      1.0  0.73710  0.10601  0.99580  1.0000 -0.0984485713
C   C302      1.0  0.23710  0.89399  0.50420  1.0000 -0.0903969774
C   C303      1.0  0.26290  0.39399  0.49580  1.0000 -0.0903969774
C   C304      1.0  0.76290  0.60601  0.00420  1.0000 -0.0903969774
C   C305      1.0  0.26089  0.94719  0.98874  1.0000 -0.0015091322
C   C306      1.0  0.76089  0.05281  0.51126  1.0000 -0.0015091322
C   C307      1.0  0.73911  0.55281  0.48874  1.0000 -0.0015091322
C   C308      1.0  0.23911  0.44719  0.01126  1.0000 -0.0015091322
C   C309      1.0  0.73911  0.05281  0.01126  1.0000 -0.0015091322
C   C310      1.0  0.23911  0.94719  0.48874  1.0000 -0.0015091322
C   C311      1.0  0.26089  0.44719  0.51126  1.0000 -0.0015091322
C   C312      1.0  0.76089  0.55281  0.98874  1.0000 -0.0015091322
C   C313      1.0  0.31760  0.97210  0.95789  1.0000 0.5714267089
C   C314      1.0  0.81760  0.02790  0.54211  1.0000 0.5714267089
C   C315      1.0  0.68240  0.52790  0.45789  1.0000 0.5714267089
C   C316      1.0  0.18240  0.47210  0.04211  1.0000 0.5714267089
C   C317      1.0  0.68240  0.02790  0.04211  1.0000 0.5714267089
C   C318      1.0  0.18240  0.97210  0.45789  1.0000 0.5714267089
C   C319      1.0  0.31760  0.47210  0.54211  1.0000 0.5714267089
C   C320      1.0  0.81760  0.52790  0.95789  1.0000 0.5714267089
C   C321      1.0  0.20760  0.97813  0.00398  1.0000 -0.0984485713
C   C322      1.0  0.70760  0.02187  0.49602  1.0000 -0.0984485713
C   C323      1.0  0.79240  0.52187  0.50398  1.0000 -0.0984485713
C   C324      1.0  0.29240  0.47813  0.99602  1.0000 -0.0984485713
C   C325      1.0  0.79240  0.02187  0.99602  1.0000 -0.0984485713
C   C326      1.0  0.29240  0.97813  0.50398  1.0000 -0.0984485713
C   C327      1.0  0.20760  0.47813  0.49602  1.0000 -0.0984485713
C   C328      1.0  0.70760  0.52187  0.00398  1.0000 -0.0984485713
C   C329      1.0  0.15620  0.95658  0.03457  1.0000 -0.0798992918
C   C330      1.0  0.65620  0.04342  0.46543  1.0000 -0.0798992918
C   C331      1.0  0.84380  0.54342  0.53457  1.0000 -0.0798992918
C   C332      1.0  0.34380  0.45658  0.96543  1.0000 -0.0798992918
C   C333      1.0  0.84380  0.04342  0.96543  1.0000 -0.0798992918
C   C334      1.0  0.34380  0.95658  0.53457  1.0000 -0.0798992918
C   C335      1.0  0.15620  0.45658  0.46543  1.0000 -0.0798992918
C   C336      1.0  0.65620  0.54342  0.03457  1.0000 -0.0798992918
O   O1        1.0  0.91230  0.87796  0.15565  1.0000 -0.5688134701
O   O2        1.0  0.41230  0.12204  0.34435  1.0000 -0.5688134701
O   O3        1.0  0.08770  0.62204  0.65565  1.0000 -0.5688134701
O   O4        1.0  0.58770  0.37796  0.84435  1.0000 -0.5688134701
O   O5        1.0  0.08770  0.12204  0.84435  1.0000 -0.5688134701
O   O6        1.0  0.58770  0.87796  0.65565  1.0000 -0.5688134701
O   O7        1.0  0.91230  0.37796  0.34435  1.0000 -0.5688134701
O   O8        1.0  0.41230  0.62204  0.15565  1.0000 -0.5688134701
O   O9        1.0  0.80666  0.89356  0.18190  1.0000 -0.5418367715
O   O10       1.0  0.30666  0.10644  0.31810  1.0000 -0.5418367715
O   O11       1.0  0.19334  0.60644  0.68190  1.0000 -0.5418367715
O   O12       1.0  0.69334  0.39356  0.81810  1.0000 -0.5418367715
O   O13       1.0  0.19334  0.10644  0.81810  1.0000 -0.5418367715
O   O14       1.0  0.69334  0.89356  0.68190  1.0000 -0.5418367715
O   O15       1.0  0.80666  0.39356  0.31810  1.0000 -0.5418367715
O   O16       1.0  0.30666  0.60644  0.18190  1.0000 -0.5418367715
O   O17       1.0  0.92030  0.49259  0.41179  1.0000 -0.5688134701
O   O18       1.0  0.42030  0.50741  0.08821  1.0000 -0.5688134701
O   O19       1.0  0.07970  0.00741  0.91179  1.0000 -0.5688134701
O   O20       1.0  0.57970  0.99259  0.58821  1.0000 -0.5688134701
O   O21       1.0  0.07970  0.50741  0.58821  1.0000 -0.5688134701
O   O22       1.0  0.57970  0.49259  0.91179  1.0000 -0.5688134701
O   O23       1.0  0.92030  0.99259  0.08821  1.0000 -0.5688134701
O   O24       1.0  0.42030  0.00741  0.41179  1.0000 -0.5688134701
O   O25       1.0  0.82095  0.50520  0.37248  1.0000 -0.5688134701
O   O26       1.0  0.32095  0.49480  0.12752  1.0000 -0.5688134701
O   O27       1.0  0.17905  0.99480  0.87248  1.0000 -0.5688134701
O   O28       1.0  0.67905  0.00520  0.62752  1.0000 -0.5688134701
O   O29       1.0  0.17905  0.49480  0.62752  1.0000 -0.5688134701
O   O30       1.0  0.67905  0.50520  0.87248  1.0000 -0.5688134701
O   O31       1.0  0.82095  0.00520  0.12752  1.0000 -0.5688134701
O   O32       1.0  0.32095  0.99480  0.37248  1.0000 -0.5688134701
O   O33       1.0  0.69196  0.90184  0.55966  1.0000 -0.6091084618
O   O34       1.0  0.19196  0.09816  0.94034  1.0000 -0.6091084618
O   O35       1.0  0.30804  0.59816  0.05966  1.0000 -0.6091084618
O   O36       1.0  0.80804  0.40184  0.44034  1.0000 -0.6091084618
O   O37       1.0  0.30804  0.09816  0.44034  1.0000 -0.6091084618
O   O38       1.0  0.80804  0.90184  0.05966  1.0000 -0.6091084618
O   O39       1.0  0.69196  0.40184  0.94034  1.0000 -0.6091084618
O   O40       1.0  0.19196  0.59816  0.55966  1.0000 -0.6091084618
O   O41       1.0  0.63203  0.82929  0.54521  1.0000 -0.5418367715
O   O42       1.0  0.13203  0.17071  0.95479  1.0000 -0.5418367715
O   O43       1.0  0.36797  0.67071  0.04521  1.0000 -0.5418367715
O   O44       1.0  0.86797  0.32929  0.45479  1.0000 -0.5418367715
O   O45       1.0  0.36797  0.17071  0.45479  1.0000 -0.5418367715
O   O46       1.0  0.86797  0.82929  0.04521  1.0000 -0.5418367715
O   O47       1.0  0.63203  0.32929  0.95479  1.0000 -0.5418367715
O   O48       1.0  0.13203  0.67071  0.54521  1.0000 -0.5418367715
O   O49       1.0  0.97915  0.77847  0.42398  1.0000 -0.6091084618
O   O50       1.0  0.47915  0.22153  0.07602  1.0000 -0.6091084618
O   O51       1.0  0.02085  0.72153  0.92398  1.0000 -0.6091084618
O   O52       1.0  0.52085  0.27847  0.57602  1.0000 -0.598464805
O   O53       1.0  0.02085  0.22153  0.57602  1.0000 -0.598464805
O   O54       1.0  0.52085  0.77847  0.92398  1.0000 -0.6091084618
O   O55       1.0  0.97915  0.27847  0.07602  1.0000 -0.6091084618
O   O56       1.0  0.47915  0.72153  0.42398  1.0000 -0.6091084618
O   O57       1.0  0.18173  0.62251  0.12542  1.0000 -0.5688134701
O   O58       1.0  0.68173  0.37749  0.37458  1.0000 -0.5688134701
O   O59       1.0  0.81827  0.87749  0.62542  1.0000 -0.5688134701
O   O60       1.0  0.31827  0.12251  0.87458  1.0000 -0.5688134701
O   O61       1.0  0.81827  0.37749  0.87458  1.0000 -0.5688134701
O   O62       1.0  0.31827  0.62251  0.62542  1.0000 -0.5688134701
O   O63       1.0  0.18173  0.12251  0.37458  1.0000 -0.5688134701
O   O64       1.0  0.68173  0.87749  0.12542  1.0000 -0.5688134701
O   O65       1.0  0.07803  0.61014  0.09608  1.0000 -0.56050362
O   O66       1.0  0.57803  0.38986  0.40392  1.0000 -0.56050362
O   O67       1.0  0.92197  0.88986  0.59608  1.0000 -0.56050362
O   O68       1.0  0.42197  0.11014  0.90392  1.0000 -0.56050362
O   O69       1.0  0.92197  0.38986  0.90392  1.0000 -0.56050362
O   O70       1.0  0.42197  0.61014  0.59608  1.0000 -0.56050362
O   O71       1.0  0.07803  0.11014  0.40392  1.0000 -0.56050362
O   O72       1.0  0.57803  0.88986  0.09608  1.0000 -0.56050362
O   O73       1.0  0.20002  0.01460  0.31285  1.0000 -0.5470798196
O   O74       1.0  0.70002  0.98540  0.18715  1.0000 -0.5470798196
O   O75       1.0  0.79998  0.48540  0.81285  1.0000 -0.5470798196
O   O76       1.0  0.29998  0.51460  0.68715  1.0000 -0.5470798196
O   O77       1.0  0.79998  0.98540  0.68715  1.0000 -0.5470798196
O   O78       1.0  0.29998  0.01460  0.81285  1.0000 -0.5470798196
O   O79       1.0  0.20002  0.51460  0.18715  1.0000 -0.5470798196
O   O80       1.0  0.70002  0.48540  0.31285  1.0000 -0.5470798196
O   O81       1.0  0.09495  0.99783  0.33788  1.0000 -0.5688134701
O   O82       1.0  0.59495  0.00217  0.16212  1.0000 -0.5688134701
O   O83       1.0  0.90505  0.50217  0.83788  1.0000 -0.5688134701
O   O84       1.0  0.40505  0.49783  0.66212  1.0000 -0.5688134701
O   O85       1.0  0.90505  0.00217  0.66212  1.0000 -0.5688134701
O   O86       1.0  0.40505  0.99783  0.83788  1.0000 -0.5688134701
O   O87       1.0  0.09495  0.49783  0.16212  1.0000 -0.5688134701
O   O88       1.0  0.59495  0.50217  0.33788  1.0000 -0.5688134701
O   O89       1.0  0.37244  0.94840  0.95496  1.0000 -0.5418367715
O   O90       1.0  0.87244  0.05160  0.54504  1.0000 -0.5418367715
O   O91       1.0  0.62756  0.55160  0.45496  1.0000 -0.5418367715
O   O92       1.0  0.12756  0.44840  0.04504  1.0000 -0.5418367715
O   O93       1.0  0.62756  0.05160  0.04504  1.0000 -0.5418367715
O   O94       1.0  0.12756  0.94840  0.45496  1.0000 -0.5418367715
O   O95       1.0  0.37244  0.44840  0.54504  1.0000 -0.5418367715
O   O96       1.0  0.87244  0.55160  0.95496  1.0000 -0.5418367715
O   O97       1.0  0.30949  0.01832  0.93756  1.0000 -0.598464805
O   O98       1.0  0.80949  0.98168  0.56244  1.0000 -0.598464805
O   O99       1.0  0.69051  0.48168  0.43756  1.0000 -0.598464805
O   O100      1.0  0.19051  0.51832  0.06244  1.0000 -0.598464805
O   O101      1.0  0.69051  0.98168  0.06244  1.0000 -0.598464805
O   O102      1.0  0.19051  0.01832  0.43756  1.0000 -0.598464805
O   O103      1.0  0.30949  0.51832  0.56244  1.0000 -0.598464805
O   O104      1.0  0.80949  0.48168  0.93756  1.0000 -0.598464805
O   O105      1.0  0.02426  0.89503  0.07312  1.0000 -0.6578471691
O   O106      1.0  0.52426  0.10497  0.42688  1.0000 -0.6578471691
O   O107      1.0  0.97574  0.60497  0.57312  1.0000 -0.6578471691
O   O108      1.0  0.47574  0.39503  0.92688  1.0000 -0.6578471691
O   O109      1.0  0.97574  0.10497  0.92688  1.0000 -0.6578471691
O   O110      1.0  0.47574  0.89503  0.57312  1.0000 -0.6578471691
O   O111      1.0  0.02426  0.39503  0.42688  1.0000 -0.6578471691
O   O112      1.0  0.52426  0.60497  0.07312  1.0000 -0.6578471691
