# DDEC6 charges by PACMAN v1.1 (https://github.com/mtap-research/PACMAN-charge/)
data_2012[ZnEu][nan]3[ASR]1
_chemical_formula_sum              "Eu2 Zn3 H84 C54 N12 O24"
_cell_length_a       8.619
_cell_length_b       17.818
_cell_length_c       18.385
_cell_angle_alpha    95.672
_cell_angle_beta     102.223
_cell_angle_gamma    101.053

_symmetry_space_group_name_H-M    "P 1"
_symmetry_Int_Tables_number       1

loop_
  _symmetry_equiv_pos_as_xyz
  'x, y, z'

loop_
  _atom_site_type_symbol
  _atom_site_label
  _atom_site_symmetry_multiplicity
  _atom_site_fract_x
  _atom_site_fract_y
  _atom_site_fract_z
  _atom_site_occupancy
  _atom_site_charge
Eu  Eu1       1.0  0.94289  0.22642  0.85682  1.0000 2.0737644209
Eu  Eu2       1.0  0.05711  0.77358  0.14318  1.0000 2.0737644209
Zn  Zn1       1.0  0.50000  0.50000  0.00000  1.0000 0.6450784578
Zn  Zn2       1.0  0.00000  0.00000  0.50000  1.0000 0.6566086783
Zn  Zn3       1.0  0.50000  0.00000  0.00000  1.0000 0.6385710015
H   H1        1.0  0.33900  0.45020  0.80760  1.0000 0.1383438233
H   H2        1.0  0.66100  0.54980  0.19240  1.0000 0.1383438233
H   H3        1.0  0.19270  0.48480  0.82200  1.0000 0.1383438233
H   H4        1.0  0.80730  0.51520  0.17800  1.0000 0.1383438233
H   H5        1.0  0.59830  0.61670  0.89320  1.0000 0.1114390586
H   H6        1.0  0.40170  0.38330  0.10680  1.0000 0.1114390586
H   H7        1.0  0.48390  0.58490  0.81360  1.0000 0.1014976356
H   H8        1.0  0.51610  0.41510  0.18640  1.0000 0.1014976356
H   H9        1.0  0.58250  0.47080  0.81460  1.0000 0.1014976356
H   H10       1.0  0.41750  0.52920  0.18540  1.0000 0.1014976356
H   H11       1.0  0.71630  0.54370  0.81510  1.0000 0.1114390586
H   H12       1.0  0.28370  0.45630  0.18490  1.0000 0.1114390586
H   H13       1.0  0.83810  0.47360  0.89290  1.0000 0.1114390586
H   H14       1.0  0.16190  0.52640  0.10710  1.0000 0.1172979085
H   H15       1.0  0.81530  0.54350  0.94500  1.0000 0.1114390586
H   H16       1.0  0.18470  0.45650  0.05500  1.0000 0.1114390586
H   H17       1.0  0.85760  0.48220  0.04730  1.0000 0.1014976356
H   H18       1.0  0.14240  0.51780  0.95270  1.0000 0.1014976356
H   H19       1.0  0.84760  0.39590  0.01540  1.0000 0.1114390586
H   H20       1.0  0.15240  0.60410  0.98460  1.0000 0.1114390586
H   H21       1.0  0.24150  0.60350  0.87360  1.0000 0.1114390586
H   H22       1.0  0.75850  0.39650  0.12640  1.0000 0.1114390586
H   H23       1.0  0.39120  0.64230  0.94030  1.0000 0.1114390586
H   H24       1.0  0.60880  0.35770  0.05970  1.0000 0.1114390586
H   H25       1.0  0.52950  0.37150  0.86140  1.0000 0.1297138522
H   H26       1.0  0.47050  0.62850  0.13860  1.0000 0.1297138522
H   H27       1.0  0.52690  0.33530  0.93550  1.0000 0.1297138522
H   H28       1.0  0.47310  0.66470  0.06450  1.0000 0.1297138522
H   H29       1.0  0.87250  0.12640  0.59690  1.0000 0.1297138522
H   H30       1.0  0.12750  0.87360  0.40310  1.0000 0.1297138522
H   H31       1.0  0.06150  0.15190  0.62330  1.0000 0.1297138522
H   H32       1.0  0.93850  0.84810  0.37670  1.0000 0.1297138522
H   H33       1.0  0.12150  0.96860  0.66170  1.0000 0.1014976356
H   H34       1.0  0.87850  0.03140  0.33830  1.0000 0.1014976356
H   H35       1.0  0.11290  0.03560  0.72170  1.0000 0.1114390586
H   H36       1.0  0.88710  0.96440  0.27830  1.0000 0.1114390586
H   H37       1.0  0.28140  0.12400  0.66380  1.0000 0.1114390586
H   H38       1.0  0.71860  0.87600  0.33620  1.0000 0.1172979085
H   H39       1.0  0.37100  0.06650  0.70560  1.0000 0.1297138522
H   H40       1.0  0.62900  0.93350  0.29440  1.0000 0.1297138522
H   H41       1.0  0.45370  0.07400  0.59700  1.0000 0.1014976356
H   H42       1.0  0.54630  0.92600  0.40300  1.0000 0.1014976356
H   H43       1.0  0.34400  0.99140  0.58860  1.0000 0.1114390586
H   H44       1.0  0.65600  0.00860  0.41140  1.0000 0.1114390586
H   H45       1.0  0.31710  0.97260  0.46460  1.0000 0.1114390586
H   H46       1.0  0.68290  0.02740  0.53540  1.0000 0.1114390586
H   H47       1.0  0.40130  0.05500  0.45230  1.0000 0.1114390586
H   H48       1.0  0.59870  0.94500  0.54770  1.0000 0.1114390586
H   H49       1.0  0.33250  0.16030  0.48860  1.0000 0.1297138522
H   H50       1.0  0.66750  0.83970  0.51140  1.0000 0.1297138522
H   H51       1.0  0.28530  0.16960  0.56630  1.0000 0.1297138522
H   H52       1.0  0.71470  0.83040  0.43370  1.0000 0.1297138522
H   H53       1.0  0.78220  0.00440  0.66040  1.0000 0.1172979085
H   H54       1.0  0.21780  0.99560  0.33960  1.0000 0.1172979085
H   H55       1.0  0.84750  0.93470  0.62840  1.0000 0.1014976356
H   H56       1.0  0.15250  0.06530  0.37160  1.0000 0.1014976356
H   H57       1.0  0.43460  0.08870  0.86130  1.0000 0.1172979085
H   H58       1.0  0.56540  0.91130  0.13870  1.0000 0.1172979085
H   H59       1.0  0.52030  0.15640  0.92630  1.0000 0.1172979085
H   H60       1.0  0.47970  0.84360  0.07370  1.0000 0.1172979085
H   H61       1.0  0.27300  0.09890  0.04920  1.0000 0.1114390586
H   H62       1.0  0.72700  0.90110  0.95080  1.0000 0.1114390586
H   H63       1.0  0.25520  0.16410  0.99880  1.0000 0.1114390586
H   H64       1.0  0.74480  0.83590  0.00120  1.0000 0.1114390586
H   H65       1.0  0.54420  0.20870  0.03460  1.0000 0.1114390586
H   H66       1.0  0.45580  0.79130  0.96540  1.0000 0.1114390586
H   H67       1.0  0.45760  0.22060  0.10000  1.0000 0.1114390586
H   H68       1.0  0.54240  0.77940  0.90000  1.0000 0.1114390586
H   H69       1.0  0.68820  0.18260  0.14920  1.0000 0.1014976356
H   H70       1.0  0.31180  0.81740  0.85080  1.0000 0.1014976356
H   H71       1.0  0.54360  0.11410  0.14820  1.0000 0.1114390586
H   H72       1.0  0.45640  0.88590  0.85180  1.0000 0.1114390586
H   H73       1.0  0.70400  0.02930  0.16380  1.0000 0.1114390586
H   H74       1.0  0.29600  0.97070  0.83620  1.0000 0.1114390586
H   H75       1.0  0.86940  0.08010  0.15730  1.0000 0.1172979085
H   H76       1.0  0.13060  0.91990  0.84270  1.0000 0.1172979085
H   H77       1.0  0.89830  0.13700  0.06180  1.0000 0.1297138522
H   H78       1.0  0.10170  0.86300  0.93820  1.0000 0.1297138522
H   H79       1.0  0.76440  0.18080  0.02880  1.0000 0.1383438233
H   H80       1.0  0.23560  0.81920  0.97120  1.0000 0.1383438233
H   H81       1.0  0.12860  0.05040  0.87850  1.0000 0.1297138522
H   H82       1.0  0.87140  0.94960  0.12150  1.0000 0.1297138522
H   H83       1.0  0.13180  0.00860  0.95000  1.0000 0.1114390586
H   H84       1.0  0.86820  0.99140  0.05000  1.0000 0.1114390586
C   C1        1.0  0.23510  0.40030  0.88630  1.0000 0.6244519725
C   C2        1.0  0.76490  0.59970  0.11370  1.0000 0.6244519725
C   C3        1.0  0.28840  0.46790  0.84650  1.0000 -0.2876455487
C   C4        1.0  0.71160  0.53210  0.15350  1.0000 -0.2876455487
C   C5        1.0  0.53420  0.56990  0.86080  1.0000 -0.1084240918
C   C6        1.0  0.46580  0.43010  0.13920  1.0000 -0.1084240918
C   C7        1.0  0.64830  0.51830  0.84520  1.0000 -0.2077158765
C   C8        1.0  0.35170  0.48170  0.15480  1.0000 -0.2077158765
C   C9        1.0  0.75770  0.49670  0.91090  1.0000 -0.1186932475
C   C10       1.0  0.24230  0.50330  0.08910  1.0000 -0.1186932475
C   C11       1.0  0.78350  0.43310  0.02580  1.0000 -0.1591608078
C   C12       1.0  0.21650  0.56690  0.97420  1.0000 -0.1591608078
C   C13       1.0  0.31430  0.59410  0.91810  1.0000 -0.1439651401
C   C14       1.0  0.68570  0.40590  0.08190  1.0000 -0.1439651401
C   C15       1.0  0.59720  0.36460  0.90860  1.0000 -0.2698095069
C   C16       1.0  0.40280  0.63540  0.09140  1.0000 -0.2698095069
C   C17       1.0  0.71900  0.31790  0.89140  1.0000 0.6005092635
C   C18       1.0  0.28100  0.68210  0.10860  1.0000 0.6005092635
C   C19       1.0  0.95100  0.15060  0.71240  1.0000 0.6005092635
C   C20       1.0  0.04900  0.84940  0.28760  1.0000 0.6005092635
C   C21       1.0  0.96650  0.11940  0.63310  1.0000 -0.2605251
C   C22       1.0  0.03350  0.88060  0.36690  1.0000 -0.2605251
C   C23       1.0  0.12270  0.02340  0.67050  1.0000 -0.103439063
C   C24       1.0  0.87730  0.97660  0.32950  1.0000 -0.103439063
C   C25       1.0  0.28760  0.07010  0.66220  1.0000 -0.2077158765
C   C26       1.0  0.71240  0.92990  0.33780  1.0000 -0.2077158765
C   C27       1.0  0.34270  0.04590  0.59150  1.0000 -0.1186932475
C   C28       1.0  0.65730  0.95410  0.40850  1.0000 -0.1186932475
C   C29       1.0  0.29870  0.02320  0.45540  1.0000 -0.1591608078
C   C30       1.0  0.70130  0.97680  0.54460  1.0000 -0.1591608078
C   C31       1.0  0.25130  0.14140  0.51560  1.0000 -0.2876455487
C   C32       1.0  0.74870  0.85860  0.48440  1.0000 -0.2876455487
C   C33       1.0  0.08800  0.15720  0.47670  1.0000 0.5858859791
C   C34       1.0  0.91200  0.84280  0.52330  1.0000 0.5858859791
C   C35       1.0  0.82560  0.98490  0.61960  1.0000 -0.129969823
C   C36       1.0  0.17440  0.01510  0.38040  1.0000 -0.129969823
C   C37       1.0  0.31870  0.17920  0.85790  1.0000 0.6385710015
C   C38       1.0  0.68130  0.82080  0.14210  1.0000 0.6385710015
C   C39       1.0  0.41500  0.12510  0.89940  1.0000 -0.2698095069
C   C40       1.0  0.58500  0.87490  0.10060  1.0000 -0.2698095069
C   C41       1.0  0.32640  0.13090  0.01800  1.0000 -0.103439063
C   C42       1.0  0.67360  0.86910  0.98200  1.0000 -0.103439063
C   C43       1.0  0.48570  0.18170  0.06740  1.0000 -0.2162130402
C   C44       1.0  0.51430  0.81830  0.93260  1.0000 -0.2162130402
C   C45       1.0  0.60190  0.14280  0.11650  1.0000 -0.1084240918
C   C46       1.0  0.39810  0.85720  0.88350  1.0000 -0.1084240918
C   C47       1.0  0.76860  0.04610  0.12870  1.0000 -0.129969823
C   C48       1.0  0.23140  0.95390  0.87130  1.0000 -0.129969823
C   C49       1.0  0.78710  0.12990  0.03300  1.0000 -0.3006110565
C   C50       1.0  0.21290  0.87010  0.96700  1.0000 -0.3006110565
C   C51       1.0  0.77300  0.08900  0.95490  1.0000 0.6385710015
C   C52       1.0  0.22700  0.91100  0.04510  1.0000 0.6385710015
C   C53       1.0  0.19360  0.02500  0.91380  1.0000 -0.129969823
C   C54       1.0  0.80640  0.97500  0.08620  1.0000 -0.129969823
N   N1        1.0  0.40380  0.53497  0.89630  1.0000 -0.086784622
N   N2        1.0  0.59620  0.46503  0.10370  1.0000 -0.086784622
N   N3        1.0  0.67250  0.44195  0.95380  1.0000 -0.086784622
N   N4        1.0  0.32750  0.55805  0.04620  1.0000 -0.086784622
N   N5        1.0  0.97960  0.03910  0.61770  1.0000 -0.0797410087
N   N6        1.0  0.02040  0.96090  0.38230  1.0000 -0.086784622
N   N7        1.0  0.24330  0.05850  0.51930  1.0000 -0.086784622
N   N8        1.0  0.75670  0.94150  0.48070  1.0000 -0.086784622
N   N9        1.0  0.34810  0.07974  0.95320  1.0000 -0.086784622
N   N10       1.0  0.65190  0.92026  0.04680  1.0000 -0.086784622
N   N11       1.0  0.67760  0.08906  0.07466  1.0000 -0.0797410087
N   N12       1.0  0.32240  0.91094  0.92534  1.0000 -0.0797410087
O   O1        1.0  0.12580  0.34663  0.84860  1.0000 -0.6191321389
O   O2        1.0  0.87420  0.65337  0.15140  1.0000 -0.6191321389
O   O3        1.0  0.30650  0.40248  0.95504  1.0000 -0.5813711212
O   O4        1.0  0.69350  0.59752  0.04496  1.0000 -0.5813711212
O   O5        1.0  0.73920  0.26214  0.92698  1.0000 -0.6655554698
O   O6        1.0  0.26080  0.73786  0.07302  1.0000 -0.6655554698
O   O7        1.0  0.79820  0.33494  0.84410  1.0000 -0.6139513479
O   O8        1.0  0.20180  0.66506  0.15590  1.0000 -0.6139513479
O   O9        1.0  0.96020  0.22205  0.72507  1.0000 -0.6191321389
O   O10       1.0  0.03980  0.77795  0.27493  1.0000 -0.6191321389
O   O11       1.0  0.92890  0.10704  0.76083  1.0000 -0.6323614345
O   O12       1.0  0.07110  0.89296  0.23917  1.0000 -0.6323614345
O   O13       1.0  0.09110  0.22300  0.45900  1.0000 -0.4635592626
O   O14       1.0  0.90890  0.77700  0.54100  1.0000 -0.4547641204
O   O15       1.0  0.95910  0.10587  0.46657  1.0000 -0.5813711212
O   O16       1.0  0.04090  0.89413  0.53343  1.0000 -0.5813711212
O   O17       1.0  0.19570  0.19243  0.87752  1.0000 -0.693985127
O   O18       1.0  0.80430  0.80757  0.12248  1.0000 -0.693985127
O   O19       1.0  0.38010  0.20739  0.80824  1.0000 -0.5683783518
O   O20       1.0  0.61990  0.79261  0.19176  1.0000 -0.5683783518
O   O21       1.0  0.87130  0.11925  0.91848  1.0000 -0.693985127
O   O22       1.0  0.12870  0.88075  0.08152  1.0000 -0.693985127
O   O23       1.0  0.66570  0.02791  0.92951  1.0000 -0.5581966863
O   O24       1.0  0.33430  0.97209  0.07049  1.0000 -0.5581966863
