# DDEC6 charges by PACMAN v1.1 (https://github.com/mtap-research/PACMAN-charge/)
data_2012[Gd][nan]3[ASR]6
_chemical_formula_sum              "Gd4 H18 C40 O30"
_cell_length_a       7.3991
_cell_length_b       11.473
_cell_length_c       16.2335
_cell_angle_alpha    79.038
_cell_angle_beta     82.588
_cell_angle_gamma    79.972

_symmetry_space_group_name_H-M    "P 1"
_symmetry_Int_Tables_number       1

loop_
  _symmetry_equiv_pos_as_xyz
  'x, y, z'

loop_
  _atom_site_type_symbol
  _atom_site_label
  _atom_site_symmetry_multiplicity
  _atom_site_fract_x
  _atom_site_fract_y
  _atom_site_fract_z
  _atom_site_occupancy
  _atom_site_charge
Gd  Gd1       1.0  0.94417  0.06378  0.77266  1.0000 1.9954960766
Gd  Gd2       1.0  0.05583  0.93622  0.22734  1.0000 1.9915258112
Gd  Gd3       1.0  0.44670  0.26273  0.76355  1.0000 2.0478800955
Gd  Gd4       1.0  0.55330  0.73727  0.23645  1.0000 2.0478800955
H   H1        1.0  0.99770  0.20860  0.96610  1.0000 0.3529183241
H   H2        1.0  0.00230  0.79140  0.03390  1.0000 0.3529183241
H   H3        1.0  0.56590  0.72880  0.98010  1.0000 0.3529183241
H   H4        1.0  0.43410  0.27120  0.01990  1.0000 0.3529183241
H   H5        1.0  0.84190  0.25760  0.55980  1.0000 0.3404460522
H   H6        1.0  0.15810  0.74240  0.44020  1.0000 0.3404460522
H   H7        1.0  0.84680  0.87230  0.59400  1.0000 0.3529183241
H   H8        1.0  0.15320  0.12770  0.40600  1.0000 0.3529183241
H   H9        1.0  0.87710  0.38790  0.10500  1.0000 0.1495593685
H   H10       1.0  0.12290  0.61210  0.89500  1.0000 0.1495593685
H   H11       1.0  0.64920  0.53850  0.84630  1.0000 0.1495593685
H   H12       1.0  0.35080  0.46150  0.15370  1.0000 0.1495593685
H   H13       1.0  0.22380  0.50210  0.58740  1.0000 0.1412565159
H   H14       1.0  0.77620  0.49790  0.41260  1.0000 0.1412565159
H   H15       1.0  0.39340  0.17890  0.54820  1.0000 0.1412565159
H   H16       1.0  0.60660  0.82110  0.45180  1.0000 0.1412565159
H   H17       1.0  0.20390  0.95640  0.02890  1.0000 0.1412565159
H   H18       1.0  0.79610  0.04360  0.97110  1.0000 0.1412565159
C   C1        1.0  0.79600  0.39230  0.91230  1.0000 -0.1458887336
C   C2        1.0  0.20400  0.60770  0.08770  1.0000 -0.1371952447
C   C3        1.0  0.87120  0.35020  0.98910  1.0000 0.2572145509
C   C4        1.0  0.12880  0.64980  0.01090  1.0000 0.2572145509
C   C5        1.0  0.83540  0.41910  0.05250  1.0000 -0.1833515791
C   C6        1.0  0.16460  0.58090  0.94750  1.0000 -0.1833515791
C   C7        1.0  0.73810  0.53370  0.03780  1.0000 -0.1244308902
C   C8        1.0  0.26190  0.46630  0.96220  1.0000 -0.1298491349
C   C9        1.0  0.67350  0.58030  0.95890  1.0000 0.2539555254
C   C10       1.0  0.32650  0.41970  0.04110  1.0000 0.2539555254
C   C11       1.0  0.69800  0.50900  0.89760  1.0000 -0.1914171877
C   C12       1.0  0.30200  0.49100  0.10240  1.0000 -0.1914171877
C   C13       1.0  0.81100  0.31330  0.84810  1.0000 0.6458812179
C   C14       1.0  0.18900  0.68670  0.15190  1.0000 0.6458812179
C   C15       1.0  0.70090  0.60640  0.10690  1.0000 0.5772281113
C   C16       1.0  0.29910  0.39360  0.89310  1.0000 0.5772281113
C   C17       1.0  0.90050  0.40540  0.51470  1.0000 0.2539555254
C   C18       1.0  0.09950  0.59460  0.48530  1.0000 0.2539555254
C   C19       1.0  0.03420  0.40600  0.56650  1.0000 -0.1371952447
C   C20       1.0  0.96580  0.59400  0.43350  1.0000 -0.1371952447
C   C21       1.0  0.13430  0.50100  0.55230  1.0000 -0.1914171877
C   C22       1.0  0.86570  0.49900  0.44770  1.0000 -0.1914171877
C   C23       1.0  0.07410  0.30530  0.64040  1.0000 0.667258245
C   C24       1.0  0.92590  0.69470  0.35960  1.0000 0.667258245
C   C25       1.0  0.64980  0.92180  0.53340  1.0000 0.2572145509
C   C26       1.0  0.35020  0.07820  0.46660  1.0000 0.2572145509
C   C27       1.0  0.43590  0.10680  0.52900  1.0000 -0.1914171877
C   C28       1.0  0.56410  0.89320  0.47100  1.0000 -0.1914171877
C   C29       1.0  0.58520  0.02990  0.56390  1.0000 -0.1298491349
C   C30       1.0  0.41480  0.97010  0.43610  1.0000 -0.1371952447
C   C31       1.0  0.66930  0.06520  0.63300  1.0000 0.6553878906
C   C32       1.0  0.33070  0.93480  0.36700  1.0000 0.6553878906
C   C33       1.0  0.32400  0.97330  0.01780  1.0000 -0.2064053295
C   C34       1.0  0.67600  0.02670  0.98220  1.0000 -0.2064053295
C   C35       1.0  0.56760  0.04530  0.91460  1.0000 0.3404460522
C   C36       1.0  0.43240  0.95470  0.08540  1.0000 0.3404460522
C   C37       1.0  0.38810  0.01590  0.93510  1.0000 -0.1371952447
C   C38       1.0  0.61190  0.98410  0.06490  1.0000 -0.1371952447
C   C39       1.0  0.25460  0.03290  0.87250  1.0000 0.642779571
C   C40       1.0  0.74540  0.96710  0.12750  1.0000 0.642779571
O   O1        1.0  0.92870  0.21870  0.85440  1.0000 -0.6407494126
O   O2        1.0  0.07130  0.78130  0.14560  1.0000 -0.6407494126
O   O3        1.0  0.70460  0.34150  0.78990  1.0000 -0.6793201146
O   O4        1.0  0.29540  0.65850  0.21010  1.0000 -0.6793201146
O   O5        1.0  0.73740  0.56150  0.18120  1.0000 -0.6094370363
O   O6        1.0  0.26260  0.43850  0.81880  1.0000 -0.6094370363
O   O7        1.0  0.62080  0.71540  0.09050  1.0000 -0.6482968268
O   O8        1.0  0.37920  0.28460  0.90950  1.0000 -0.6482968268
O   O9        1.0  0.98450  0.24360  0.00650  1.0000 -0.4159905789
O   O10       1.0  0.01550  0.75640  0.99350  1.0000 -0.4159905789
O   O11       1.0  0.57600  0.69450  0.93940  1.0000 -0.4337704507
O   O12       1.0  0.42400  0.30550  0.06060  1.0000 -0.4337704507
O   O13       1.0  0.98130  0.22020  0.65450  1.0000 -0.6482968268
O   O14       1.0  0.01870  0.77980  0.34550  1.0000 -0.6482968268
O   O15       1.0  0.19720  0.31340  0.68360  1.0000 -0.6584399519
O   O16       1.0  0.80280  0.68660  0.31640  1.0000 -0.6584399519
O   O17       1.0  0.79460  0.31550  0.52750  1.0000 -0.4391239909
O   O18       1.0  0.20540  0.68450  0.47250  1.0000 -0.4391239909
O   O19       1.0  0.60170  0.16140  0.65790  1.0000 -0.6656971154
O   O20       1.0  0.39830  0.83860  0.34210  1.0000 -0.6584399519
O   O21       1.0  0.80800  0.99730  0.66240  1.0000 -0.6482968268
O   O22       1.0  0.19200  0.00270  0.33760  1.0000 -0.6407494126
O   O23       1.0  0.79410  0.84130  0.56440  1.0000 -0.4337704507
O   O24       1.0  0.20590  0.15870  0.43560  1.0000 -0.4337704507
O   O25       1.0  0.27160  0.10420  0.80100  1.0000 -0.7276901183
O   O26       1.0  0.72840  0.89580  0.19900  1.0000 -0.7276901183
O   O27       1.0  0.11600  0.97890  0.88870  1.0000 -0.618916708
O   O28       1.0  0.88400  0.02110  0.11130  1.0000 -0.618916708
O   O29       1.0  0.63420  0.08950  0.83520  1.0000 -0.8138043163
O   O30       1.0  0.36580  0.91050  0.16480  1.0000 -0.8138043163
