# DDEC6 charges by PACMAN v1.1 (https://github.com/mtap-research/PACMAN-charge/)
data_2012[In][dia]3[ASR]6
_chemical_formula_sum              "In2 H44 C80 O16"
_cell_length_a       14.746
_cell_length_b       11.038
_cell_length_c       12.306
_cell_angle_alpha    90
_cell_angle_beta     90
_cell_angle_gamma    90

_symmetry_space_group_name_H-M    "P 1"
_symmetry_Int_Tables_number       1

loop_
  _symmetry_equiv_pos_as_xyz
  'x, y, z'

loop_
  _atom_site_type_symbol
  _atom_site_label
  _atom_site_symmetry_multiplicity
  _atom_site_fract_x
  _atom_site_fract_y
  _atom_site_fract_z
  _atom_site_occupancy
  _atom_site_charge
In  In1       1.0  0.25000  0.75000  0.50000  1.0000 1.3214237625
In  In2       1.0  0.75000  0.25000  0.50000  1.0000 1.3214237625
H   H1        1.0  0.99382  0.04278  0.43060  1.0000 0.1234243573
H   H2        1.0  0.00618  0.95722  0.56940  1.0000 0.1234243573
H   H3        1.0  0.50618  0.45722  0.43060  1.0000 0.1234243573
H   H4        1.0  0.49382  0.54278  0.56940  1.0000 0.1234243573
H   H5        1.0  0.50618  0.04278  0.56940  1.0000 0.1234243573
H   H6        1.0  0.49382  0.95722  0.43060  1.0000 0.1234243573
H   H7        1.0  0.99382  0.45722  0.56940  1.0000 0.1234243573
H   H8        1.0  0.00618  0.54278  0.43060  1.0000 0.1234243573
H   H9        1.0  0.90348  0.15783  0.29802  1.0000 0.1119082753
H   H10       1.0  0.09652  0.84217  0.70198  1.0000 0.1119082753
H   H11       1.0  0.59652  0.34217  0.29802  1.0000 0.1119082753
H   H12       1.0  0.40348  0.65783  0.70198  1.0000 0.1119082753
H   H13       1.0  0.59652  0.15783  0.70198  1.0000 0.1119082753
H   H14       1.0  0.40348  0.84217  0.29802  1.0000 0.1119082753
H   H15       1.0  0.90348  0.34217  0.70198  1.0000 0.1119082753
H   H16       1.0  0.09652  0.65783  0.29802  1.0000 0.1119082753
H   H17       1.0  0.18203  0.93928  0.17776  1.0000 0.1019282295
H   H18       1.0  0.81797  0.06072  0.82224  1.0000 0.1019282295
H   H19       1.0  0.31797  0.56072  0.17776  1.0000 0.1019282295
H   H20       1.0  0.68203  0.43928  0.82224  1.0000 0.1019282295
H   H21       1.0  0.31797  0.93928  0.82224  1.0000 0.1019282295
H   H22       1.0  0.68203  0.06072  0.17776  1.0000 0.1019282295
H   H23       1.0  0.18203  0.56072  0.82224  1.0000 0.1019282295
H   H24       1.0  0.81797  0.43928  0.17776  1.0000 0.1019282295
H   H25       1.0  0.09215  0.05807  0.04247  1.0000 0.1019282295
H   H26       1.0  0.90785  0.94193  0.95753  1.0000 0.1019282295
H   H27       1.0  0.40785  0.44193  0.04247  1.0000 0.1019282295
H   H28       1.0  0.59215  0.55807  0.95753  1.0000 0.1019282295
H   H29       1.0  0.40785  0.05807  0.95753  1.0000 0.1019282295
H   H30       1.0  0.59215  0.94193  0.04247  1.0000 0.1019282295
H   H31       1.0  0.09215  0.44193  0.95753  1.0000 0.1019282295
H   H32       1.0  0.90785  0.55807  0.04247  1.0000 0.1019282295
H   H33       1.0  0.81010  0.15087  0.15235  1.0000 0.1234243573
H   H34       1.0  0.18990  0.84913  0.84765  1.0000 0.1234243573
H   H35       1.0  0.68990  0.34913  0.15235  1.0000 0.1234243573
H   H36       1.0  0.31010  0.65087  0.84765  1.0000 0.1234243573
H   H37       1.0  0.68990  0.15087  0.84765  1.0000 0.1234243573
H   H38       1.0  0.31010  0.84913  0.15235  1.0000 0.1234243573
H   H39       1.0  0.81010  0.34913  0.84765  1.0000 0.1234243573
H   H40       1.0  0.18990  0.65087  0.15235  1.0000 0.1234243573
H   H41       1.0  0.06380  0.25000  0.00000  1.0000 0.1119082753
H   H42       1.0  0.93620  0.75000  0.00000  1.0000 0.1119082753
H   H43       1.0  0.43620  0.25000  0.00000  1.0000 0.1119082753
H   H44       1.0  0.56380  0.75000  0.00000  1.0000 0.1119082753
C   C1        1.0  0.01677  0.04649  0.34627  1.0000 -0.0697029298
C   C2        1.0  0.98323  0.95351  0.65373  1.0000 -0.0697029298
C   C3        1.0  0.48323  0.45351  0.34627  1.0000 -0.0697029298
C   C4        1.0  0.51677  0.54649  0.65373  1.0000 -0.0697029298
C   C5        1.0  0.48323  0.04649  0.65373  1.0000 -0.0697029298
C   C6        1.0  0.51677  0.95351  0.34627  1.0000 -0.0697029298
C   C7        1.0  0.01677  0.45351  0.65373  1.0000 -0.0697029298
C   C8        1.0  0.98323  0.54649  0.34627  1.0000 -0.0697029298
C   C9        1.0  0.96530  0.11107  0.27153  1.0000 -0.1071334695
C   C10       1.0  0.03470  0.88893  0.72847  1.0000 -0.1071334695
C   C11       1.0  0.53470  0.38893  0.27153  1.0000 -0.1071334695
C   C12       1.0  0.46530  0.61107  0.72847  1.0000 -0.1071334695
C   C13       1.0  0.53470  0.11107  0.72847  1.0000 -0.1071334695
C   C14       1.0  0.46530  0.88893  0.27153  1.0000 -0.1071334695
C   C15       1.0  0.96530  0.38893  0.72847  1.0000 -0.1071334695
C   C16       1.0  0.03470  0.61107  0.27153  1.0000 -0.1071334695
C   C17       1.0  0.99358  0.11853  0.16223  1.0000 0.0767957806
C   C18       1.0  0.00642  0.88147  0.83777  1.0000 0.0767957806
C   C19       1.0  0.50642  0.38147  0.16223  1.0000 0.0767957806
C   C20       1.0  0.49358  0.61853  0.83777  1.0000 0.0767957806
C   C21       1.0  0.50642  0.11853  0.83777  1.0000 0.0767957806
C   C22       1.0  0.49358  0.88147  0.16223  1.0000 0.0767957806
C   C23       1.0  0.99358  0.38147  0.83777  1.0000 0.0767957806
C   C24       1.0  0.00642  0.61853  0.16223  1.0000 0.0767957806
C   C25       1.0  0.09534  0.98612  0.31234  1.0000 -0.0315152248
C   C26       1.0  0.90466  0.01388  0.68766  1.0000 -0.0315152248
C   C27       1.0  0.40466  0.51388  0.31234  1.0000 -0.0315152248
C   C28       1.0  0.59534  0.48612  0.68766  1.0000 -0.0315152248
C   C29       1.0  0.40466  0.98612  0.68766  1.0000 -0.0315152248
C   C30       1.0  0.59534  0.01388  0.31234  1.0000 -0.0315152248
C   C31       1.0  0.09534  0.51388  0.68766  1.0000 -0.0315152248
C   C32       1.0  0.90466  0.48612  0.31234  1.0000 -0.0315152248
C   C33       1.0  0.12230  0.99052  0.20257  1.0000 -0.0851921206
C   C34       1.0  0.87770  0.00948  0.79743  1.0000 -0.0851921206
C   C35       1.0  0.37770  0.50948  0.20257  1.0000 -0.0851921206
C   C36       1.0  0.62230  0.49052  0.79743  1.0000 -0.0851921206
C   C37       1.0  0.37770  0.99052  0.79743  1.0000 -0.0851921206
C   C38       1.0  0.62230  0.00948  0.20257  1.0000 -0.0851921206
C   C39       1.0  0.12230  0.50948  0.79743  1.0000 -0.0851921206
C   C40       1.0  0.87770  0.49052  0.20257  1.0000 -0.0851921206
C   C41       1.0  0.07247  0.05683  0.12843  1.0000 -0.1348227328
C   C42       1.0  0.92753  0.94317  0.87157  1.0000 -0.1350445961
C   C43       1.0  0.42753  0.44317  0.12843  1.0000 -0.1348227328
C   C44       1.0  0.57247  0.55683  0.87157  1.0000 -0.1350445961
C   C45       1.0  0.42753  0.05683  0.87157  1.0000 -0.1350445961
C   C46       1.0  0.57247  0.94317  0.12843  1.0000 -0.1348227328
C   C47       1.0  0.07247  0.44317  0.87157  1.0000 -0.1350445961
C   C48       1.0  0.92753  0.55683  0.12843  1.0000 -0.1348227328
C   C49       1.0  0.15112  0.91136  0.38746  1.0000 0.5513639981
C   C50       1.0  0.84888  0.08864  0.61254  1.0000 0.5513639981
C   C51       1.0  0.34888  0.58864  0.38746  1.0000 0.5513639981
C   C52       1.0  0.65112  0.41136  0.61254  1.0000 0.5513639981
C   C53       1.0  0.34888  0.91136  0.61254  1.0000 0.5513639981
C   C54       1.0  0.65112  0.08864  0.38746  1.0000 0.5513639981
C   C55       1.0  0.15112  0.58864  0.61254  1.0000 0.5513639981
C   C56       1.0  0.84888  0.41136  0.38746  1.0000 0.5513639981
C   C57       1.0  0.84742  0.19427  0.08540  1.0000 -0.1626511132
C   C58       1.0  0.15258  0.80573  0.91460  1.0000 -0.1626511132
C   C59       1.0  0.65258  0.30573  0.08540  1.0000 -0.1626511132
C   C60       1.0  0.34742  0.69427  0.91460  1.0000 -0.1626511132
C   C61       1.0  0.65258  0.19427  0.91460  1.0000 -0.1626511132
C   C62       1.0  0.34742  0.80573  0.08540  1.0000 -0.1626511132
C   C63       1.0  0.84742  0.30573  0.91460  1.0000 -0.1626511132
C   C64       1.0  0.15258  0.69427  0.08540  1.0000 -0.1626511132
C   C65       1.0  0.80005  0.25000  0.00000  1.0000 0.0726935426
C   C66       1.0  0.19995  0.75000  0.00000  1.0000 0.0726935426
C   C67       1.0  0.69995  0.25000  0.00000  1.0000 0.0726935426
C   C68       1.0  0.30005  0.75000  0.00000  1.0000 0.0726935426
C   C69       1.0  0.94305  0.18927  0.08273  1.0000 0.0767957806
C   C70       1.0  0.05695  0.81073  0.91727  1.0000 0.0767957806
C   C71       1.0  0.55695  0.31073  0.08273  1.0000 0.0767957806
C   C72       1.0  0.44305  0.68927  0.91727  1.0000 0.0767957806
C   C73       1.0  0.55695  0.18927  0.91727  1.0000 0.0767957806
C   C74       1.0  0.44305  0.81073  0.08273  1.0000 0.0767957806
C   C75       1.0  0.94305  0.31073  0.91727  1.0000 0.0767957806
C   C76       1.0  0.05695  0.68927  0.08273  1.0000 0.0767957806
C   C77       1.0  0.98957  0.25000  0.00000  1.0000 -0.1626511132
C   C78       1.0  0.01043  0.75000  0.00000  1.0000 -0.1626511132
C   C79       1.0  0.51043  0.25000  0.00000  1.0000 -0.1626511132
C   C80       1.0  0.48957  0.75000  0.00000  1.0000 -0.1626511132
O   O1        1.0  0.21916  0.85553  0.34577  1.0000 -0.4927429771
O   O2        1.0  0.78084  0.14447  0.65423  1.0000 -0.4927429771
O   O3        1.0  0.28084  0.64447  0.34577  1.0000 -0.4927429771
O   O4        1.0  0.71916  0.35553  0.65423  1.0000 -0.4927429771
O   O5        1.0  0.28084  0.85553  0.65423  1.0000 -0.4927429771
O   O6        1.0  0.71916  0.14447  0.34577  1.0000 -0.4927429771
O   O7        1.0  0.21916  0.64447  0.65423  1.0000 -0.4927429771
O   O8        1.0  0.78084  0.35553  0.34577  1.0000 -0.4927429771
O   O9        1.0  0.13163  0.89841  0.48827  1.0000 -0.5248864954
O   O10       1.0  0.86837  0.10159  0.51173  1.0000 -0.5251141852
O   O11       1.0  0.36837  0.60159  0.48827  1.0000 -0.5248864954
O   O12       1.0  0.63163  0.39841  0.51173  1.0000 -0.5251141852
O   O13       1.0  0.36837  0.89841  0.51173  1.0000 -0.5251141852
O   O14       1.0  0.63163  0.10159  0.48827  1.0000 -0.5251141852
O   O15       1.0  0.13163  0.60159  0.51173  1.0000 -0.5248864954
O   O16       1.0  0.86837  0.39841  0.48827  1.0000 -0.5251141852
