# DDEC6 charges by PACMAN v1.1 (https://github.com/mtap-research/PACMAN-charge/)
data_2012[Zn][crs]3[ASR]1
_chemical_formula_sum              "Zn20 H124 C144 N36 O52"
_cell_length_a       15.508
_cell_length_b       19.22
_cell_length_c       25.211
_cell_angle_alpha    90
_cell_angle_beta     90
_cell_angle_gamma    90

_symmetry_space_group_name_H-M    "P 1"
_symmetry_Int_Tables_number       1

loop_
  _symmetry_equiv_pos_as_xyz
  'x, y, z'

loop_
  _atom_site_type_symbol
  _atom_site_label
  _atom_site_symmetry_multiplicity
  _atom_site_fract_x
  _atom_site_fract_y
  _atom_site_fract_z
  _atom_site_occupancy
  _atom_site_charge
Zn  Zn1       1.0  0.94628  0.16218  0.77234  1.0000 0.7465596426
Zn  Zn2       1.0  0.55372  0.83782  0.27234  1.0000 0.7465596426
Zn  Zn3       1.0  0.44628  0.33782  0.72766  1.0000 0.7465596426
Zn  Zn4       1.0  0.05372  0.66218  0.22766  1.0000 0.7465596426
Zn  Zn5       1.0  0.05372  0.83782  0.22766  1.0000 0.7465596426
Zn  Zn6       1.0  0.44628  0.16218  0.72766  1.0000 0.7465596426
Zn  Zn7       1.0  0.55372  0.66218  0.27234  1.0000 0.7465596426
Zn  Zn8       1.0  0.94628  0.33782  0.77234  1.0000 0.7465596426
Zn  Zn9       1.0  0.97421  0.03568  0.54987  1.0000 0.8561604026
Zn  Zn10      1.0  0.52579  0.96432  0.04987  1.0000 0.8561604026
Zn  Zn11      1.0  0.47421  0.46432  0.95013  1.0000 0.8561604026
Zn  Zn12      1.0  0.02579  0.53568  0.45013  1.0000 0.8561604026
Zn  Zn13      1.0  0.02579  0.96432  0.45013  1.0000 0.8561604026
Zn  Zn14      1.0  0.47421  0.03568  0.95013  1.0000 0.8561604026
Zn  Zn15      1.0  0.52579  0.53568  0.04987  1.0000 0.8561604026
Zn  Zn16      1.0  0.97421  0.46432  0.54987  1.0000 0.8561604026
Zn  Zn17      1.0  0.81710  0.25000  0.69581  1.0000 0.7341755036
Zn  Zn18      1.0  0.68290  0.75000  0.19581  1.0000 0.7341755036
Zn  Zn19      1.0  0.31710  0.25000  0.80419  1.0000 0.7341755036
Zn  Zn20      1.0  0.18290  0.75000  0.30419  1.0000 0.7341755036
H   H1        1.0  0.83150  0.25000  0.78980  1.0000 0.3886906404
H   H2        1.0  0.66850  0.75000  0.28980  1.0000 0.3886906404
H   H3        1.0  0.33150  0.25000  0.71020  1.0000 0.3886906404
H   H4        1.0  0.16850  0.75000  0.21020  1.0000 0.3886906404
H   H5        1.0  0.08870  0.05250  0.67930  1.0000 0.1586959831
H   H6        1.0  0.41130  0.94750  0.17930  1.0000 0.1586959831
H   H7        1.0  0.58870  0.44750  0.82070  1.0000 0.1586959831
H   H8        1.0  0.91130  0.55250  0.32070  1.0000 0.1586959831
H   H9        1.0  0.91130  0.94750  0.32070  1.0000 0.1586959831
H   H10       1.0  0.58870  0.05250  0.82070  1.0000 0.1586959831
H   H11       1.0  0.41130  0.55250  0.17930  1.0000 0.1586959831
H   H12       1.0  0.08870  0.44750  0.67930  1.0000 0.1586959831
H   H13       1.0  0.02920  0.99100  0.66100  1.0000 0.1586959831
H   H14       1.0  0.47080  0.00900  0.16100  1.0000 0.1586959831
H   H15       1.0  0.52920  0.50900  0.83900  1.0000 0.1586959831
H   H16       1.0  0.97080  0.49100  0.33900  1.0000 0.1586959831
H   H17       1.0  0.97080  0.00900  0.33900  1.0000 0.1586959831
H   H18       1.0  0.52920  0.99100  0.83900  1.0000 0.1586959831
H   H19       1.0  0.47080  0.49100  0.16100  1.0000 0.1586959831
H   H20       1.0  0.02920  0.50900  0.66100  1.0000 0.1586959831
H   H21       1.0  0.02300  0.01930  0.71920  1.0000 0.1531485788
H   H22       1.0  0.47700  0.98070  0.21920  1.0000 0.1531485788
H   H23       1.0  0.52300  0.48070  0.78080  1.0000 0.1531485788
H   H24       1.0  0.97700  0.51930  0.28080  1.0000 0.1531485788
H   H25       1.0  0.97700  0.98070  0.28080  1.0000 0.1531485788
H   H26       1.0  0.52300  0.01930  0.78080  1.0000 0.1531485788
H   H27       1.0  0.47700  0.51930  0.21920  1.0000 0.1531485788
H   H28       1.0  0.02300  0.48070  0.71920  1.0000 0.1531485788
H   H29       1.0  0.77640  0.19120  0.58730  1.0000 0.1408437513
H   H30       1.0  0.72360  0.80880  0.08730  1.0000 0.1408437513
H   H31       1.0  0.27640  0.30880  0.91270  1.0000 0.1408437513
H   H32       1.0  0.22360  0.69120  0.41270  1.0000 0.1408437513
H   H33       1.0  0.22360  0.80880  0.41270  1.0000 0.1408437513
H   H34       1.0  0.27640  0.19120  0.91270  1.0000 0.1408437513
H   H35       1.0  0.72360  0.69120  0.08730  1.0000 0.1408437513
H   H36       1.0  0.77640  0.30880  0.58730  1.0000 0.1408437513
H   H37       1.0  0.78770  0.11790  0.56090  1.0000 0.1531485788
H   H38       1.0  0.71230  0.88210  0.06090  1.0000 0.1531485788
H   H39       1.0  0.28770  0.38210  0.93910  1.0000 0.1531485788
H   H40       1.0  0.21230  0.61790  0.43910  1.0000 0.1531485788
H   H41       1.0  0.21230  0.88210  0.43910  1.0000 0.1531485788
H   H42       1.0  0.28770  0.11790  0.93910  1.0000 0.1531485788
H   H43       1.0  0.71230  0.61790  0.06090  1.0000 0.1531485788
H   H44       1.0  0.78770  0.38210  0.56090  1.0000 0.1531485788
H   H45       1.0  0.85120  0.17850  0.54660  1.0000 0.1586959831
H   H46       1.0  0.64880  0.82150  0.04660  1.0000 0.1586959831
H   H47       1.0  0.35120  0.32150  0.95340  1.0000 0.1586959831
H   H48       1.0  0.14880  0.67850  0.45340  1.0000 0.1586959831
H   H49       1.0  0.14880  0.82150  0.45340  1.0000 0.1586959831
H   H50       1.0  0.35120  0.17850  0.95340  1.0000 0.1586959831
H   H51       1.0  0.64880  0.67850  0.04660  1.0000 0.1586959831
H   H52       1.0  0.85120  0.32150  0.54660  1.0000 0.1586959831
H   H53       1.0  0.03510  0.14540  0.35270  1.0000 0.1297734286
H   H54       1.0  0.46490  0.85460  0.85270  1.0000 0.1297734286
H   H55       1.0  0.53510  0.35460  0.14730  1.0000 0.1297734286
H   H56       1.0  0.96490  0.64540  0.64730  1.0000 0.1297734286
H   H57       1.0  0.96490  0.85460  0.64730  1.0000 0.1297734286
H   H58       1.0  0.53510  0.14540  0.14730  1.0000 0.1297734286
H   H59       1.0  0.46490  0.64540  0.85270  1.0000 0.1297734286
H   H60       1.0  0.03510  0.35460  0.35270  1.0000 0.1297734286
H   H61       1.0  0.04220  0.25000  0.30630  1.0000 0.1103797819
H   H62       1.0  0.45780  0.75000  0.80630  1.0000 0.1103797819
H   H63       1.0  0.54220  0.25000  0.19370  1.0000 0.1103797819
H   H64       1.0  0.95780  0.75000  0.69370  1.0000 0.1103797819
H   H65       1.0  0.99460  0.25000  0.48710  1.0000 0.1297734286
H   H66       1.0  0.50540  0.75000  0.98710  1.0000 0.1297734286
H   H67       1.0  0.49460  0.25000  0.01290  1.0000 0.1297734286
H   H68       1.0  0.00540  0.75000  0.51290  1.0000 0.1297734286
H   H69       1.0  0.97770  0.99700  0.90430  1.0000 0.1201493594
H   H70       1.0  0.52230  0.00300  0.40430  1.0000 0.1201493594
H   H71       1.0  0.47770  0.50300  0.59570  1.0000 0.1201493594
H   H72       1.0  0.02230  0.49700  0.09570  1.0000 0.1201493594
H   H73       1.0  0.02230  0.00300  0.09570  1.0000 0.1201493594
H   H74       1.0  0.47770  0.99700  0.59570  1.0000 0.1201493594
H   H75       1.0  0.52230  0.49700  0.40430  1.0000 0.1201493594
H   H76       1.0  0.97770  0.50300  0.90430  1.0000 0.1201493594
H   H77       1.0  0.93560  0.95070  0.98570  1.0000 0.1103797819
H   H78       1.0  0.56440  0.04930  0.48570  1.0000 0.1103797819
H   H79       1.0  0.43560  0.54930  0.51430  1.0000 0.1103797819
H   H80       1.0  0.06440  0.45070  0.01430  1.0000 0.1103797819
H   H81       1.0  0.06440  0.04930  0.01430  1.0000 0.1103797819
H   H82       1.0  0.43560  0.95070  0.51430  1.0000 0.1103797819
H   H83       1.0  0.56440  0.45070  0.48570  1.0000 0.1103797819
H   H84       1.0  0.93560  0.54930  0.98570  1.0000 0.1103797819
H   H85       1.0  0.79310  0.94770  0.00920  1.0000 0.1201493594
H   H86       1.0  0.70690  0.05230  0.50920  1.0000 0.1201493594
H   H87       1.0  0.29310  0.55230  0.49080  1.0000 0.1201493594
H   H88       1.0  0.20690  0.44770  0.99080  1.0000 0.1201493594
H   H89       1.0  0.20690  0.05230  0.99080  1.0000 0.1201493594
H   H90       1.0  0.29310  0.94770  0.49080  1.0000 0.1201493594
H   H91       1.0  0.70690  0.44770  0.50920  1.0000 0.1201493594
H   H92       1.0  0.79310  0.55230  0.00920  1.0000 0.1201493594
H   H93       1.0  0.73390  0.06970  0.88710  1.0000 0.1297734286
H   H94       1.0  0.76610  0.93030  0.38710  1.0000 0.1297734286
H   H95       1.0  0.23390  0.43030  0.61290  1.0000 0.1297734286
H   H96       1.0  0.26610  0.56970  0.11290  1.0000 0.1297734286
H   H97       1.0  0.26610  0.93030  0.11290  1.0000 0.1297734286
H   H98       1.0  0.23390  0.06970  0.61290  1.0000 0.1297734286
H   H99       1.0  0.76610  0.56970  0.38710  1.0000 0.1297734286
H   H100      1.0  0.73390  0.43030  0.88710  1.0000 0.1297734286
H   H101      1.0  0.71450  0.11350  0.72960  1.0000 0.1586959831
H   H102      1.0  0.78550  0.88650  0.22960  1.0000 0.1586959831
H   H103      1.0  0.21450  0.38650  0.77040  1.0000 0.1586959831
H   H104      1.0  0.28550  0.61350  0.27040  1.0000 0.1586959831
H   H105      1.0  0.28550  0.88650  0.27040  1.0000 0.1586959831
H   H106      1.0  0.21450  0.11350  0.77040  1.0000 0.1586959831
H   H107      1.0  0.78550  0.61350  0.22960  1.0000 0.1586959831
H   H108      1.0  0.71450  0.38650  0.72960  1.0000 0.1586959831
H   H109      1.0  0.62020  0.09160  0.71470  1.0000 0.1531485788
H   H110      1.0  0.87980  0.90840  0.21470  1.0000 0.1531485788
H   H111      1.0  0.12020  0.40840  0.78530  1.0000 0.1531485788
H   H112      1.0  0.37980  0.59160  0.28530  1.0000 0.1531485788
H   H113      1.0  0.37980  0.90840  0.28530  1.0000 0.1531485788
H   H114      1.0  0.12020  0.09160  0.78530  1.0000 0.1531485788
H   H115      1.0  0.87980  0.59160  0.21470  1.0000 0.1531485788
H   H116      1.0  0.62020  0.40840  0.71470  1.0000 0.1531485788
H   H117      1.0  0.68610  0.11100  0.67000  1.0000 0.1531485788
H   H118      1.0  0.81390  0.88900  0.17000  1.0000 0.1531485788
H   H119      1.0  0.18610  0.38900  0.83000  1.0000 0.1531485788
H   H120      1.0  0.31390  0.61100  0.33000  1.0000 0.1531485788
H   H121      1.0  0.31390  0.88900  0.33000  1.0000 0.1531485788
H   H122      1.0  0.18610  0.11100  0.83000  1.0000 0.1531485788
H   H123      1.0  0.81390  0.61100  0.17000  1.0000 0.1531485788
H   H124      1.0  0.68610  0.38900  0.67000  1.0000 0.1531485788
C   C1        1.0  0.03260  0.03190  0.68280  1.0000 -0.5211230563
C   C2        1.0  0.46740  0.96810  0.18280  1.0000 -0.5211230563
C   C3        1.0  0.53260  0.46810  0.81720  1.0000 -0.5211230563
C   C4        1.0  0.96740  0.53190  0.31720  1.0000 -0.5211230563
C   C5        1.0  0.96740  0.96810  0.31720  1.0000 -0.5211230563
C   C6        1.0  0.53260  0.03190  0.81720  1.0000 -0.5211230563
C   C7        1.0  0.46740  0.53190  0.18280  1.0000 -0.5211230563
C   C8        1.0  0.03260  0.46810  0.68280  1.0000 -0.5211230563
C   C9        1.0  0.96590  0.08260  0.66580  1.0000 0.3970274742
C   C10       1.0  0.53410  0.91740  0.16580  1.0000 0.3970274742
C   C11       1.0  0.46590  0.41740  0.83420  1.0000 0.3970274742
C   C12       1.0  0.03410  0.58260  0.33420  1.0000 0.3970274742
C   C13       1.0  0.03410  0.91740  0.33420  1.0000 0.3970274742
C   C14       1.0  0.46590  0.08260  0.83420  1.0000 0.3970274742
C   C15       1.0  0.53410  0.58260  0.16580  1.0000 0.3970274742
C   C16       1.0  0.96590  0.41740  0.66580  1.0000 0.3970274742
C   C17       1.0  0.87510  0.13640  0.61830  1.0000 0.3886906404
C   C18       1.0  0.62490  0.86360  0.11830  1.0000 0.3886906404
C   C19       1.0  0.37510  0.36360  0.88170  1.0000 0.3886906404
C   C20       1.0  0.12490  0.63640  0.38170  1.0000 0.3886906404
C   C21       1.0  0.12490  0.86360  0.38170  1.0000 0.3886906404
C   C22       1.0  0.37510  0.13640  0.88170  1.0000 0.3886906404
C   C23       1.0  0.62490  0.63640  0.11830  1.0000 0.3886906404
C   C24       1.0  0.87510  0.36360  0.61830  1.0000 0.3886906404
C   C25       1.0  0.81750  0.15790  0.57440  1.0000 -0.5295029503
C   C26       1.0  0.68250  0.84210  0.07440  1.0000 -0.5295029503
C   C27       1.0  0.31750  0.34210  0.92560  1.0000 -0.5295029503
C   C28       1.0  0.18250  0.65790  0.42560  1.0000 -0.5295029503
C   C29       1.0  0.18250  0.84210  0.42560  1.0000 -0.5295029503
C   C30       1.0  0.31750  0.15790  0.92560  1.0000 -0.5295029503
C   C31       1.0  0.68250  0.65790  0.07440  1.0000 -0.5295029503
C   C32       1.0  0.81750  0.34210  0.57440  1.0000 -0.5295029503
C   C33       1.0  0.00610  0.11980  0.45290  1.0000 0.5791586641
C   C34       1.0  0.49390  0.88020  0.95290  1.0000 0.5791586641
C   C35       1.0  0.50610  0.38020  0.04710  1.0000 0.5791586641
C   C36       1.0  0.99390  0.61980  0.54710  1.0000 0.5791586641
C   C37       1.0  0.99390  0.88020  0.54710  1.0000 0.5791586641
C   C38       1.0  0.50610  0.11980  0.04710  1.0000 0.5791586641
C   C39       1.0  0.49390  0.61980  0.95290  1.0000 0.5791586641
C   C40       1.0  0.00610  0.38020  0.45290  1.0000 0.5791586641
C   C41       1.0  0.01180  0.18680  0.42420  1.0000 -0.0484379983
C   C42       1.0  0.48820  0.81320  0.92420  1.0000 -0.0484379983
C   C43       1.0  0.51180  0.31320  0.07580  1.0000 -0.0484379983
C   C44       1.0  0.98820  0.68680  0.57580  1.0000 -0.0484379983
C   C45       1.0  0.98820  0.81320  0.57580  1.0000 -0.0484379983
C   C46       1.0  0.51180  0.18680  0.07580  1.0000 -0.0484379983
C   C47       1.0  0.48820  0.68680  0.92420  1.0000 -0.0484379983
C   C48       1.0  0.01180  0.31320  0.42420  1.0000 -0.0484379983
C   C49       1.0  0.02810  0.18730  0.37070  1.0000 -0.0818260663
C   C50       1.0  0.47190  0.81270  0.87070  1.0000 -0.0818260663
C   C51       1.0  0.52810  0.31270  0.12930  1.0000 -0.0818260663
C   C52       1.0  0.97190  0.68730  0.62930  1.0000 -0.0818260663
C   C53       1.0  0.97190  0.81270  0.62930  1.0000 -0.0818260663
C   C54       1.0  0.52810  0.18730  0.12930  1.0000 -0.0818260663
C   C55       1.0  0.47190  0.68730  0.87070  1.0000 -0.0818260663
C   C56       1.0  0.02810  0.31270  0.37070  1.0000 -0.0818260663
C   C57       1.0  0.03420  0.25000  0.34290  1.0000 -0.1092733937
C   C58       1.0  0.46580  0.75000  0.84290  1.0000 -0.1092733937
C   C59       1.0  0.53420  0.25000  0.15710  1.0000 -0.1092733937
C   C60       1.0  0.96580  0.75000  0.65710  1.0000 -0.1092733937
C   C61       1.0  0.00460  0.25000  0.45070  1.0000 -0.0943780557
C   C62       1.0  0.49540  0.75000  0.95070  1.0000 -0.0943780557
C   C63       1.0  0.50460  0.25000  0.04930  1.0000 -0.0943780557
C   C64       1.0  0.99540  0.75000  0.54930  1.0000 -0.0943780557
C   C65       1.0  0.88550  0.08470  0.83960  1.0000 0.5021183345
C   C66       1.0  0.61450  0.91530  0.33960  1.0000 0.5021183345
C   C67       1.0  0.38550  0.41530  0.66040  1.0000 0.5021183345
C   C68       1.0  0.11450  0.58470  0.16040  1.0000 0.5021183345
C   C69       1.0  0.11450  0.91530  0.16040  1.0000 0.5021183345
C   C70       1.0  0.38550  0.08470  0.66040  1.0000 0.5021183345
C   C71       1.0  0.61450  0.58470  0.33960  1.0000 0.5021183345
C   C72       1.0  0.88550  0.41530  0.83960  1.0000 0.5021183345
C   C73       1.0  0.85950  0.04330  0.88940  1.0000 0.0037397466
C   C74       1.0  0.64050  0.95670  0.38940  1.0000 0.0037397466
C   C75       1.0  0.35950  0.45670  0.61060  1.0000 0.0037397466
C   C76       1.0  0.14050  0.54330  0.11060  1.0000 0.0037397466
C   C77       1.0  0.14050  0.95670  0.11060  1.0000 0.0037397466
C   C78       1.0  0.35950  0.04330  0.61060  1.0000 0.0037397466
C   C79       1.0  0.64050  0.54330  0.38940  1.0000 0.0037397466
C   C80       1.0  0.85950  0.45670  0.88940  1.0000 0.0037397466
C   C81       1.0  0.92190  0.00270  0.91710  1.0000 -0.1092733937
C   C82       1.0  0.57810  0.99730  0.41710  1.0000 -0.1092733937
C   C83       1.0  0.42190  0.49730  0.58290  1.0000 -0.1092733937
C   C84       1.0  0.07810  0.50270  0.08290  1.0000 -0.1092733937
C   C85       1.0  0.07810  0.99730  0.08290  1.0000 -0.1092733937
C   C86       1.0  0.42190  0.00270  0.58290  1.0000 -0.1092733937
C   C87       1.0  0.57810  0.50270  0.41710  1.0000 -0.1092733937
C   C88       1.0  0.92190  0.49730  0.91710  1.0000 -0.1092733937
C   C89       1.0  0.89500  0.97220  0.96410  1.0000 -0.1092733937
C   C90       1.0  0.60500  0.02780  0.46410  1.0000 -0.1092733937
C   C91       1.0  0.39500  0.52780  0.53590  1.0000 -0.1092733937
C   C92       1.0  0.10500  0.47220  0.03590  1.0000 -0.1092733937
C   C93       1.0  0.10500  0.02780  0.03590  1.0000 -0.1092733937
C   C94       1.0  0.39500  0.97220  0.53590  1.0000 -0.1092733937
C   C95       1.0  0.60500  0.47220  0.46410  1.0000 -0.1092733937
C   C96       1.0  0.89500  0.52780  0.96410  1.0000 -0.1092733937
C   C97       1.0  0.80990  0.97300  0.97950  1.0000 -0.0943780557
C   C98       1.0  0.69010  0.02700  0.47950  1.0000 -0.0943780557
C   C99       1.0  0.30990  0.52700  0.52050  1.0000 -0.0943780557
C   C100      1.0  0.19010  0.47300  0.02050  1.0000 -0.0943780557
C   C101      1.0  0.19010  0.02700  0.02050  1.0000 -0.0943780557
C   C102      1.0  0.30990  0.97300  0.52050  1.0000 -0.0943780557
C   C103      1.0  0.69010  0.47300  0.47950  1.0000 -0.0943780557
C   C104      1.0  0.80990  0.52700  0.97950  1.0000 -0.0943780557
C   C105      1.0  0.74970  0.01020  0.95200  1.0000 -0.0273316613
C   C106      1.0  0.75030  0.98980  0.45200  1.0000 -0.0273316613
C   C107      1.0  0.24970  0.48980  0.54800  1.0000 -0.0273316613
C   C108      1.0  0.25030  0.51020  0.04800  1.0000 -0.0273316613
C   C109      1.0  0.25030  0.98980  0.04800  1.0000 -0.0273316613
C   C110      1.0  0.24970  0.01020  0.54800  1.0000 -0.0273316613
C   C111      1.0  0.75030  0.51020  0.45200  1.0000 -0.0273316613
C   C112      1.0  0.74970  0.48980  0.95200  1.0000 -0.0273316613
C   C113      1.0  0.77470  0.04490  0.90650  1.0000 -0.1092733937
C   C114      1.0  0.72530  0.95510  0.40650  1.0000 -0.1092733937
C   C115      1.0  0.27470  0.45510  0.59350  1.0000 -0.1092733937
C   C116      1.0  0.22530  0.54490  0.09350  1.0000 -0.1092733937
C   C117      1.0  0.22530  0.95510  0.09350  1.0000 -0.1092733937
C   C118      1.0  0.27470  0.04490  0.59350  1.0000 -0.1092733937
C   C119      1.0  0.72530  0.54490  0.40650  1.0000 -0.1092733937
C   C120      1.0  0.77470  0.45510  0.90650  1.0000 -0.1092733937
C   C121      1.0  0.65800  0.01180  0.96940  1.0000 0.5791586641
C   C122      1.0  0.84200  0.98820  0.46940  1.0000 0.5791586641
C   C123      1.0  0.15800  0.48820  0.53060  1.0000 0.5791586641
C   C124      1.0  0.34200  0.51180  0.03060  1.0000 0.5791586641
C   C125      1.0  0.34200  0.98820  0.03060  1.0000 0.5791586641
C   C126      1.0  0.15800  0.01180  0.53060  1.0000 0.5791586641
C   C127      1.0  0.84200  0.51180  0.46940  1.0000 0.5791586641
C   C128      1.0  0.65800  0.48820  0.96940  1.0000 0.5791586641
C   C129      1.0  0.66770  0.12130  0.70550  1.0000 -0.5295029503
C   C130      1.0  0.83230  0.87870  0.20550  1.0000 -0.5295029503
C   C131      1.0  0.16770  0.37870  0.79450  1.0000 -0.5295029503
C   C132      1.0  0.33230  0.62130  0.29450  1.0000 -0.5295029503
C   C133      1.0  0.33230  0.87870  0.29450  1.0000 -0.5295029503
C   C134      1.0  0.16770  0.12130  0.79450  1.0000 -0.5295029503
C   C135      1.0  0.83230  0.62130  0.20550  1.0000 -0.5295029503
C   C136      1.0  0.66770  0.37870  0.70550  1.0000 -0.5295029503
C   C137      1.0  0.64000  0.19530  0.70870  1.0000 0.3886906404
C   C138      1.0  0.86000  0.80470  0.20870  1.0000 0.3886906404
C   C139      1.0  0.14000  0.30470  0.79130  1.0000 0.3886906404
C   C140      1.0  0.36000  0.69530  0.29130  1.0000 0.3886906404
C   C141      1.0  0.36000  0.80470  0.29130  1.0000 0.3886906404
C   C142      1.0  0.14000  0.19530  0.79130  1.0000 0.3886906404
C   C143      1.0  0.86000  0.69530  0.20870  1.0000 0.3886906404
C   C144      1.0  0.64000  0.30470  0.70870  1.0000 0.3886906404
N   N1        1.0  0.93250  0.13070  0.69668  1.0000 -0.2857646194
N   N2        1.0  0.56750  0.86930  0.19668  1.0000 -0.2857646194
N   N3        1.0  0.43250  0.36930  0.80332  1.0000 -0.2857646194
N   N4        1.0  0.06750  0.63070  0.30332  1.0000 -0.2843165841
N   N5        1.0  0.06750  0.86930  0.30332  1.0000 -0.2843165841
N   N6        1.0  0.43250  0.13070  0.80332  1.0000 -0.2857646194
N   N7        1.0  0.56750  0.63070  0.19668  1.0000 -0.2857646194
N   N8        1.0  0.93250  0.36930  0.69668  1.0000 -0.2857646194
N   N9        1.0  0.87320  0.16560  0.66595  1.0000 -0.2857646194
N   N10       1.0  0.62680  0.83440  0.16595  1.0000 -0.2843165841
N   N11       1.0  0.37320  0.33440  0.83405  1.0000 -0.2843165841
N   N12       1.0  0.12680  0.66560  0.33405  1.0000 -0.2843165841
N   N13       1.0  0.12680  0.83440  0.33405  1.0000 -0.2843165841
N   N14       1.0  0.37320  0.16560  0.83405  1.0000 -0.2857646194
N   N15       1.0  0.62680  0.66560  0.16595  1.0000 -0.2843165841
N   N16       1.0  0.87320  0.33440  0.66595  1.0000 -0.2843165841
N   N17       1.0  0.93360  0.08460  0.61660  1.0000 -0.401577219
N   N18       1.0  0.56640  0.91540  0.11660  1.0000 -0.401577219
N   N19       1.0  0.43360  0.41540  0.88340  1.0000 -0.401577219
N   N20       1.0  0.06640  0.58460  0.38340  1.0000 -0.401577219
N   N21       1.0  0.06640  0.91540  0.38340  1.0000 -0.401577219
N   N22       1.0  0.43360  0.08460  0.88340  1.0000 -0.401577219
N   N23       1.0  0.56640  0.58460  0.11660  1.0000 -0.401577219
N   N24       1.0  0.93360  0.41540  0.61660  1.0000 -0.401577219
N   N25       1.0  0.55950  0.21470  0.71890  1.0000 -0.2545286749
N   N26       1.0  0.94050  0.78530  0.21890  1.0000 -0.2545286749
N   N27       1.0  0.05950  0.28530  0.78110  1.0000 -0.2545286749
N   N28       1.0  0.44050  0.71470  0.28110  1.0000 -0.2545286749
N   N29       1.0  0.44050  0.78530  0.28110  1.0000 -0.2545286749
N   N30       1.0  0.05950  0.21470  0.78110  1.0000 -0.2545286749
N   N31       1.0  0.94050  0.71470  0.21890  1.0000 -0.2545286749
N   N32       1.0  0.55950  0.28530  0.71890  1.0000 -0.2545286749
N   N33       1.0  0.69180  0.25000  0.70200  1.0000 -0.4351841059
N   N34       1.0  0.80820  0.75000  0.20200  1.0000 -0.4346548464
N   N35       1.0  0.19180  0.25000  0.79800  1.0000 -0.4346548464
N   N36       1.0  0.30820  0.75000  0.29800  1.0000 -0.4346548464
O   O1        1.0  0.98760  0.12070  0.50060  1.0000 -0.5211230563
O   O2        1.0  0.51240  0.87930  0.00060  1.0000 -0.5211230563
O   O3        1.0  0.48760  0.37930  0.99940  1.0000 -0.5211230563
O   O4        1.0  0.01240  0.62070  0.49940  1.0000 -0.5211230563
O   O5        1.0  0.01240  0.87930  0.49940  1.0000 -0.5211230563
O   O6        1.0  0.48760  0.12070  0.99940  1.0000 -0.5211230563
O   O7        1.0  0.51240  0.62070  0.00060  1.0000 -0.5211230563
O   O8        1.0  0.98760  0.37930  0.50060  1.0000 -0.5211230563
O   O9        1.0  0.02050  0.06640  0.42610  1.0000 -0.5397790965
O   O10       1.0  0.47950  0.93360  0.92610  1.0000 -0.5397790965
O   O11       1.0  0.52050  0.43360  0.07390  1.0000 -0.5397790965
O   O12       1.0  0.97950  0.56640  0.57390  1.0000 -0.5397790965
O   O13       1.0  0.97950  0.93360  0.57390  1.0000 -0.5397790965
O   O14       1.0  0.52050  0.06640  0.07390  1.0000 -0.5397790965
O   O15       1.0  0.47950  0.56640  0.92610  1.0000 -0.5397790965
O   O16       1.0  0.02050  0.43360  0.42610  1.0000 -0.5397790965
O   O17       1.0  0.60470  0.03980  0.93860  1.0000 -0.5211230563
O   O18       1.0  0.89530  0.96020  0.43860  1.0000 -0.5211230563
O   O19       1.0  0.10470  0.46020  0.56140  1.0000 -0.5211230563
O   O20       1.0  0.39530  0.53980  0.06140  1.0000 -0.5211230563
O   O21       1.0  0.39530  0.96020  0.06140  1.0000 -0.5211230563
O   O22       1.0  0.10470  0.03980  0.56140  1.0000 -0.5211230563
O   O23       1.0  0.89530  0.53980  0.43860  1.0000 -0.5211230563
O   O24       1.0  0.60470  0.46020  0.93860  1.0000 -0.5211230563
O   O25       1.0  0.64090  0.98370  0.01296  1.0000 -0.5397790965
O   O26       1.0  0.85910  0.01630  0.51296  1.0000 -0.5397790965
O   O27       1.0  0.14090  0.51630  0.48704  1.0000 -0.5397790965
O   O28       1.0  0.35910  0.48370  0.98704  1.0000 -0.5397790965
O   O29       1.0  0.35910  0.01630  0.98704  1.0000 -0.5397790965
O   O30       1.0  0.14090  0.98370  0.48704  1.0000 -0.5397790965
O   O31       1.0  0.85910  0.48370  0.51296  1.0000 -0.5397790965
O   O32       1.0  0.64090  0.51630  0.01296  1.0000 -0.5397790965
O   O33       1.0  0.83290  0.11100  0.81320  1.0000 -0.4508321841
O   O34       1.0  0.66710  0.88900  0.31320  1.0000 -0.4508321841
O   O35       1.0  0.33290  0.38900  0.68680  1.0000 -0.4508321841
O   O36       1.0  0.16710  0.61100  0.18680  1.0000 -0.4508321841
O   O37       1.0  0.16710  0.88900  0.18680  1.0000 -0.4508321841
O   O38       1.0  0.33290  0.11100  0.68680  1.0000 -0.4508321841
O   O39       1.0  0.66710  0.61100  0.31320  1.0000 -0.4508321841
O   O40       1.0  0.83290  0.38900  0.81320  1.0000 -0.4508321841
O   O41       1.0  0.96080  0.08670  0.82820  1.0000 -0.4605750885
O   O42       1.0  0.53920  0.91330  0.32820  1.0000 -0.4605750885
O   O43       1.0  0.46080  0.41330  0.67180  1.0000 -0.4605750885
O   O44       1.0  0.03920  0.58670  0.17180  1.0000 -0.4605750885
O   O45       1.0  0.03920  0.91330  0.17180  1.0000 -0.4605750885
O   O46       1.0  0.46080  0.08670  0.67180  1.0000 -0.4605750885
O   O47       1.0  0.53920  0.58670  0.32820  1.0000 -0.4605750885
O   O48       1.0  0.96080  0.41330  0.82820  1.0000 -0.4605750885
O   O49       1.0  0.87490  0.25000  0.76630  1.0000 -0.7654406872
O   O50       1.0  0.62510  0.75000  0.26630  1.0000 -0.7654406872
O   O51       1.0  0.37490  0.25000  0.73370  1.0000 -0.7654406872
O   O52       1.0  0.12510  0.75000  0.23370  1.0000 -0.7654406872
