# DDEC6 charges by PACMAN v1.1 (https://github.com/mtap-research/PACMAN-charge/)
data_2012[Eu][nan]3[ASR]4
_chemical_formula_sum              "Eu8 H28 C56 N16 O48"
_cell_length_a       10.2064
_cell_length_b       11.2487
_cell_length_c       23.2345
_cell_angle_alpha    90
_cell_angle_beta     108.636
_cell_angle_gamma    90

_symmetry_space_group_name_H-M    "P 1"
_symmetry_Int_Tables_number       1

loop_
  _symmetry_equiv_pos_as_xyz
  'x, y, z'

loop_
  _atom_site_type_symbol
  _atom_site_label
  _atom_site_symmetry_multiplicity
  _atom_site_fract_x
  _atom_site_fract_y
  _atom_site_fract_z
  _atom_site_occupancy
  _atom_site_charge
Eu  Eu1       1.0  0.88576  0.81362  0.27492  1.0000 1.9512206331
Eu  Eu2       1.0  0.11424  0.31362  0.22508  1.0000 1.9512206331
Eu  Eu3       1.0  0.11424  0.18638  0.72508  1.0000 1.9512206331
Eu  Eu4       1.0  0.88576  0.68638  0.77492  1.0000 1.9512206331
Eu  Eu5       1.0  0.30549  0.91030  0.56438  1.0000 2.1731083408
Eu  Eu6       1.0  0.69451  0.41030  0.93562  1.0000 2.1731083408
Eu  Eu7       1.0  0.69451  0.08970  0.43562  1.0000 2.1731083408
Eu  Eu8       1.0  0.30549  0.58970  0.06438  1.0000 2.1731083408
H   H1        1.0  0.46700  0.90500  0.33600  1.0000 0.2861569836
H   H2        1.0  0.53300  0.40500  0.16400  1.0000 0.2861569836
H   H3        1.0  0.53300  0.09500  0.66400  1.0000 0.2861569836
H   H4        1.0  0.46700  0.59500  0.83600  1.0000 0.2861569836
H   H5        1.0  0.67390  0.60790  0.42530  1.0000 0.1449098266
H   H6        1.0  0.32610  0.10790  0.07470  1.0000 0.1449098266
H   H7        1.0  0.32610  0.39210  0.57470  1.0000 0.1449098266
H   H8        1.0  0.67390  0.89210  0.92530  1.0000 0.1449098266
H   H9        1.0  0.81480  0.62290  0.41250  1.0000 0.1597649917
H   H10       1.0  0.18520  0.12290  0.08750  1.0000 0.1597649917
H   H11       1.0  0.18520  0.37710  0.58750  1.0000 0.1597649917
H   H12       1.0  0.81480  0.87710  0.91250  1.0000 0.1597649917
H   H13       1.0  0.72400  0.73470  0.41370  1.0000 0.1597649917
H   H14       1.0  0.27600  0.23470  0.08630  1.0000 0.1597649917
H   H15       1.0  0.27600  0.26530  0.58630  1.0000 0.1597649917
H   H16       1.0  0.72400  0.76530  0.91370  1.0000 0.1597649917
H   H17       1.0  0.34800  0.85680  0.22810  1.0000 0.1531738504
H   H18       1.0  0.65200  0.35680  0.27190  1.0000 0.1531738504
H   H19       1.0  0.65200  0.14320  0.77190  1.0000 0.1531738504
H   H20       1.0  0.34800  0.64320  0.72810  1.0000 0.1531738504
H   H21       1.0  0.22180  0.76940  0.21300  1.0000 0.1732481658
H   H22       1.0  0.77820  0.26940  0.28700  1.0000 0.1732481658
H   H23       1.0  0.77820  0.23060  0.78700  1.0000 0.1732481658
H   H24       1.0  0.22180  0.73060  0.71300  1.0000 0.1732481658
H   H25       1.0  0.19680  0.90700  0.20680  1.0000 0.1732481658
H   H26       1.0  0.80320  0.40700  0.29320  1.0000 0.1732481658
H   H27       1.0  0.80320  0.09300  0.79320  1.0000 0.1732481658
H   H28       1.0  0.19680  0.59300  0.70680  1.0000 0.1732481658
C   C1        1.0  0.64880  0.63810  0.33620  1.0000 0.4421632565
C   C2        1.0  0.35120  0.13810  0.16380  1.0000 0.4421632565
C   C3        1.0  0.35120  0.36190  0.66380  1.0000 0.4421632565
C   C4        1.0  0.64880  0.86190  0.83620  1.0000 0.4421632565
C   C5        1.0  0.49270  0.57360  0.25140  1.0000 -0.0041130171
C   C6        1.0  0.50730  0.07360  0.24860  1.0000 -0.0041130171
C   C7        1.0  0.50730  0.42640  0.74860  1.0000 -0.0041130171
C   C8        1.0  0.49270  0.92640  0.75140  1.0000 -0.0041130171
C   C9        1.0  0.58670  0.64730  0.23860  1.0000 -0.0221558536
C   C10       1.0  0.41330  0.14730  0.26140  1.0000 -0.0221558536
C   C11       1.0  0.41330  0.35270  0.76140  1.0000 -0.0221558536
C   C12       1.0  0.58670  0.85270  0.73860  1.0000 -0.0221558536
C   C13       1.0  0.72200  0.65220  0.40290  1.0000 -0.4684432582
C   C14       1.0  0.27800  0.15220  0.09710  1.0000 -0.4684432582
C   C15       1.0  0.27800  0.34780  0.59710  1.0000 -0.4684432582
C   C16       1.0  0.72200  0.84780  0.90290  1.0000 -0.4684432582
C   C17       1.0  0.37530  0.49700  0.21630  1.0000 0.6062358036
C   C18       1.0  0.62470  0.99700  0.28370  1.0000 0.6062358036
C   C19       1.0  0.62470  0.50300  0.78370  1.0000 0.6062358036
C   C20       1.0  0.37530  0.00300  0.71630  1.0000 0.6062358036
C   C21       1.0  0.60060  0.68760  0.17990  1.0000 0.6326362207
C   C22       1.0  0.39940  0.18760  0.32010  1.0000 0.6326362207
C   C23       1.0  0.39940  0.31240  0.82010  1.0000 0.6326362207
C   C24       1.0  0.60060  0.81240  0.67990  1.0000 0.6326362207
C   C25       1.0  0.25830  0.85120  0.29410  1.0000 0.4421632565
C   C26       1.0  0.74170  0.35120  0.20590  1.0000 0.4421632565
C   C27       1.0  0.74170  0.14880  0.70590  1.0000 0.4421632565
C   C28       1.0  0.25830  0.64880  0.79410  1.0000 0.4421632565
C   C29       1.0  0.34530  0.87010  0.39430  1.0000 0.0031610064
C   C30       1.0  0.65470  0.37010  0.10570  1.0000 0.0031610064
C   C31       1.0  0.65470  0.12990  0.60570  1.0000 0.0031610064
C   C32       1.0  0.34530  0.62990  0.89430  1.0000 0.0031610064
C   C33       1.0  0.20420  0.85060  0.37700  1.0000 0.016239395
C   C34       1.0  0.79580  0.35060  0.12300  1.0000 0.016239395
C   C35       1.0  0.79580  0.14940  0.62300  1.0000 0.016239395
C   C36       1.0  0.20420  0.64940  0.87700  1.0000 0.016239395
C   C37       1.0  0.25600  0.84560  0.22980  1.0000 -0.5069270269
C   C38       1.0  0.74400  0.34560  0.27020  1.0000 -0.5069270269
C   C39       1.0  0.74400  0.15440  0.77020  1.0000 -0.5069270269
C   C40       1.0  0.25600  0.65440  0.72980  1.0000 -0.5069270269
C   C41       1.0  0.45990  0.88510  0.45220  1.0000 0.6495918795
C   C42       1.0  0.54010  0.38510  0.04780  1.0000 0.6495918795
C   C43       1.0  0.54010  0.11490  0.54780  1.0000 0.6495918795
C   C44       1.0  0.45990  0.61490  0.95220  1.0000 0.6495918795
C   C45       1.0  0.10750  0.84580  0.41320  1.0000 0.6495918795
C   C46       1.0  0.89250  0.34580  0.08680  1.0000 0.6495918795
C   C47       1.0  0.89250  0.15420  0.58680  1.0000 0.6495918795
C   C48       1.0  0.10750  0.65420  0.91320  1.0000 0.6495918795
C   C49       1.0  0.97790  0.04560  0.21490  1.0000 0.4734349563
C   C50       1.0  0.02210  0.54560  0.28510  1.0000 0.4734349563
C   C51       1.0  0.02210  0.95440  0.78510  1.0000 0.4734349563
C   C52       1.0  0.97790  0.45440  0.71490  1.0000 0.4734349563
C   C53       1.0  0.98200  0.09170  0.27810  1.0000 0.4764426365
C   C54       1.0  0.01800  0.59170  0.22190  1.0000 0.4764426365
C   C55       1.0  0.01800  0.90830  0.72190  1.0000 0.4764426365
C   C56       1.0  0.98200  0.40830  0.77810  1.0000 0.4764426365
N   N1        1.0  0.53320  0.57000  0.31446  1.0000 -0.313421536
N   N2        1.0  0.46680  0.07000  0.18554  1.0000 -0.313421536
N   N3        1.0  0.46680  0.43000  0.68554  1.0000 -0.313421536
N   N4        1.0  0.53320  0.93000  0.81446  1.0000 -0.3153931484
N   N5        1.0  0.68410  0.68640  0.29132  1.0000 -0.4904258237
N   N6        1.0  0.31590  0.18640  0.20868  1.0000 -0.4904258237
N   N7        1.0  0.31590  0.31360  0.70868  1.0000 -0.4904258237
N   N8        1.0  0.68410  0.81360  0.79132  1.0000 -0.4904258237
N   N9        1.0  0.37650  0.87030  0.34085  1.0000 -0.2651365534
N   N10       1.0  0.62350  0.37030  0.15915  1.0000 -0.2651365534
N   N11       1.0  0.62350  0.12970  0.65915  1.0000 -0.2651365534
N   N12       1.0  0.37650  0.62970  0.84085  1.0000 -0.2651365534
N   N13       1.0  0.15220  0.83970  0.31454  1.0000 -0.4684432582
N   N14       1.0  0.84780  0.33970  0.18546  1.0000 -0.4684432582
N   N15       1.0  0.84780  0.16030  0.68546  1.0000 -0.4684432582
N   N16       1.0  0.15220  0.66030  0.81454  1.0000 -0.4684432582
O   O1        1.0  0.31880  0.44010  0.24860  1.0000 -0.5710257054
O   O2        1.0  0.68120  0.94010  0.25140  1.0000 -0.5710257054
O   O3        1.0  0.68120  0.55990  0.75140  1.0000 -0.5710257054
O   O4        1.0  0.31880  0.05990  0.74860  1.0000 -0.5710257054
O   O5        1.0  0.34550  0.48900  0.16011  1.0000 -0.6777115598
O   O6        1.0  0.65450  0.98900  0.33989  1.0000 -0.6777115598
O   O7        1.0  0.65450  0.51100  0.83989  1.0000 -0.6777115598
O   O8        1.0  0.34550  0.01100  0.66011  1.0000 -0.6777115598
O   O9        1.0  0.50910  0.66440  0.13103  1.0000 -0.6602690801
O   O10       1.0  0.49090  0.16440  0.36897  1.0000 -0.6602690801
O   O11       1.0  0.49090  0.33560  0.86897  1.0000 -0.6602690801
O   O12       1.0  0.50910  0.83560  0.63103  1.0000 -0.6602690801
O   O13       1.0  0.70750  0.74630  0.18284  1.0000 -0.5482062484
O   O14       1.0  0.29250  0.24630  0.31716  1.0000 -0.5482062484
O   O15       1.0  0.29250  0.25370  0.81716  1.0000 -0.5482062484
O   O16       1.0  0.70750  0.75370  0.68284  1.0000 -0.5482062484
O   O17       1.0  0.57460  0.91450  0.44573  1.0000 -0.6777115598
O   O18       1.0  0.42540  0.41450  0.05427  1.0000 -0.6777115598
O   O19       1.0  0.42540  0.08550  0.55427  1.0000 -0.6777115598
O   O20       1.0  0.57460  0.58550  0.94573  1.0000 -0.6777115598
O   O21       1.0  0.44360  0.86380  0.50177  1.0000 -0.5958813638
O   O22       1.0  0.55640  0.36380  0.99823  1.0000 -0.5958813638
O   O23       1.0  0.55640  0.13620  0.49823  1.0000 -0.5958813638
O   O24       1.0  0.44360  0.63620  0.00177  1.0000 -0.5958813638
O   O25       1.0  0.14880  0.86800  0.46857  1.0000 -0.6934152827
O   O26       1.0  0.85120  0.36800  0.03143  1.0000 -0.6934152827
O   O27       1.0  0.85120  0.13200  0.53143  1.0000 -0.6934152827
O   O28       1.0  0.14880  0.63200  0.96857  1.0000 -0.6934152827
O   O29       1.0  0.98180  0.82290  0.38431  1.0000 -0.5958813638
O   O30       1.0  0.01820  0.32290  0.11569  1.0000 -0.5958813638
O   O31       1.0  0.01820  0.17710  0.61569  1.0000 -0.5958813638
O   O32       1.0  0.98180  0.67710  0.88431  1.0000 -0.5958813638
O   O33       1.0  0.02480  0.11390  0.18353  1.0000 -0.5710257054
O   O34       1.0  0.97520  0.61390  0.31647  1.0000 -0.5710257054
O   O35       1.0  0.97520  0.88610  0.81647  1.0000 -0.5710257054
O   O36       1.0  0.02480  0.38610  0.68353  1.0000 -0.5710257054
O   O37       1.0  0.92900  0.94380  0.19968  1.0000 -0.539156644
O   O38       1.0  0.07100  0.44380  0.30032  1.0000 -0.539156644
O   O39       1.0  0.07100  0.05620  0.80032  1.0000 -0.539156644
O   O40       1.0  0.92900  0.55620  0.69968  1.0000 -0.539156644
O   O41       1.0  0.02150  0.19630  0.29122  1.0000 -0.5482062484
O   O42       1.0  0.97850  0.69630  0.20878  1.0000 -0.5482062484
O   O43       1.0  0.97850  0.80370  0.70878  1.0000 -0.5482062484
O   O44       1.0  0.02150  0.30370  0.79122  1.0000 -0.5482062484
O   O45       1.0  0.94470  0.02120  0.31139  1.0000 -0.5482062484
O   O46       1.0  0.05530  0.52120  0.18861  1.0000 -0.5482062484
O   O47       1.0  0.05530  0.97880  0.68861  1.0000 -0.5482062484
O   O48       1.0  0.94470  0.47880  0.81139  1.0000 -0.5482062484
