# DDEC6 charges by PACMAN v1.1 (https://github.com/mtap-research/PACMAN-charge/)
data_2012[Ce][nan]3[ASR]3
_chemical_formula_sum              "Ce4 H16 C20 O32"
_cell_length_a       6.0997
_cell_length_b       7.6528
_cell_length_c       22.533
_cell_angle_alpha    90
_cell_angle_beta     91.606
_cell_angle_gamma    90

_symmetry_space_group_name_H-M    "P 1"
_symmetry_Int_Tables_number       1

loop_
  _symmetry_equiv_pos_as_xyz
  'x, y, z'

loop_
  _atom_site_type_symbol
  _atom_site_label
  _atom_site_symmetry_multiplicity
  _atom_site_fract_x
  _atom_site_fract_y
  _atom_site_fract_z
  _atom_site_occupancy
  _atom_site_charge
Ce  Ce1       1.0  0.54512  0.50171  0.85391  1.0000 1.8695186834
Ce  Ce2       1.0  0.45488  0.00171  0.64609  1.0000 1.8695186834
Ce  Ce3       1.0  0.45488  0.49829  0.14609  1.0000 1.8695186834
Ce  Ce4       1.0  0.54512  0.99829  0.35391  1.0000 1.8695186834
H   H1        1.0  0.44000  0.12500  0.88370  1.0000 0.3508659612
H   H2        1.0  0.56000  0.62500  0.61630  1.0000 0.3508659612
H   H3        1.0  0.56000  0.87500  0.11630  1.0000 0.3508659612
H   H4        1.0  0.44000  0.37500  0.38370  1.0000 0.3508659612
H   H5        1.0  0.30200  0.22800  0.74190  1.0000 0.3360238534
H   H6        1.0  0.69800  0.72800  0.75810  1.0000 0.3360238534
H   H7        1.0  0.69800  0.77200  0.25810  1.0000 0.3360238534
H   H8        1.0  0.30200  0.27200  0.24190  1.0000 0.3360238534
H   H9        1.0  0.12590  0.06440  0.87470  1.0000 0.1293865826
H   H10       1.0  0.87410  0.56440  0.62530  1.0000 0.1293865826
H   H11       1.0  0.87410  0.93560  0.12530  1.0000 0.1293865826
H   H12       1.0  0.12590  0.43560  0.37470  1.0000 0.1293865826
H   H13       1.0  0.04100  0.97800  0.78010  1.0000 0.1293865826
H   H14       1.0  0.95900  0.47800  0.71990  1.0000 0.1293865826
H   H15       1.0  0.95900  0.02200  0.21990  1.0000 0.1293865826
H   H16       1.0  0.04100  0.52200  0.28010  1.0000 0.1293865826
C   C1        1.0  0.04680  0.30570  0.84011  1.0000 0.5975092511
C   C2        1.0  0.95320  0.80570  0.65989  1.0000 0.5975092511
C   C3        1.0  0.95320  0.69430  0.15989  1.0000 0.5975092511
C   C4        1.0  0.04680  0.19430  0.34011  1.0000 0.5975092511
C   C5        1.0  0.18230  0.13930  0.84330  1.0000 -0.0113527892
C   C6        1.0  0.81770  0.63930  0.65670  1.0000 -0.0113527892
C   C7        1.0  0.81770  0.86070  0.15670  1.0000 -0.0113527892
C   C8        1.0  0.18230  0.36070  0.34330  1.0000 -0.0113527892
C   C9        1.0  0.18370  0.03550  0.78552  1.0000 0.0127016392
C   C10       1.0  0.81630  0.53550  0.71448  1.0000 0.0127016392
C   C11       1.0  0.81630  0.96450  0.21448  1.0000 0.0127016392
C   C12       1.0  0.18370  0.46450  0.28552  1.0000 0.0127016392
C   C13       1.0  0.36110  0.89410  0.78871  1.0000 0.5975092511
C   C14       1.0  0.63890  0.39410  0.71129  1.0000 0.5975092511
C   C15       1.0  0.63890  0.10590  0.21129  1.0000 0.5975092511
C   C16       1.0  0.36110  0.60590  0.28871  1.0000 0.5975092511
C   C17       1.0  0.58210  0.42420  0.00133  1.0000 0.4976047289
C   C18       1.0  0.41790  0.92420  0.49867  1.0000 0.4976047289
C   C19       1.0  0.41790  0.57580  0.99867  1.0000 0.4976047289
C   C20       1.0  0.58210  0.07580  0.50133  1.0000 0.4976047289
O   O1        1.0  0.84620  0.28930  0.83336  1.0000 -0.5774486948
O   O2        1.0  0.15380  0.78930  0.66667  1.0000 -0.5774486948
O   O3        1.0  0.15380  0.71070  0.16664  1.0000 -0.5774486948
O   O4        1.0  0.84620  0.21070  0.33333  1.0000 -0.5774486948
O   O5        1.0  0.14560  0.44730  0.84532  1.0000 -0.5774486948
O   O6        1.0  0.85440  0.94730  0.65468  1.0000 -0.5774486948
O   O7        1.0  0.85440  0.55270  0.15468  1.0000 -0.5774486948
O   O8        1.0  0.14560  0.05270  0.34532  1.0000 -0.5774486948
O   O9        1.0  0.39990  0.18600  0.85829  1.0000 -0.477536096
O   O10       1.0  0.60010  0.68600  0.64171  1.0000 -0.477536096
O   O11       1.0  0.60010  0.81400  0.14171  1.0000 -0.477536096
O   O12       1.0  0.39990  0.31400  0.35829  1.0000 -0.477536096
O   O13       1.0  0.22030  0.14030  0.73470  1.0000 -0.5256593365
O   O14       1.0  0.77970  0.64030  0.76530  1.0000 -0.5256593365
O   O15       1.0  0.77970  0.85970  0.26530  1.0000 -0.5256593365
O   O16       1.0  0.22030  0.35970  0.23470  1.0000 -0.5256593365
O   O17       1.0  0.35040  0.78680  0.82974  1.0000 -0.568546905
O   O18       1.0  0.64960  0.28680  0.67026  1.0000 -0.568546905
O   O19       1.0  0.64960  0.21320  0.17026  1.0000 -0.568546905
O   O20       1.0  0.35040  0.71320  0.32974  1.0000 -0.568546905
O   O21       1.0  0.51110  0.89800  0.74922  1.0000 -0.6426167626
O   O22       1.0  0.48890  0.39800  0.75078  1.0000 -0.6426167626
O   O23       1.0  0.48890  0.10200  0.25078  1.0000 -0.6426167626
O   O24       1.0  0.51110  0.60200  0.24922  1.0000 -0.6426167626
O   O25       1.0  0.66150  0.36940  0.95368  1.0000 -0.6008964319
O   O26       1.0  0.33850  0.86940  0.54632  1.0000 -0.6008964319
O   O27       1.0  0.33850  0.63060  0.04632  1.0000 -0.6008964319
O   O28       1.0  0.66150  0.13060  0.45368  1.0000 -0.6008964319
O   O29       1.0  0.62330  0.36810  0.05176  1.0000 -0.539000823
O   O30       1.0  0.37670  0.86810  0.44824  1.0000 -0.539000823
O   O31       1.0  0.37670  0.63190  0.94824  1.0000 -0.539000823
O   O32       1.0  0.62330  0.13190  0.55176  1.0000 -0.539000823
