# DDEC6 charges by PACMAN v1.1 (https://github.com/mtap-research/PACMAN-charge/)
data_2012[Cu][crs]3[ASR]1
_chemical_formula_sum              "Cu8 H96 C88 N16 O24"
_cell_length_a       14.5262
_cell_length_b       14.5262
_cell_length_c       14.5262
_cell_angle_alpha    105.879
_cell_angle_beta     105.879
_cell_angle_gamma    116.923

_symmetry_space_group_name_H-M    "P 1"
_symmetry_Int_Tables_number       1

loop_
  _symmetry_equiv_pos_as_xyz
  'x, y, z'

loop_
  _atom_site_type_symbol
  _atom_site_label
  _atom_site_symmetry_multiplicity
  _atom_site_fract_x
  _atom_site_fract_y
  _atom_site_fract_z
  _atom_site_occupancy
  _atom_site_charge
Cu  Cu1       1.0  0.12951  0.79635  0.66220  1.0000 0.7848746698
Cu  Cu2       1.0  0.13415  0.46731  0.33780  1.0000 0.7848746698
Cu  Cu3       1.0  0.71731  0.87951  0.83316  1.0000 0.7854558747
Cu  Cu4       1.0  0.04635  0.88415  0.16684  1.0000 0.7848746698
Cu  Cu5       1.0  0.12049  0.95365  0.83780  1.0000 0.7848746698
Cu  Cu6       1.0  0.11585  0.28269  0.16220  1.0000 0.7854558747
Cu  Cu7       1.0  0.53269  0.87049  0.66684  1.0000 0.7854558747
Cu  Cu8       1.0  0.20365  0.86585  0.33316  1.0000 0.7848746698
H   H1        1.0  0.38510  0.03100  0.89110  1.0000 0.1092594715
H   H2        1.0  0.13990  0.49400  0.10890  1.0000 0.1092594715
H   H3        1.0  0.74400  0.13510  0.85410  1.0000 0.1092594715
H   H4        1.0  0.28100  0.88990  0.14590  1.0000 0.1092594715
H   H5        1.0  0.86490  0.71900  0.60890  1.0000 0.1092594715
H   H6        1.0  0.11010  0.25600  0.39110  1.0000 0.1092594715
H   H7        1.0  0.50600  0.61490  0.64590  1.0000 0.1092594715
H   H8        1.0  0.96900  0.86010  0.35410  1.0000 0.1092594715
H   H9        1.0  0.55780  0.21150  0.92710  1.0000 0.1235327269
H   H10       1.0  0.28440  0.63070  0.07290  1.0000 0.1235327269
H   H11       1.0  0.88070  0.30780  0.84630  1.0000 0.1235327269
H   H12       1.0  0.46150  0.03440  0.15370  1.0000 0.1235327269
H   H13       1.0  0.69220  0.53850  0.57290  1.0000 0.1235327269
H   H14       1.0  0.96560  0.11930  0.42710  1.0000 0.1235327269
H   H15       1.0  0.36930  0.44220  0.65370  1.0000 0.1235327269
H   H16       1.0  0.78850  0.71560  0.34630  1.0000 0.1235327269
H   H17       1.0  0.63540  0.37580  0.90380  1.0000 0.1092594715
H   H18       1.0  0.47200  0.73160  0.09620  1.0000 0.1092594715
H   H19       1.0  0.98160  0.38540  0.75960  1.0000 0.1092594715
H   H20       1.0  0.62580  0.22200  0.24040  1.0000 0.1092594715
H   H21       1.0  0.61460  0.37420  0.59620  1.0000 0.1092594715
H   H22       1.0  0.77800  0.01840  0.40380  1.0000 0.1092594715
H   H23       1.0  0.26840  0.36460  0.74040  1.0000 0.1092594715
H   H24       1.0  0.62420  0.52800  0.25960  1.0000 0.1092594715
H   H25       1.0  0.52580  0.38150  0.76250  1.0000 0.1092594715
H   H26       1.0  0.61900  0.76330  0.23750  1.0000 0.1092594715
H   H27       1.0  0.01330  0.27580  0.64430  1.0000 0.1092594715
H   H28       1.0  0.63150  0.36900  0.35570  1.0000 0.1092594715
H   H29       1.0  0.72420  0.36850  0.73750  1.0000 0.1092594715
H   H30       1.0  0.63100  0.98670  0.26250  1.0000 0.1092594715
H   H31       1.0  0.23670  0.47420  0.85570  1.0000 0.1092594715
H   H32       1.0  0.61850  0.38100  0.14430  1.0000 0.1092594715
H   H33       1.0  0.34140  0.22390  0.63990  1.0000 0.1092594715
H   H34       1.0  0.58400  0.70150  0.36010  1.0000 0.1092594715
H   H35       1.0  0.95150  0.09140  0.61750  1.0000 0.1092594715
H   H36       1.0  0.47390  0.33400  0.38250  1.0000 0.1092594715
H   H37       1.0  0.90860  0.52610  0.86010  1.0000 0.1092594715
H   H38       1.0  0.66600  0.04850  0.13990  1.0000 0.1092594715
H   H39       1.0  0.29850  0.65860  0.88250  1.0000 0.1092594715
H   H40       1.0  0.77610  0.41600  0.11750  1.0000 0.1092594715
H   H41       1.0  0.25920  0.05650  0.66210  1.0000 0.1296151202
H   H42       1.0  0.39440  0.59710  0.33790  1.0000 0.1296151202
H   H43       1.0  0.84710  0.00920  0.70270  1.0000 0.1296151202
H   H44       1.0  0.30650  0.14440  0.29730  1.0000 0.1296151202
H   H45       1.0  0.99080  0.69350  0.83790  1.0000 0.1296151202
H   H46       1.0  0.85560  0.15290  0.16210  1.0000 0.1296151202
H   H47       1.0  0.40290  0.74080  0.79730  1.0000 0.1296151202
H   H48       1.0  0.94350  0.60560  0.20270  1.0000 0.1296151202
H   H49       1.0  0.18850  0.64640  0.54730  1.0000 0.1235327269
H   H50       1.0  0.09910  0.64120  0.45270  1.0000 0.1235327269
H   H51       1.0  0.89120  0.93850  0.04210  1.0000 0.1235327269
H   H52       1.0  0.89640  0.84910  0.95790  1.0000 0.1235327269
H   H53       1.0  0.06150  0.10360  0.95270  1.0000 0.1235327269
H   H54       1.0  0.15090  0.10880  0.04730  1.0000 0.1235327269
H   H55       1.0  0.35880  0.81150  0.45790  1.0000 0.1235327269
H   H56       1.0  0.35360  0.90090  0.54210  1.0000 0.1235327269
H   H57       1.0  0.91200  0.59130  0.44270  1.0000 0.1092594715
H   H58       1.0  0.14860  0.46930  0.55730  1.0000 0.1092594715
H   H59       1.0  0.71930  0.66200  0.82070  1.0000 0.1092594715
H   H60       1.0  0.84130  0.89860  0.17930  1.0000 0.1092594715
H   H61       1.0  0.33800  0.15870  0.05730  1.0000 0.1092594715
H   H62       1.0  0.10140  0.28070  0.94270  1.0000 0.1092594715
H   H63       1.0  0.53070  0.08800  0.67930  1.0000 0.1092594715
H   H64       1.0  0.40870  0.85140  0.32070  1.0000 0.1092594715
H   H65       1.0  0.88010  0.56540  0.53170  1.0000 0.0994084808
H   H66       1.0  0.03370  0.34840  0.46830  1.0000 0.0994084808
H   H67       1.0  0.59840  0.63010  0.81470  1.0000 0.0994084808
H   H68       1.0  0.81540  0.78370  0.18530  1.0000 0.0994084808
H   H69       1.0  0.36990  0.18460  0.96830  1.0000 0.0994084808
H   H70       1.0  0.21630  0.40160  0.03170  1.0000 0.0994084808
H   H71       1.0  0.65160  0.11990  0.68530  1.0000 0.0994084808
H   H72       1.0  0.43460  0.96630  0.31470  1.0000 0.0994084808
H   H73       1.0  0.02000  0.57380  0.68020  1.0000 0.0994084808
H   H74       1.0  0.89360  0.33980  0.31980  1.0000 0.0994084808
H   H75       1.0  0.58980  0.77000  0.94620  1.0000 0.0994084808
H   H76       1.0  0.82380  0.64360  0.05380  1.0000 0.0994084808
H   H77       1.0  0.23000  0.17620  0.81980  1.0000 0.0994084808
H   H78       1.0  0.35640  0.41020  0.18020  1.0000 0.0994084808
H   H79       1.0  0.66020  0.98000  0.55380  1.0000 0.0994084808
H   H80       1.0  0.42620  0.10640  0.44620  1.0000 0.0994084808
H   H81       1.0  0.14040  0.60500  0.68520  1.0000 0.1092594715
H   H82       1.0  0.91980  0.45520  0.31480  1.0000 0.1092594715
H   H83       1.0  0.70520  0.89040  0.03540  1.0000 0.1092594715
H   H84       1.0  0.85500  0.66980  0.96460  1.0000 0.1092594715
H   H85       1.0  0.10960  0.14500  0.81480  1.0000 0.1092594715
H   H86       1.0  0.33020  0.29480  0.18520  1.0000 0.1092594715
H   H87       1.0  0.54480  0.85960  0.46460  1.0000 0.1092594715
H   H88       1.0  0.39500  0.08020  0.53540  1.0000 0.1092594715
H   H89       1.0  0.84950  0.30210  0.45800  1.0000 0.0994084808
H   H90       1.0  0.84410  0.39150  0.54200  1.0000 0.0994084808
H   H91       1.0  0.64150  0.59950  0.04740  1.0000 0.0994084808
H   H92       1.0  0.55210  0.59410  0.95260  1.0000 0.0994084808
H   H93       1.0  0.40050  0.44790  0.04200  1.0000 0.0994084808
H   H94       1.0  0.40590  0.35850  0.95800  1.0000 0.0994084808
H   H95       1.0  0.60850  0.15050  0.45260  1.0000 0.0994084808
H   H96       1.0  0.69790  0.15590  0.54740  1.0000 0.0994084808
C   C1        1.0  0.36799  0.92280  0.74967  1.0000 0.5475951354
C   C2        1.0  0.17313  0.61832  0.25033  1.0000 0.5475951354
C   C3        1.0  0.86832  0.11799  0.94519  1.0000 0.5475951354
C   C4        1.0  0.17280  0.92313  0.05481  1.0000 0.5475951354
C   C5        1.0  0.88201  0.82720  0.75033  1.0000 0.5475951354
C   C6        1.0  0.07687  0.13168  0.24967  1.0000 0.5475951354
C   C7        1.0  0.38168  0.63201  0.55481  1.0000 0.5475951354
C   C8        1.0  0.07720  0.82687  0.44519  1.0000 0.5475951354
C   C9        1.0  0.34661  0.00855  0.81414  1.0000 0.0048121815
C   C10       1.0  0.19441  0.53247  0.18586  1.0000 0.0048121815
C   C11       1.0  0.78247  0.09661  0.83806  1.0000 0.0052653067
C   C12       1.0  0.25855  0.94441  0.16194  1.0000 0.0048121815
C   C13       1.0  0.90339  0.74145  0.68586  1.0000 0.0048121815
C   C14       1.0  0.05559  0.21753  0.31414  1.0000 0.0048121815
C   C15       1.0  0.46753  0.65339  0.66194  1.0000 0.0048121815
C   C16       1.0  0.99145  0.80559  0.33806  1.0000 0.0048121815
C   C17       1.0  0.39958  0.11688  0.79810  1.0000 0.0668729073
C   C18       1.0  0.31878  0.60148  0.20190  1.0000 0.0668729073
C   C19       1.0  0.85148  0.14958  0.78270  1.0000 0.0668729073
C   C20       1.0  0.36688  0.06878  0.21730  1.0000 0.0668729073
C   C21       1.0  0.85042  0.63312  0.70190  1.0000 0.0668729073
C   C22       1.0  0.93122  0.14852  0.29810  1.0000 0.0668729073
C   C23       1.0  0.39852  0.60042  0.71730  1.0000 0.0668729073
C   C24       1.0  0.88312  0.68122  0.28270  1.0000 0.0668729073
C   C25       1.0  0.51280  0.21340  0.86920  1.0000 -0.165841586
C   C26       1.0  0.34420  0.64360  0.13080  1.0000 -0.165841586
C   C27       1.0  0.89360  0.26280  0.79940  1.0000 -0.165841586
C   C28       1.0  0.46340  0.09420  0.20060  1.0000 -0.165841586
C   C29       1.0  0.73720  0.53660  0.63080  1.0000 -0.165841586
C   C30       1.0  0.90580  0.10640  0.36920  1.0000 -0.165841586
C   C31       1.0  0.35640  0.48720  0.70060  1.0000 -0.165841586
C   C32       1.0  0.78660  0.65580  0.29940  1.0000 -0.165841586
C   C33       1.0  0.55950  0.31170  0.85540  1.0000 -0.1111761802
C   C34       1.0  0.45630  0.70410  0.14460  1.0000 -0.1111761802
C   C35       1.0  0.95410  0.30950  0.74780  1.0000 -0.1111761802
C   C36       1.0  0.56170  0.20630  0.25220  1.0000 -0.1111761802
C   C37       1.0  0.69050  0.43830  0.64460  1.0000 -0.1111761802
C   C38       1.0  0.79370  0.04590  0.35540  1.0000 -0.1111761802
C   C39       1.0  0.29590  0.44050  0.75220  1.0000 -0.1111761802
C   C40       1.0  0.68830  0.54370  0.24780  1.0000 -0.1111761802
C   C41       1.0  0.49450  0.31450  0.77100  1.0000 -0.1111761802
C   C42       1.0  0.54350  0.72350  0.22900  1.0000 -0.1111761802
C   C43       1.0  0.97350  0.24450  0.68000  1.0000 -0.1111761802
C   C44       1.0  0.56450  0.29350  0.32000  1.0000 -0.1111761802
C   C45       1.0  0.75550  0.43550  0.72900  1.0000 -0.1111761802
C   C46       1.0  0.70650  0.02650  0.27100  1.0000 -0.1111761802
C   C47       1.0  0.27650  0.50550  0.82000  1.0000 -0.1111761802
C   C48       1.0  0.68550  0.45650  0.18000  1.0000 -0.1111761802
C   C49       1.0  0.38430  0.22110  0.69840  1.0000 -0.1165468325
C   C50       1.0  0.52270  0.68590  0.30160  1.0000 -0.1165468325
C   C51       1.0  0.93590  0.13430  0.66320  1.0000 -0.1165468325
C   C52       1.0  0.47110  0.27270  0.33680  1.0000 -0.1165468325
C   C53       1.0  0.86570  0.52890  0.80160  1.0000 -0.1165468325
C   C54       1.0  0.72730  0.06410  0.19840  1.0000 -0.1165468325
C   C55       1.0  0.31410  0.61570  0.83680  1.0000 -0.1165468325
C   C56       1.0  0.77890  0.47730  0.16320  1.0000 -0.1165468325
C   C57       1.0  0.33490  0.12039  0.71149  1.0000 -0.1355697293
C   C58       1.0  0.40890  0.62341  0.28851  1.0000 -0.1355697293
C   C59       1.0  0.87341  0.08490  0.71451  1.0000 -0.1355697293
C   C60       1.0  0.37039  0.15890  0.28549  1.0000 -0.1355697293
C   C61       1.0  0.91510  0.62961  0.78851  1.0000 -0.1355697293
C   C62       1.0  0.84110  0.12659  0.21149  1.0000 -0.1355697293
C   C63       1.0  0.37659  0.66510  0.78549  1.0000 -0.1355697293
C   C64       1.0  0.87961  0.59110  0.21451  1.0000 -0.1355697293
C   C65       1.0  0.10620  0.60620  0.50000  1.0000 -0.0527186585
C   C66       1.0  0.85620  0.85620  0.00000  1.0000 -0.0527186585
C   C67       1.0  0.14380  0.14380  0.00000  1.0000 -0.0527186585
C   C68       1.0  0.39380  0.89380  0.50000  1.0000 -0.0527186585
C   C69       1.0  0.92098  0.55732  0.49058  1.0000 -0.0324475675
C   C70       1.0  0.06674  0.43040  0.50942  1.0000 -0.0324475675
C   C71       1.0  0.68040  0.67098  0.86366  1.0000 -0.0324475675
C   C72       1.0  0.80732  0.81674  0.13634  1.0000 -0.0324475675
C   C73       1.0  0.32902  0.19268  0.00942  1.0000 -0.0324475675
C   C74       1.0  0.18326  0.31960  0.99058  1.0000 -0.0324475675
C   C75       1.0  0.56960  0.07902  0.63634  1.0000 -0.0324475675
C   C76       1.0  0.44268  0.93326  0.36366  1.0000 -0.0324475675
C   C77       1.0  0.05860  0.56561  0.63663  1.0000 -0.0324475675
C   C78       1.0  0.92898  0.42197  0.36337  1.0000 -0.0324475675
C   C79       1.0  0.67197  0.80860  0.99299  1.0000 -0.0324475675
C   C80       1.0  0.81561  0.67898  0.00701  1.0000 -0.0324475675
C   C81       1.0  0.19140  0.18439  0.86337  1.0000 -0.0324475675
C   C82       1.0  0.32102  0.32803  0.13663  1.0000 -0.0324475675
C   C83       1.0  0.57803  0.94140  0.50701  1.0000 -0.0324475675
C   C84       1.0  0.43439  0.07102  0.49299  1.0000 -0.0324475675
C   C85       1.0  0.88430  0.38430  0.50000  1.0000 -0.0324475675
C   C86       1.0  0.63430  0.63430  0.00000  1.0000 -0.0366057385
C   C87       1.0  0.36570  0.36570  0.00000  1.0000 -0.0324475675
C   C88       1.0  0.61570  0.11570  0.50000  1.0000 -0.0324475675
N   N1        1.0  0.04731  0.62186  0.56621  1.0000 -0.165841586
N   N2        1.0  0.05565  0.48110  0.43379  1.0000 -0.165841586
N   N3        1.0  0.73110  0.79731  0.92545  1.0000 -0.165841586
N   N4        1.0  0.87186  0.80565  0.07455  1.0000 -0.1624447805
N   N5        1.0  0.20269  0.12814  0.93379  1.0000 -0.1624447805
N   N6        1.0  0.19435  0.26890  0.06621  1.0000 -0.1624447805
N   N7        1.0  0.51890  0.95269  0.57455  1.0000 -0.1624447805
N   N8        1.0  0.37814  0.94435  0.42545  1.0000 -0.1624447805
N   N9        1.0  0.86923  0.43429  0.42660  1.0000 -0.1624447805
N   N10       1.0  0.00769  0.44263  0.57340  1.0000 -0.1624447805
N   N11       1.0  0.69263  0.61923  0.93494  1.0000 -0.1624447805
N   N12       1.0  0.68429  0.75769  0.06506  1.0000 -0.1624447805
N   N13       1.0  0.38077  0.31571  0.07340  1.0000 -0.1624447805
N   N14       1.0  0.24231  0.30737  0.92660  1.0000 -0.1624447805
N   N15       1.0  0.55737  0.13077  0.56506  1.0000 -0.1624447805
N   N16       1.0  0.56571  0.99231  0.43494  1.0000 -0.1624447805
O   O1        1.0  0.27888  0.82483  0.67737  1.0000 -0.5204014708
O   O2        1.0  0.14746  0.60151  0.32263  1.0000 -0.5204014708
O   O3        1.0  0.85151  0.02888  0.95405  1.0000 -0.5204014708
O   O4        1.0  0.07483  0.89746  0.04595  1.0000 -0.5204014708
O   O5        1.0  0.97112  0.92517  0.82263  1.0000 -0.5204014708
O   O6        1.0  0.10254  0.14849  0.17737  1.0000 -0.5204014708
O   O7        1.0  0.39849  0.72112  0.54595  1.0000 -0.5204014708
O   O8        1.0  0.17517  0.85254  0.45405  1.0000 -0.5204014708
O   O9        1.0  0.46940  0.95457  0.77003  1.0000 -0.5631240388
O   O10       1.0  0.18454  0.69937  0.22997  1.0000 -0.5631240388
O   O11       1.0  0.94937  0.21940  0.01483  1.0000 -0.5631240388
O   O12       1.0  0.20457  0.93454  0.98517  1.0000 -0.5631240388
O   O13       1.0  0.78060  0.79543  0.72997  1.0000 -0.5631240388
O   O14       1.0  0.06546  0.05063  0.27003  1.0000 -0.5631240388
O   O15       1.0  0.30063  0.53060  0.48517  1.0000 -0.5631240388
O   O16       1.0  0.04543  0.81546  0.51483  1.0000 -0.5631240388
O   O17       1.0  0.22699  0.95390  0.77887  1.0000 -0.576894932
O   O18       1.0  0.17503  0.44812  0.22113  1.0000 -0.576894932
O   O19       1.0  0.69812  0.97699  0.77309  1.0000 -0.576894932
O   O20       1.0  0.20390  0.92503  0.22691  1.0000 -0.576894932
O   O21       1.0  0.02301  0.79610  0.72113  1.0000 -0.576894932
O   O22       1.0  0.07497  0.30188  0.27887  1.0000 -0.576894932
O   O23       1.0  0.55188  0.77301  0.72691  1.0000 -0.576894932
O   O24       1.0  0.04610  0.82497  0.27309  1.0000 -0.576894932
