# DDEC6 charges by PACMAN v1.1 (https://github.com/mtap-research/PACMAN-charge/)
data_2012[U][nan]3[ASR]2
_chemical_formula_sum              "U6 P8 H16 C8 O28"
_cell_length_a       12.9065
_cell_length_b       12.9065
_cell_length_c       9.5221
_cell_angle_alpha    90
_cell_angle_beta     90
_cell_angle_gamma    92.0207

_symmetry_space_group_name_H-M    "P 1"
_symmetry_Int_Tables_number       1

loop_
  _symmetry_equiv_pos_as_xyz
  'x, y, z'

loop_
  _atom_site_type_symbol
  _atom_site_label
  _atom_site_symmetry_multiplicity
  _atom_site_fract_x
  _atom_site_fract_y
  _atom_site_fract_z
  _atom_site_occupancy
  _atom_site_charge
U   U1        1.0  0.18074  0.59906  0.87864  1.0000 2.0484955221
U   U2        1.0  0.81926  0.40094  0.37864  1.0000 2.0484955221
U   U3        1.0  0.40094  0.81926  0.37864  1.0000 2.0484955221
U   U4        1.0  0.59906  0.18074  0.87864  1.0000 2.0556983064
U   U5        1.0  0.70696  0.70696  0.70493  1.0000 2.3970464776
U   U6        1.0  0.29304  0.29304  0.20493  1.0000 2.3970464776
P   P1        1.0  0.72968  0.42842  0.75120  1.0000 1.3066380928
P   P2        1.0  0.27032  0.57158  0.25120  1.0000 1.3066380928
P   P3        1.0  0.57158  0.27032  0.25120  1.0000 1.3066380928
P   P4        1.0  0.42842  0.72968  0.75120  1.0000 1.3066380928
P   P5        1.0  0.93021  0.53645  0.68400  1.0000 1.2605919252
P   P6        1.0  0.06979  0.46355  0.18400  1.0000 1.2605919252
P   P7        1.0  0.46355  0.06979  0.18400  1.0000 1.2605919252
P   P8        1.0  0.53645  0.93021  0.68400  1.0000 1.2605919252
H   H1        1.0  0.87300  0.28700  0.85000  1.0000 0.1070144633
H   H2        1.0  0.12700  0.71300  0.35000  1.0000 0.1070144633
H   H3        1.0  0.71300  0.12700  0.35000  1.0000 0.1070144633
H   H4        1.0  0.28700  0.87300  0.85000  1.0000 0.1070144633
H   H5        1.0  0.92600  0.31600  0.70000  1.0000 0.089895594
H   H6        1.0  0.07400  0.68400  0.20000  1.0000 0.089895594
H   H7        1.0  0.68400  0.07400  0.20000  1.0000 0.089895594
H   H8        1.0  0.31600  0.92600  0.70000  1.0000 0.089895594
H   H9        1.0  0.98200  0.34400  0.85000  1.0000 0.121864603
H   H10       1.0  0.01800  0.65600  0.35000  1.0000 0.121864603
H   H11       1.0  0.65600  0.01800  0.35000  1.0000 0.121864603
H   H12       1.0  0.34400  0.98200  0.85000  1.0000 0.121864603
H   H13       1.0  0.92700  0.49340  0.96890  1.0000 0.3255623887
H   H14       1.0  0.07300  0.50660  0.46890  1.0000 0.3255623887
H   H15       1.0  0.50660  0.07300  0.46890  1.0000 0.3255623887
H   H16       1.0  0.49340  0.92700  0.96890  1.0000 0.3255623887
C   C1        1.0  0.86550  0.44150  0.80180  1.0000 -0.2539556389
C   C2        1.0  0.13450  0.55850  0.30180  1.0000 -0.2605336298
C   C3        1.0  0.55850  0.13450  0.30180  1.0000 -0.2605336298
C   C4        1.0  0.44150  0.86550  0.80180  1.0000 -0.2539556389
C   C5        1.0  0.91650  0.33790  0.80020  1.0000 -0.4575801034
C   C6        1.0  0.08350  0.66210  0.30020  1.0000 -0.4575801034
C   C7        1.0  0.66210  0.08350  0.30020  1.0000 -0.4575801034
C   C8        1.0  0.33790  0.91650  0.80020  1.0000 -0.4575801034
O   O1        1.0  0.03690  0.55610  0.74290  1.0000 -0.8429591348
O   O2        1.0  0.96310  0.44390  0.24290  1.0000 -0.8429591348
O   O3        1.0  0.44390  0.96310  0.24290  1.0000 -0.8429591348
O   O4        1.0  0.55610  0.03690  0.74290  1.0000 -0.8429591348
O   O5        1.0  0.67870  0.34450  0.84260  1.0000 -0.8300752928
O   O6        1.0  0.32130  0.65550  0.34260  1.0000 -0.8300752928
O   O7        1.0  0.65550  0.32130  0.34260  1.0000 -0.8300752928
O   O8        1.0  0.34450  0.67870  0.84260  1.0000 -0.8300752928
O   O9        1.0  0.68070  0.53210  0.77130  1.0000 -0.9161950042
O   O10       1.0  0.31930  0.46790  0.27130  1.0000 -0.9140034904
O   O11       1.0  0.46790  0.31930  0.27130  1.0000 -0.9140034904
O   O12       1.0  0.53210  0.68070  0.77130  1.0000 -0.9161950042
O   O13       1.0  0.93560  0.48460  0.53930  1.0000 -0.8665142645
O   O14       1.0  0.06440  0.51540  0.03930  1.0000 -0.8665142645
O   O15       1.0  0.51540  0.06440  0.03930  1.0000 -0.8665142645
O   O16       1.0  0.48460  0.93560  0.53930  1.0000 -0.8665142645
O   O17       1.0  0.86630  0.63430  0.67980  1.0000 -0.9879191806
O   O18       1.0  0.13370  0.36570  0.17980  1.0000 -0.9822312285
O   O19       1.0  0.36570  0.13370  0.17980  1.0000 -0.9822312285
O   O20       1.0  0.63430  0.86630  0.67980  1.0000 -0.9879191806
O   O21       1.0  0.73100  0.39640  0.59840  1.0000 -0.8823948194
O   O22       1.0  0.26900  0.60360  0.09840  1.0000 -0.8823948194
O   O23       1.0  0.60360  0.26900  0.09840  1.0000 -0.8823948194
O   O24       1.0  0.39640  0.73100  0.59840  1.0000 -0.8823948194
O   O25       1.0  0.86670  0.48510  0.94240  1.0000 -0.4234438231
O   O26       1.0  0.13330  0.51490  0.44240  1.0000 -0.4234438231
O   O27       1.0  0.51490  0.13330  0.44240  1.0000 -0.4234438231
O   O28       1.0  0.48510  0.86670  0.94240  1.0000 -0.4234438231
