# DDEC6 charges by PACMAN v1.1 (https://github.com/mtap-research/PACMAN-charge/)
data_2012[Cd][nan]3[ASR]11
_chemical_formula_sum              "Cd16 H160 C208 N48 O64"
_cell_length_a       9.7939
_cell_length_b       21.688
_cell_length_c       27.677
_cell_angle_alpha    90
_cell_angle_beta     90
_cell_angle_gamma    90

_symmetry_space_group_name_H-M    "P 1"
_symmetry_Int_Tables_number       1

loop_
  _symmetry_equiv_pos_as_xyz
  'x, y, z'

loop_
  _atom_site_type_symbol
  _atom_site_label
  _atom_site_symmetry_multiplicity
  _atom_site_fract_x
  _atom_site_fract_y
  _atom_site_fract_z
  _atom_site_occupancy
  _atom_site_charge
Cd  Cd1       1.0  0.67105  0.47729  0.64378  1.0000 0.8096052718
Cd  Cd2       1.0  0.82895  0.52271  0.14378  1.0000 0.8096052718
Cd  Cd3       1.0  0.17105  0.02271  0.35622  1.0000 0.8096052718
Cd  Cd4       1.0  0.32895  0.97729  0.85622  1.0000 0.8096052718
Cd  Cd5       1.0  0.32895  0.52271  0.35622  1.0000 0.8096052718
Cd  Cd6       1.0  0.17105  0.47729  0.85622  1.0000 0.8096052718
Cd  Cd7       1.0  0.82895  0.97729  0.64378  1.0000 0.8096052718
Cd  Cd8       1.0  0.67105  0.02271  0.14378  1.0000 0.8096052718
Cd  Cd9       1.0  0.79653  0.34091  0.45818  1.0000 0.8593437013
Cd  Cd10      1.0  0.70347  0.65909  0.95818  1.0000 0.8593437013
Cd  Cd11      1.0  0.29653  0.15909  0.54182  1.0000 0.8593437013
Cd  Cd12      1.0  0.20347  0.84091  0.04182  1.0000 0.8593437013
Cd  Cd13      1.0  0.20347  0.65909  0.54182  1.0000 0.8593437013
Cd  Cd14      1.0  0.29653  0.34091  0.04182  1.0000 0.8593437013
Cd  Cd15      1.0  0.70347  0.84091  0.45818  1.0000 0.8593437013
Cd  Cd16      1.0  0.79653  0.15909  0.95818  1.0000 0.8593437013
H   H1        1.0  0.63270  0.20400  0.42570  1.0000 0.1119975739
H   H2        1.0  0.86730  0.79600  0.92570  1.0000 0.1119975739
H   H3        1.0  0.13270  0.29600  0.57430  1.0000 0.1119975739
H   H4        1.0  0.36730  0.70400  0.07430  1.0000 0.1119975739
H   H5        1.0  0.36730  0.79600  0.57430  1.0000 0.1119975739
H   H6        1.0  0.13270  0.20400  0.07430  1.0000 0.1119975739
H   H7        1.0  0.86730  0.70400  0.42570  1.0000 0.1119975739
H   H8        1.0  0.63270  0.29600  0.92570  1.0000 0.1119975739
H   H9        1.0  0.49420  0.17250  0.43980  1.0000 0.1119975739
H   H10       1.0  0.00580  0.82750  0.93980  1.0000 0.1119975739
H   H11       1.0  0.99420  0.32750  0.56020  1.0000 0.1119975739
H   H12       1.0  0.50580  0.67250  0.06020  1.0000 0.1119975739
H   H13       1.0  0.50580  0.82750  0.56020  1.0000 0.1119975739
H   H14       1.0  0.99420  0.17250  0.06020  1.0000 0.1119975739
H   H15       1.0  0.00580  0.67250  0.43980  1.0000 0.1119975739
H   H16       1.0  0.49420  0.32750  0.93980  1.0000 0.1119975739
H   H17       1.0  0.90320  0.71520  0.80070  1.0000 0.1307697636
H   H18       1.0  0.59680  0.28480  0.30070  1.0000 0.1307697636
H   H19       1.0  0.40320  0.78480  0.19930  1.0000 0.1307697636
H   H20       1.0  0.09680  0.21520  0.69930  1.0000 0.1307697636
H   H21       1.0  0.09680  0.28480  0.19930  1.0000 0.1307697636
H   H22       1.0  0.40320  0.71520  0.69930  1.0000 0.1307697636
H   H23       1.0  0.59680  0.21520  0.80070  1.0000 0.1307697636
H   H24       1.0  0.90320  0.78480  0.30070  1.0000 0.1307697636
H   H25       1.0  0.21590  0.81960  0.72200  1.0000 0.1486051051
H   H26       1.0  0.28410  0.18040  0.22200  1.0000 0.1486051051
H   H27       1.0  0.71590  0.68040  0.27800  1.0000 0.1486051051
H   H28       1.0  0.78410  0.31960  0.77800  1.0000 0.1486051051
H   H29       1.0  0.78410  0.18040  0.27800  1.0000 0.1486051051
H   H30       1.0  0.71590  0.81960  0.77800  1.0000 0.1486051051
H   H31       1.0  0.28410  0.31960  0.72200  1.0000 0.1486051051
H   H32       1.0  0.21590  0.68040  0.22200  1.0000 0.1486051051
H   H33       1.0  0.32270  0.90010  0.76050  1.0000 0.1183724129
H   H34       1.0  0.17730  0.09990  0.26050  1.0000 0.1183724129
H   H35       1.0  0.82270  0.59990  0.23950  1.0000 0.1183724129
H   H36       1.0  0.67730  0.40010  0.73950  1.0000 0.1183724129
H   H37       1.0  0.67730  0.09990  0.23950  1.0000 0.1183724129
H   H38       1.0  0.82270  0.90010  0.73950  1.0000 0.1183724129
H   H39       1.0  0.17730  0.40010  0.76050  1.0000 0.1183724129
H   H40       1.0  0.32270  0.59990  0.26050  1.0000 0.1183724129
H   H41       1.0  0.56280  0.63800  0.53710  1.0000 0.1183724129
H   H42       1.0  0.93720  0.36200  0.03710  1.0000 0.1183724129
H   H43       1.0  0.06280  0.86200  0.46290  1.0000 0.1183724129
H   H44       1.0  0.43720  0.13800  0.96290  1.0000 0.1183724129
H   H45       1.0  0.43720  0.36200  0.46290  1.0000 0.1183724129
H   H46       1.0  0.06280  0.63800  0.96290  1.0000 0.1183724129
H   H47       1.0  0.93720  0.13800  0.53710  1.0000 0.1183724129
H   H48       1.0  0.56280  0.86200  0.03710  1.0000 0.1183724129
H   H49       1.0  0.67080  0.60290  0.56850  1.0000 0.1183724129
H   H50       1.0  0.82920  0.39710  0.06850  1.0000 0.1183724129
H   H51       1.0  0.17080  0.89710  0.43150  1.0000 0.1183724129
H   H52       1.0  0.32920  0.10290  0.93150  1.0000 0.1183724129
H   H53       1.0  0.32920  0.39710  0.43150  1.0000 0.1183724129
H   H54       1.0  0.17080  0.60290  0.93150  1.0000 0.1183724129
H   H55       1.0  0.82920  0.10290  0.56850  1.0000 0.1183724129
H   H56       1.0  0.67080  0.89710  0.06850  1.0000 0.1183724129
H   H57       1.0  0.87160  0.58820  0.63910  1.0000 0.1183724129
H   H58       1.0  0.62840  0.41180  0.13910  1.0000 0.1183724129
H   H59       1.0  0.37160  0.91180  0.36090  1.0000 0.1183724129
H   H60       1.0  0.12840  0.08820  0.86090  1.0000 0.1183724129
H   H61       1.0  0.12840  0.41180  0.36090  1.0000 0.1183724129
H   H62       1.0  0.37160  0.58820  0.86090  1.0000 0.1183724129
H   H63       1.0  0.62840  0.08820  0.63910  1.0000 0.1183724129
H   H64       1.0  0.87160  0.91180  0.13910  1.0000 0.1183724129
H   H65       1.0  0.04520  0.74130  0.71890  1.0000 0.1307697636
H   H66       1.0  0.45480  0.25870  0.21890  1.0000 0.1307697636
H   H67       1.0  0.54520  0.75870  0.28110  1.0000 0.1307697636
H   H68       1.0  0.95480  0.24130  0.78110  1.0000 0.1307697636
H   H69       1.0  0.95480  0.25870  0.28110  1.0000 0.1307697636
H   H70       1.0  0.54520  0.74130  0.78110  1.0000 0.1307697636
H   H71       1.0  0.45480  0.24130  0.71890  1.0000 0.1307697636
H   H72       1.0  0.04520  0.75870  0.21890  1.0000 0.1307697636
H   H73       1.0  0.76060  0.62130  0.79670  1.0000 0.1435641739
H   H74       1.0  0.73940  0.37870  0.29670  1.0000 0.1435641739
H   H75       1.0  0.26060  0.87870  0.20330  1.0000 0.1435641739
H   H76       1.0  0.23940  0.12130  0.70330  1.0000 0.1435641739
H   H77       1.0  0.23940  0.37870  0.20330  1.0000 0.1435641739
H   H78       1.0  0.26060  0.62130  0.70330  1.0000 0.1435641739
H   H79       1.0  0.73940  0.12130  0.79670  1.0000 0.1435641739
H   H80       1.0  0.76060  0.87870  0.29670  1.0000 0.1435641739
H   H81       1.0  0.07030  0.88960  0.86850  1.0000 0.1307697636
H   H82       1.0  0.42970  0.11040  0.36850  1.0000 0.1307697636
H   H83       1.0  0.57030  0.61040  0.13150  1.0000 0.1307697636
H   H84       1.0  0.92970  0.38960  0.63150  1.0000 0.1307697636
H   H85       1.0  0.92970  0.11040  0.13150  1.0000 0.1307697636
H   H86       1.0  0.57030  0.88960  0.63150  1.0000 0.1307697636
H   H87       1.0  0.42970  0.38960  0.86850  1.0000 0.1307697636
H   H88       1.0  0.07030  0.61040  0.36850  1.0000 0.1307697636
H   H89       1.0  0.67380  0.53950  0.75460  1.0000 0.1183724129
H   H90       1.0  0.82620  0.46050  0.25460  1.0000 0.1183724129
H   H91       1.0  0.17380  0.96050  0.24540  1.0000 0.1183724129
H   H92       1.0  0.32620  0.03950  0.74540  1.0000 0.1183724129
H   H93       1.0  0.32620  0.46050  0.24540  1.0000 0.1183724129
H   H94       1.0  0.17380  0.53950  0.74540  1.0000 0.1183724129
H   H95       1.0  0.82620  0.03950  0.75460  1.0000 0.1183724129
H   H96       1.0  0.67380  0.96050  0.25460  1.0000 0.1183724129
H   H97       1.0  0.96490  0.67040  0.67830  1.0000 0.1435641739
H   H98       1.0  0.53510  0.32960  0.17830  1.0000 0.1435641739
H   H99       1.0  0.46490  0.82960  0.32170  1.0000 0.1435641739
H   H100      1.0  0.03510  0.17040  0.82170  1.0000 0.1435641739
H   H101      1.0  0.03510  0.32960  0.32170  1.0000 0.1435641739
H   H102      1.0  0.46490  0.67040  0.82170  1.0000 0.1435641739
H   H103      1.0  0.53510  0.17040  0.67830  1.0000 0.1435641739
H   H104      1.0  0.96490  0.82960  0.17830  1.0000 0.1435641739
H   H105      1.0  0.96250  0.80650  0.83520  1.0000 0.1435641739
H   H106      1.0  0.53750  0.19350  0.33520  1.0000 0.1435641739
H   H107      1.0  0.46250  0.69350  0.16480  1.0000 0.1435641739
H   H108      1.0  0.03750  0.30650  0.66480  1.0000 0.1435641739
H   H109      1.0  0.03750  0.19350  0.16480  1.0000 0.1435641739
H   H110      1.0  0.46250  0.80650  0.66480  1.0000 0.1435641739
H   H111      1.0  0.53750  0.30650  0.83520  1.0000 0.1435641739
H   H112      1.0  0.96250  0.69350  0.33520  1.0000 0.1435641739
H   H113      1.0  0.74940  0.13490  0.47650  1.0000 0.1183724129
H   H114      1.0  0.75060  0.86510  0.97650  1.0000 0.1183724129
H   H115      1.0  0.24940  0.36510  0.52350  1.0000 0.1183724129
H   H116      1.0  0.25060  0.63490  0.02350  1.0000 0.1183724129
H   H117      1.0  0.25060  0.86510  0.52350  1.0000 0.1183724129
H   H118      1.0  0.24940  0.13490  0.02350  1.0000 0.1183724129
H   H119      1.0  0.75060  0.63490  0.47650  1.0000 0.1183724129
H   H120      1.0  0.74940  0.36510  0.97650  1.0000 0.1183724129
H   H121      1.0  0.66870  0.09910  0.43640  1.0000 0.1307697636
H   H122      1.0  0.83130  0.90090  0.93640  1.0000 0.1307697636
H   H123      1.0  0.16870  0.40090  0.56360  1.0000 0.1307697636
H   H124      1.0  0.33130  0.59910  0.06360  1.0000 0.1307697636
H   H125      1.0  0.33130  0.90090  0.56360  1.0000 0.1307697636
H   H126      1.0  0.16870  0.09910  0.06360  1.0000 0.1307697636
H   H127      1.0  0.83130  0.59910  0.43640  1.0000 0.1307697636
H   H128      1.0  0.66870  0.40090  0.93640  1.0000 0.1307697636
H   H129      1.0  0.61050  0.10270  0.48910  1.0000 0.1307697636
H   H130      1.0  0.88950  0.89730  0.98910  1.0000 0.1307697636
H   H131      1.0  0.11050  0.39730  0.51090  1.0000 0.1307697636
H   H132      1.0  0.38950  0.60270  0.01090  1.0000 0.1307697636
H   H133      1.0  0.38950  0.89730  0.51090  1.0000 0.1307697636
H   H134      1.0  0.11050  0.10270  0.01090  1.0000 0.1307697636
H   H135      1.0  0.88950  0.60270  0.48910  1.0000 0.1307697636
H   H136      1.0  0.61050  0.39730  0.98910  1.0000 0.1307697636
H   H137      1.0  0.52440  0.70630  0.60220  1.0000 0.1183724129
H   H138      1.0  0.97560  0.29370  0.10220  1.0000 0.1183724129
H   H139      1.0  0.02440  0.79370  0.39780  1.0000 0.1183724129
H   H140      1.0  0.47560  0.20630  0.89780  1.0000 0.1183724129
H   H141      1.0  0.47560  0.29370  0.39780  1.0000 0.1183724129
H   H142      1.0  0.02440  0.70630  0.89780  1.0000 0.1183724129
H   H143      1.0  0.97560  0.20630  0.60220  1.0000 0.1183724129
H   H144      1.0  0.52440  0.79370  0.10220  1.0000 0.1183724129
H   H145      1.0  0.67650  0.70910  0.58470  1.0000 0.1183724129
H   H146      1.0  0.82350  0.29090  0.08470  1.0000 0.1183724129
H   H147      1.0  0.17650  0.79090  0.41530  1.0000 0.1183724129
H   H148      1.0  0.32350  0.20910  0.91530  1.0000 0.1183724129
H   H149      1.0  0.32350  0.29090  0.41530  1.0000 0.1183724129
H   H150      1.0  0.17650  0.70910  0.91530  1.0000 0.1183724129
H   H151      1.0  0.82350  0.20910  0.58470  1.0000 0.1183724129
H   H152      1.0  0.67650  0.79090  0.08470  1.0000 0.1183724129
H   H153      1.0  0.63890  0.67240  0.63160  1.0000 0.1119975739
H   H154      1.0  0.86110  0.32760  0.13160  1.0000 0.1119975739
H   H155      1.0  0.13890  0.82760  0.36840  1.0000 0.1119975739
H   H156      1.0  0.36110  0.17240  0.86840  1.0000 0.1119975739
H   H157      1.0  0.36110  0.32760  0.36840  1.0000 0.1119975739
H   H158      1.0  0.13890  0.67240  0.86840  1.0000 0.1119975739
H   H159      1.0  0.86110  0.17240  0.63160  1.0000 0.1119975739
H   H160      1.0  0.63890  0.82760  0.13160  1.0000 0.1119975739
C   C1        1.0  0.59850  0.30374  0.54127  1.0000 0.0192554417
C   C2        1.0  0.90150  0.69626  0.04127  1.0000 0.0192554417
C   C3        1.0  0.09850  0.19626  0.45873  1.0000 0.0192554417
C   C4        1.0  0.40150  0.80374  0.95873  1.0000 0.0192554417
C   C5        1.0  0.40150  0.69626  0.45873  1.0000 0.0192554417
C   C6        1.0  0.09850  0.30374  0.95873  1.0000 0.0192554417
C   C7        1.0  0.90150  0.80374  0.54127  1.0000 0.0192554417
C   C8        1.0  0.59850  0.19626  0.04127  1.0000 0.0192554417
C   C9        1.0  0.27710  0.54937  0.60613  1.0000 0.0192554417
C   C10       1.0  0.22290  0.45063  0.10613  1.0000 0.0192554417
C   C11       1.0  0.77710  0.95063  0.39387  1.0000 0.0192554417
C   C12       1.0  0.72290  0.04937  0.89387  1.0000 0.0192554417
C   C13       1.0  0.72290  0.45063  0.39387  1.0000 0.0192554417
C   C14       1.0  0.77710  0.54937  0.89387  1.0000 0.0192554417
C   C15       1.0  0.22290  0.04937  0.60613  1.0000 0.0192554417
C   C16       1.0  0.27710  0.95063  0.10613  1.0000 0.0192554417
C   C17       1.0  0.56990  0.22652  0.49302  1.0000 0.3699750968
C   C18       1.0  0.93010  0.77348  0.99302  1.0000 0.3699750968
C   C19       1.0  0.06990  0.27348  0.50698  1.0000 0.3699750968
C   C20       1.0  0.43010  0.72652  0.00698  1.0000 0.3699750968
C   C21       1.0  0.43010  0.77348  0.50698  1.0000 0.3699750968
C   C22       1.0  0.06990  0.22652  0.00698  1.0000 0.3699750968
C   C23       1.0  0.93010  0.72652  0.49302  1.0000 0.3699750968
C   C24       1.0  0.56990  0.27348  0.99302  1.0000 0.3699750968
C   C25       1.0  0.37370  0.51425  0.62950  1.0000 0.0089760162
C   C26       1.0  0.12630  0.48575  0.12950  1.0000 0.0089760162
C   C27       1.0  0.87370  0.98575  0.37050  1.0000 0.0089760162
C   C28       1.0  0.62630  0.01425  0.87050  1.0000 0.0089760162
C   C29       1.0  0.62630  0.48575  0.37050  1.0000 0.0089760162
C   C30       1.0  0.87370  0.51425  0.87050  1.0000 0.0089760162
C   C31       1.0  0.12630  0.01425  0.62950  1.0000 0.0089760162
C   C32       1.0  0.37370  0.98575  0.12950  1.0000 0.0089760162
C   C33       1.0  0.65590  0.36304  0.55842  1.0000 0.5378844787
C   C34       1.0  0.84410  0.63696  0.05842  1.0000 0.5378844787
C   C35       1.0  0.15590  0.13696  0.44158  1.0000 0.5378844787
C   C36       1.0  0.34410  0.86304  0.94158  1.0000 0.5378844787
C   C37       1.0  0.34410  0.63696  0.44158  1.0000 0.5378844787
C   C38       1.0  0.15590  0.36304  0.94158  1.0000 0.5378844787
C   C39       1.0  0.84410  0.86304  0.55842  1.0000 0.5378844787
C   C40       1.0  0.65590  0.13696  0.05842  1.0000 0.5378844787
C   C41       1.0  0.58440  0.18326  0.45160  1.0000 -0.2014865667
C   C42       1.0  0.91560  0.81674  0.95160  1.0000 -0.2014865667
C   C43       1.0  0.08440  0.31674  0.54840  1.0000 -0.2014865667
C   C44       1.0  0.41560  0.68326  0.04840  1.0000 -0.2014865667
C   C45       1.0  0.41560  0.81674  0.54840  1.0000 -0.2014865667
C   C46       1.0  0.08440  0.18326  0.04840  1.0000 -0.2014865667
C   C47       1.0  0.91560  0.68326  0.45160  1.0000 -0.2014865667
C   C48       1.0  0.58440  0.31674  0.95160  1.0000 -0.2014865667
C   C49       1.0  0.47690  0.58577  0.58932  1.0000 0.3699750968
C   C50       1.0  0.02310  0.41423  0.08932  1.0000 0.3699750968
C   C51       1.0  0.97690  0.91423  0.41068  1.0000 0.3699750968
C   C52       1.0  0.52310  0.08577  0.91068  1.0000 0.3699750968
C   C53       1.0  0.52310  0.41423  0.41068  1.0000 0.3699750968
C   C54       1.0  0.97690  0.58577  0.91068  1.0000 0.3699750968
C   C55       1.0  0.02310  0.08577  0.58932  1.0000 0.3699750968
C   C56       1.0  0.47690  0.91423  0.08932  1.0000 0.3699750968
C   C57       1.0  0.87470  0.65575  0.74273  1.0000 0.1486051051
C   C58       1.0  0.62530  0.34425  0.24273  1.0000 0.1486051051
C   C59       1.0  0.37470  0.84425  0.25727  1.0000 0.1486051051
C   C60       1.0  0.12530  0.15575  0.75727  1.0000 0.1486051051
C   C61       1.0  0.12530  0.34425  0.25727  1.0000 0.1486051051
C   C62       1.0  0.37470  0.65575  0.75727  1.0000 0.1486051051
C   C63       1.0  0.62530  0.15575  0.74273  1.0000 0.1486051051
C   C64       1.0  0.87470  0.84425  0.24273  1.0000 0.1486051051
C   C65       1.0  0.49830  0.26577  0.55997  1.0000 0.0089760162
C   C66       1.0  0.00170  0.73423  0.05997  1.0000 0.0089760162
C   C67       1.0  0.99830  0.23423  0.44003  1.0000 0.0089760162
C   C68       1.0  0.50170  0.76577  0.94003  1.0000 0.0089760162
C   C69       1.0  0.50170  0.73423  0.44003  1.0000 0.0089760162
C   C70       1.0  0.99830  0.26577  0.94003  1.0000 0.0089760162
C   C71       1.0  0.00170  0.76577  0.55997  1.0000 0.0089760162
C   C72       1.0  0.49830  0.23423  0.05997  1.0000 0.0089760162
C   C73       1.0  0.08000  0.80179  0.77486  1.0000 0.1486051051
C   C74       1.0  0.42000  0.19821  0.27486  1.0000 0.1486051051
C   C75       1.0  0.58000  0.69821  0.22514  1.0000 0.1486051051
C   C76       1.0  0.92000  0.30179  0.72514  1.0000 0.1486051051
C   C77       1.0  0.92000  0.19821  0.22514  1.0000 0.1486051051
C   C78       1.0  0.58000  0.80179  0.72514  1.0000 0.1486051051
C   C79       1.0  0.42000  0.30179  0.77486  1.0000 0.1486051051
C   C80       1.0  0.08000  0.69821  0.27486  1.0000 0.1486051051
C   C81       1.0  0.93150  0.70901  0.76899  1.0000 -0.1343878644
C   C82       1.0  0.56850  0.29099  0.26899  1.0000 -0.1343878644
C   C83       1.0  0.43150  0.79099  0.23101  1.0000 -0.1343878644
C   C84       1.0  0.06850  0.20901  0.73101  1.0000 -0.1351950454
C   C85       1.0  0.06850  0.29099  0.23101  1.0000 -0.1343878644
C   C86       1.0  0.43150  0.70901  0.73101  1.0000 -0.1343878644
C   C87       1.0  0.56850  0.20901  0.76899  1.0000 -0.1351950454
C   C88       1.0  0.93150  0.79099  0.26899  1.0000 -0.1343878644
C   C89       1.0  0.36320  0.46260  0.66388  1.0000 0.5378844787
C   C90       1.0  0.13680  0.53740  0.16388  1.0000 0.5378844787
C   C91       1.0  0.86320  0.03740  0.33612  1.0000 0.5378844787
C   C92       1.0  0.63680  0.96260  0.83612  1.0000 0.5378844787
C   C93       1.0  0.63680  0.53740  0.33612  1.0000 0.5378844787
C   C94       1.0  0.86320  0.46260  0.83612  1.0000 0.5378844787
C   C95       1.0  0.13680  0.96260  0.66388  1.0000 0.5378844787
C   C96       1.0  0.36320  0.03740  0.16388  1.0000 0.5378844787
C   C97       1.0  0.12750  0.54295  0.60197  1.0000 0.5210928296
C   C98       1.0  0.37250  0.45705  0.10197  1.0000 0.5210928296
C   C99       1.0  0.62750  0.95705  0.39803  1.0000 0.5210928296
C   C100      1.0  0.87250  0.04295  0.89803  1.0000 0.5210928296
C   C101      1.0  0.87250  0.45705  0.39803  1.0000 0.5210928296
C   C102      1.0  0.62750  0.54295  0.89803  1.0000 0.5210928296
C   C103      1.0  0.37250  0.04295  0.60197  1.0000 0.5210928296
C   C104      1.0  0.12750  0.95705  0.10197  1.0000 0.5210928296
C   C105      1.0  0.18650  0.83200  0.75242  1.0000 -0.160170688
C   C106      1.0  0.31350  0.16800  0.25242  1.0000 -0.160170688
C   C107      1.0  0.68650  0.66800  0.24758  1.0000 -0.160170688
C   C108      1.0  0.81350  0.33200  0.74758  1.0000 -0.160170688
C   C109      1.0  0.81350  0.16800  0.24758  1.0000 -0.160170688
C   C110      1.0  0.68650  0.83200  0.74758  1.0000 -0.160170688
C   C111      1.0  0.31350  0.33200  0.75242  1.0000 -0.160170688
C   C112      1.0  0.18650  0.66800  0.25242  1.0000 -0.160170688
C   C113      1.0  0.24910  0.88099  0.77556  1.0000 0.1022379082
C   C114      1.0  0.25090  0.11901  0.27556  1.0000 0.1022379082
C   C115      1.0  0.74910  0.61901  0.22444  1.0000 0.1022379082
C   C116      1.0  0.75090  0.38099  0.72444  1.0000 0.1022379082
C   C117      1.0  0.75090  0.11901  0.22444  1.0000 0.1022379082
C   C118      1.0  0.74910  0.88099  0.72444  1.0000 0.1022379082
C   C119      1.0  0.25090  0.38099  0.77556  1.0000 0.1022379082
C   C120      1.0  0.24910  0.61901  0.27556  1.0000 0.1022379082
C   C121      1.0  0.58620  0.62600  0.56987  1.0000 -0.2014865667
C   C122      1.0  0.91380  0.37400  0.06987  1.0000 -0.2014865667
C   C123      1.0  0.08620  0.87400  0.43013  1.0000 -0.2014865667
C   C124      1.0  0.41380  0.12600  0.93013  1.0000 -0.2014865667
C   C125      1.0  0.41380  0.37400  0.43013  1.0000 -0.2014865667
C   C126      1.0  0.08620  0.62600  0.93013  1.0000 -0.2014865667
C   C127      1.0  0.91380  0.12600  0.56987  1.0000 -0.2014865667
C   C128      1.0  0.58620  0.87400  0.06987  1.0000 -0.2014865667
C   C129      1.0  0.84930  0.59480  0.67135  1.0000 0.0864181977
C   C130      1.0  0.65070  0.40520  0.17135  1.0000 0.0864181977
C   C131      1.0  0.34930  0.90520  0.32865  1.0000 0.0864181977
C   C132      1.0  0.15070  0.09480  0.82865  1.0000 0.0864181977
C   C133      1.0  0.15070  0.40520  0.32865  1.0000 0.0864181977
C   C134      1.0  0.34930  0.59480  0.82865  1.0000 0.0864181977
C   C135      1.0  0.65070  0.09480  0.67135  1.0000 0.0864181977
C   C136      1.0  0.84930  0.90520  0.17135  1.0000 0.0864181977
C   C137      1.0  0.01890  0.74817  0.75072  1.0000 -0.1204574059
C   C138      1.0  0.48110  0.25183  0.25072  1.0000 -0.1204574059
C   C139      1.0  0.51890  0.75183  0.24928  1.0000 -0.1204574059
C   C140      1.0  0.98110  0.24817  0.74928  1.0000 -0.1204574059
C   C141      1.0  0.98110  0.25183  0.24928  1.0000 -0.1204574059
C   C142      1.0  0.51890  0.74817  0.74928  1.0000 -0.1204574059
C   C143      1.0  0.48110  0.24817  0.75072  1.0000 -0.1204574059
C   C144      1.0  0.01890  0.75183  0.25072  1.0000 -0.1204574059
C   C145      1.0  0.78550  0.61540  0.76465  1.0000 -0.1856833089
C   C146      1.0  0.71450  0.38460  0.26465  1.0000 -0.1856833089
C   C147      1.0  0.28550  0.88460  0.23535  1.0000 -0.1856833089
C   C148      1.0  0.21450  0.11540  0.73535  1.0000 -0.1856833089
C   C149      1.0  0.21450  0.38460  0.23535  1.0000 -0.1856833089
C   C150      1.0  0.28550  0.61540  0.73535  1.0000 -0.1856833089
C   C151      1.0  0.71450  0.11540  0.76465  1.0000 -0.1856833089
C   C152      1.0  0.78550  0.88460  0.26465  1.0000 -0.1856833089
C   C153      1.0  0.10150  0.87432  0.83908  1.0000 0.1022379082
C   C154      1.0  0.39850  0.12568  0.33908  1.0000 0.1022379082
C   C155      1.0  0.60150  0.62568  0.16092  1.0000 0.1022379082
C   C156      1.0  0.89850  0.37432  0.66092  1.0000 0.1022379082
C   C157      1.0  0.89850  0.12568  0.16092  1.0000 0.1022379082
C   C158      1.0  0.60150  0.87432  0.66092  1.0000 0.1022379082
C   C159      1.0  0.39850  0.37432  0.83908  1.0000 0.1022379082
C   C160      1.0  0.10150  0.62568  0.33908  1.0000 0.1022379082
C   C161      1.0  0.73320  0.56630  0.73886  1.0000 0.1022379082
C   C162      1.0  0.76680  0.43370  0.23886  1.0000 0.1022379082
C   C163      1.0  0.23320  0.93370  0.26114  1.0000 0.1022379082
C   C164      1.0  0.26680  0.06630  0.76114  1.0000 0.1022379082
C   C165      1.0  0.26680  0.43370  0.26114  1.0000 0.1022379082
C   C166      1.0  0.23320  0.56630  0.76114  1.0000 0.1022379082
C   C167      1.0  0.76680  0.06630  0.73886  1.0000 0.1022379082
C   C168      1.0  0.73320  0.93370  0.23886  1.0000 0.1022379082
C   C169      1.0  0.90560  0.64430  0.69473  1.0000 -0.1721427233
C   C170      1.0  0.59440  0.35570  0.19473  1.0000 -0.1721427233
C   C171      1.0  0.40560  0.85570  0.30527  1.0000 -0.1721427233
C   C172      1.0  0.09440  0.14430  0.80527  1.0000 -0.1721427233
C   C173      1.0  0.09440  0.35570  0.30527  1.0000 -0.1721427233
C   C174      1.0  0.40560  0.64430  0.80527  1.0000 -0.1721427233
C   C175      1.0  0.59440  0.14430  0.69473  1.0000 -0.1721427233
C   C176      1.0  0.90560  0.85570  0.19473  1.0000 -0.1721427233
C   C177      1.0  0.03580  0.82470  0.81928  1.0000 -0.1721427233
C   C178      1.0  0.46420  0.17530  0.31928  1.0000 -0.1721427233
C   C179      1.0  0.53580  0.67530  0.18072  1.0000 -0.1721427233
C   C180      1.0  0.96420  0.32470  0.68072  1.0000 -0.1721427233
C   C181      1.0  0.96420  0.17530  0.18072  1.0000 -0.1721427233
C   C182      1.0  0.53580  0.82470  0.68072  1.0000 -0.1721427233
C   C183      1.0  0.46420  0.32470  0.81928  1.0000 -0.1721427233
C   C184      1.0  0.03580  0.67530  0.31928  1.0000 -0.1721427233
C   C185      1.0  0.41490  0.26789  0.60425  1.0000 0.5210928296
C   C186      1.0  0.08510  0.73211  0.10425  1.0000 0.5210928296
C   C187      1.0  0.91490  0.23211  0.39575  1.0000 0.5210928296
C   C188      1.0  0.58510  0.76789  0.89575  1.0000 0.5210928296
C   C189      1.0  0.58510  0.73211  0.39575  1.0000 0.5210928296
C   C190      1.0  0.91490  0.26789  0.89575  1.0000 0.5210928296
C   C191      1.0  0.08510  0.76789  0.60425  1.0000 0.5210928296
C   C192      1.0  0.41490  0.23211  0.10425  1.0000 0.5210928296
C   C193      1.0  0.66020  0.12460  0.46460  1.0000 -0.313692874
C   C194      1.0  0.83980  0.87540  0.96460  1.0000 -0.313692874
C   C195      1.0  0.16020  0.37540  0.53540  1.0000 -0.313692874
C   C196      1.0  0.33980  0.62460  0.03540  1.0000 -0.313692874
C   C197      1.0  0.33980  0.87540  0.53540  1.0000 -0.313692874
C   C198      1.0  0.16020  0.12460  0.03540  1.0000 -0.313692874
C   C199      1.0  0.83980  0.62460  0.46460  1.0000 -0.313692874
C   C200      1.0  0.66020  0.37540  0.96460  1.0000 -0.313692874
C   C201      1.0  0.60850  0.68380  0.59980  1.0000 -0.3324435713
C   C202      1.0  0.89150  0.31620  0.09980  1.0000 -0.3324435713
C   C203      1.0  0.10850  0.81620  0.40020  1.0000 -0.3324435713
C   C204      1.0  0.39150  0.18380  0.90020  1.0000 -0.3324435713
C   C205      1.0  0.39150  0.31620  0.40020  1.0000 -0.3324435713
C   C206      1.0  0.10850  0.68380  0.90020  1.0000 -0.3324435713
C   C207      1.0  0.89150  0.18380  0.59980  1.0000 -0.3324435713
C   C208      1.0  0.60850  0.81620  0.09980  1.0000 -0.3324435713
N   N1        1.0  0.34280  0.59486  0.58116  1.0000 -0.3746865268
N   N2        1.0  0.15720  0.40514  0.08116  1.0000 -0.3746865268
N   N3        1.0  0.84280  0.90514  0.41884  1.0000 -0.3746865268
N   N4        1.0  0.65720  0.09486  0.91884  1.0000 -0.3746865268
N   N5        1.0  0.65720  0.40514  0.41884  1.0000 -0.3746865268
N   N6        1.0  0.84280  0.59486  0.91884  1.0000 -0.3746865268
N   N7        1.0  0.15720  0.09486  0.58116  1.0000 -0.3746865268
N   N8        1.0  0.34280  0.90514  0.08116  1.0000 -0.3746865268
N   N9        1.0  0.64330  0.27862  0.49874  1.0000 -0.382817947
N   N10       1.0  0.85670  0.72138  0.99874  1.0000 -0.382817947
N   N11       1.0  0.14330  0.22138  0.50126  1.0000 -0.382817947
N   N12       1.0  0.35670  0.77862  0.00126  1.0000 -0.382817947
N   N13       1.0  0.35670  0.72138  0.50126  1.0000 -0.382817947
N   N14       1.0  0.14330  0.27862  0.00126  1.0000 -0.382817947
N   N15       1.0  0.85670  0.77862  0.49874  1.0000 -0.382817947
N   N16       1.0  0.64330  0.22138  0.99874  1.0000 -0.382817947
N   N17       1.0  0.49950  0.53701  0.61850  1.0000 -0.382817947
N   N18       1.0  0.00050  0.46299  0.11850  1.0000 -0.382817947
N   N19       1.0  0.99950  0.96299  0.38150  1.0000 -0.382817947
N   N20       1.0  0.50050  0.03701  0.88150  1.0000 -0.382817947
N   N21       1.0  0.50050  0.46299  0.38150  1.0000 -0.382817947
N   N22       1.0  0.99950  0.53701  0.88150  1.0000 -0.382817947
N   N23       1.0  0.00050  0.03701  0.61850  1.0000 -0.382817947
N   N24       1.0  0.49950  0.96299  0.11850  1.0000 -0.382817947
N   N25       1.0  0.48170  0.21710  0.52909  1.0000 -0.3602448802
N   N26       1.0  0.01830  0.78290  0.02909  1.0000 -0.3602448802
N   N27       1.0  0.98170  0.28290  0.47091  1.0000 -0.3602448802
N   N28       1.0  0.51830  0.71710  0.97091  1.0000 -0.3602448802
N   N29       1.0  0.51830  0.78290  0.47091  1.0000 -0.3602448802
N   N30       1.0  0.98170  0.21710  0.97091  1.0000 -0.3602448802
N   N31       1.0  0.01830  0.71710  0.52909  1.0000 -0.3602448802
N   N32       1.0  0.48170  0.28290  0.02909  1.0000 -0.3602448802
N   N33       1.0  0.20880  0.90196  0.81821  1.0000 -0.2161088574
N   N34       1.0  0.29120  0.09804  0.31821  1.0000 -0.2147899705
N   N35       1.0  0.70880  0.59804  0.18179  1.0000 -0.2147899705
N   N36       1.0  0.79120  0.40196  0.68179  1.0000 -0.2147899705
N   N37       1.0  0.79120  0.09804  0.18179  1.0000 -0.2147899705
N   N38       1.0  0.70880  0.90196  0.68179  1.0000 -0.2147899705
N   N39       1.0  0.29120  0.40196  0.81821  1.0000 -0.2147899705
N   N40       1.0  0.20880  0.59804  0.31821  1.0000 -0.2161088574
N   N41       1.0  0.76290  0.55526  0.69307  1.0000 -0.2370017457
N   N42       1.0  0.73710  0.44474  0.19307  1.0000 -0.2370017457
N   N43       1.0  0.26290  0.94474  0.30693  1.0000 -0.2370017457
N   N44       1.0  0.23710  0.05526  0.80693  1.0000 -0.2370017457
N   N45       1.0  0.23710  0.44474  0.30693  1.0000 -0.2370017457
N   N46       1.0  0.26290  0.55526  0.80693  1.0000 -0.2370017457
N   N47       1.0  0.73710  0.05526  0.69307  1.0000 -0.2370017457
N   N48       1.0  0.76290  0.94474  0.19307  1.0000 -0.2370017457
O   O1        1.0  0.07110  0.49905  0.62510  1.0000 -0.4933891284
O   O2        1.0  0.42890  0.50095  0.12510  1.0000 -0.4933891284
O   O3        1.0  0.57110  0.00095  0.37490  1.0000 -0.4933891284
O   O4        1.0  0.92890  0.99905  0.87490  1.0000 -0.4933891284
O   O5        1.0  0.92890  0.50095  0.37490  1.0000 -0.4933891284
O   O6        1.0  0.57110  0.49905  0.87490  1.0000 -0.4933891284
O   O7        1.0  0.42890  0.99905  0.62510  1.0000 -0.4933891284
O   O8        1.0  0.07110  0.00095  0.12510  1.0000 -0.4933891284
O   O9        1.0  0.06390  0.57859  0.57533  1.0000 -0.5066335934
O   O10       1.0  0.43610  0.42141  0.07533  1.0000 -0.5066335934
O   O11       1.0  0.56390  0.92141  0.42467  1.0000 -0.5066335934
O   O12       1.0  0.93610  0.07859  0.92467  1.0000 -0.5066335934
O   O13       1.0  0.93610  0.42141  0.42467  1.0000 -0.5066335934
O   O14       1.0  0.56390  0.57859  0.92467  1.0000 -0.5066335934
O   O15       1.0  0.43610  0.07859  0.57533  1.0000 -0.5066335934
O   O16       1.0  0.06390  0.92141  0.07533  1.0000 -0.5066335934
O   O17       1.0  0.46600  0.44207  0.68322  1.0000 -0.4684933673
O   O18       1.0  0.03400  0.55793  0.18322  1.0000 -0.4684933673
O   O19       1.0  0.96600  0.05793  0.31678  1.0000 -0.4684933673
O   O20       1.0  0.53400  0.94207  0.81678  1.0000 -0.4684933673
O   O21       1.0  0.53400  0.55793  0.31678  1.0000 -0.4684933673
O   O22       1.0  0.96600  0.44207  0.81678  1.0000 -0.4684933673
O   O23       1.0  0.03400  0.94207  0.68322  1.0000 -0.4684933673
O   O24       1.0  0.46600  0.05793  0.18322  1.0000 -0.4684933673
O   O25       1.0  0.43220  0.31408  0.63404  1.0000 -0.4259452286
O   O26       1.0  0.06780  0.68592  0.13404  1.0000 -0.4259452286
O   O27       1.0  0.93220  0.18592  0.36596  1.0000 -0.4244450915
O   O28       1.0  0.56780  0.81408  0.86596  1.0000 -0.4259452286
O   O29       1.0  0.56780  0.68592  0.36596  1.0000 -0.4259452286
O   O30       1.0  0.93220  0.31408  0.86596  1.0000 -0.4244450915
O   O31       1.0  0.06780  0.81408  0.63404  1.0000 -0.4244450915
O   O32       1.0  0.43220  0.18592  0.13404  1.0000 -0.4244450915
O   O33       1.0  0.75160  0.38680  0.53454  1.0000 -0.5066335934
O   O34       1.0  0.74840  0.61320  0.03454  1.0000 -0.5066335934
O   O35       1.0  0.25160  0.11320  0.46546  1.0000 -0.5066335934
O   O36       1.0  0.24840  0.88680  0.96546  1.0000 -0.5066335934
O   O37       1.0  0.24840  0.61320  0.46546  1.0000 -0.5066335934
O   O38       1.0  0.25160  0.38680  0.96546  1.0000 -0.5066335934
O   O39       1.0  0.74840  0.88680  0.53454  1.0000 -0.5066335934
O   O40       1.0  0.75160  0.11320  0.03454  1.0000 -0.5066335934
O   O41       1.0  0.33010  0.22772  0.61290  1.0000 -0.5219608459
O   O42       1.0  0.16990  0.77228  0.11290  1.0000 -0.5219608459
O   O43       1.0  0.83010  0.27228  0.38710  1.0000 -0.5219608459
O   O44       1.0  0.66990  0.72772  0.88710  1.0000 -0.5219608459
O   O45       1.0  0.66990  0.77228  0.38710  1.0000 -0.5219608459
O   O46       1.0  0.83010  0.22772  0.88710  1.0000 -0.5219608459
O   O47       1.0  0.16990  0.72772  0.61290  1.0000 -0.5219608459
O   O48       1.0  0.33010  0.27228  0.11290  1.0000 -0.5219608459
O   O49       1.0  0.60460  0.38673  0.59606  1.0000 -0.4602433934
O   O50       1.0  0.89540  0.61327  0.09606  1.0000 -0.4602433934
O   O51       1.0  0.10460  0.11327  0.40394  1.0000 -0.4602433934
O   O52       1.0  0.39540  0.88673  0.90394  1.0000 -0.4602433934
O   O53       1.0  0.39540  0.61327  0.40394  1.0000 -0.4602433934
O   O54       1.0  0.10460  0.38673  0.90394  1.0000 -0.4602433934
O   O55       1.0  0.89540  0.88673  0.59606  1.0000 -0.4602433934
O   O56       1.0  0.60460  0.11327  0.09606  1.0000 -0.4602433934
O   O57       1.0  0.24120  0.44116  0.67296  1.0000 -0.4602433934
O   O58       1.0  0.25880  0.55884  0.17296  1.0000 -0.4602433934
O   O59       1.0  0.74120  0.05884  0.32704  1.0000 -0.4602433934
O   O60       1.0  0.75880  0.94116  0.82704  1.0000 -0.4602433934
O   O61       1.0  0.75880  0.55884  0.32704  1.0000 -0.4602433934
O   O62       1.0  0.74120  0.44116  0.82704  1.0000 -0.4602433934
O   O63       1.0  0.25880  0.94116  0.67296  1.0000 -0.4602433934
O   O64       1.0  0.24120  0.05884  0.17296  1.0000 -0.4602433934
