# DDEC6 charges by PACMAN v1.1 (https://github.com/mtap-research/PACMAN-charge/)
data_2012[Sm][deh]3[ASR]1
_chemical_formula_sum              "Sm8 H24 C56 N8 O32"
_cell_length_a       16.473
_cell_length_b       17.068
_cell_length_c       17.384
_cell_angle_alpha    77.35
_cell_angle_beta     62.91
_cell_angle_gamma    62.4

_symmetry_space_group_name_H-M    "P 1"
_symmetry_Int_Tables_number       1

loop_
  _symmetry_equiv_pos_as_xyz
  'x, y, z'

loop_
  _atom_site_type_symbol
  _atom_site_label
  _atom_site_symmetry_multiplicity
  _atom_site_fract_x
  _atom_site_fract_y
  _atom_site_fract_z
  _atom_site_occupancy
  _atom_site_charge
Sm  Sm1       1.0  0.96721  0.79423  0.04361  1.0000 2.0116994424
Sm  Sm2       1.0  0.00840  0.02543  0.69236  1.0000 2.0116994424
Sm  Sm3       1.0  0.68675  0.30530  0.55365  1.0000 2.0116994424
Sm  Sm4       1.0  0.23356  0.47203  0.79327  1.0000 2.0116994424
Sm  Sm5       1.0  0.03279  0.20577  0.95639  1.0000 2.0116994424
Sm  Sm6       1.0  0.99160  0.97457  0.30764  1.0000 2.015609439
Sm  Sm7       1.0  0.31325  0.69470  0.44635  1.0000 2.0116994424
Sm  Sm8       1.0  0.76644  0.52797  0.20673  1.0000 2.0116994424
H   H1        1.0  0.04000  0.33991  0.70897  1.0000 0.1061112243
H   H2        1.0  0.23611  0.72309  0.17517  1.0000 0.1021898322
H   H3        1.0  0.65404  0.02825  0.48598  1.0000 0.1021898322
H   H4        1.0  0.36540  0.58173  0.09551  1.0000 0.0912208843
H   H5        1.0  0.33231  0.52478  0.99514  1.0000 0.1061112243
H   H6        1.0  0.37885  0.20896  0.67784  1.0000 0.1021898322
H   H7        1.0  0.47285  0.06948  0.59200  1.0000 0.0912208843
H   H8        1.0  0.15858  0.50774  0.50745  1.0000 0.1061112243
H   H9        1.0  0.56993  0.09162  0.94907  1.0000 0.1021898322
H   H10       1.0  0.60482  0.17056  0.80513  1.0000 0.1061112243
H   H11       1.0  0.71619  0.97646  0.98237  1.0000 0.1061112243
H   H12       1.0  0.06069  0.41454  0.56332  1.0000 0.0912208843
H   H13       1.0  0.96000  0.66009  0.29103  1.0000 0.1061112243
H   H14       1.0  0.76389  0.27691  0.82483  1.0000 0.1021898322
H   H15       1.0  0.34596  0.97175  0.51402  1.0000 0.1021898322
H   H16       1.0  0.63460  0.41827  0.90449  1.0000 0.0912208843
H   H17       1.0  0.66769  0.47522  0.00486  1.0000 0.1061112243
H   H18       1.0  0.62115  0.79104  0.32216  1.0000 0.1021898322
H   H19       1.0  0.52715  0.93052  0.40800  1.0000 0.0912208843
H   H20       1.0  0.84142  0.49226  0.49255  1.0000 0.1061112243
H   H21       1.0  0.43007  0.90838  0.05093  1.0000 0.1021898322
H   H22       1.0  0.39518  0.82944  0.19487  1.0000 0.1061112243
H   H23       1.0  0.28381  0.02354  0.01763  1.0000 0.1061112243
H   H24       1.0  0.93931  0.58546  0.43668  1.0000 0.0912208843
C   C1        1.0  0.79814  0.14413  0.67791  1.0000 0.6185609231
C   C2        1.0  0.64670  0.07413  0.90053  1.0000 -0.0737488908
C   C3        1.0  0.66616  0.11861  0.82048  1.0000 -0.1487754849
C   C4        1.0  0.72834  0.00938  0.91914  1.0000 -0.1410245217
C   C5        1.0  0.76516  0.09805  0.76030  1.0000 0.0797490138
C   C6        1.0  0.82613  0.98982  0.85680  1.0000 0.0912208843
C   C7        1.0  0.76117  0.13144  0.45360  1.0000 0.6185609231
C   C8        1.0  0.16074  0.61700  0.95540  1.0000 0.6185609231
C   C9        1.0  0.11577  0.39896  0.73451  1.0000 0.0797490138
C   C10       1.0  0.17833  0.49350  0.62575  1.0000 0.0912208843
C   C11       1.0  0.23704  0.54561  0.60388  1.0000 0.6185609231
C   C12       1.0  0.11512  0.35692  0.81820  1.0000 0.6185609231
C   C13       1.0  0.19135  0.63897  0.01350  1.0000 0.1021898322
C   C14       1.0  0.13617  0.74634  0.11669  1.0000 0.0797490138
C   C15       1.0  0.08984  0.42554  0.60315  1.0000 -0.0737488908
C   C16       1.0  0.05148  0.82831  0.16044  1.0000 0.6185609231
C   C17       1.0  0.22423  0.69837  0.13008  1.0000 -0.1587616843
C   C18       1.0  0.07799  0.38388  0.68430  1.0000 -0.1487754849
C   C19       1.0  0.61034  0.09017  0.52216  1.0000 -0.1410245217
C   C20       1.0  0.50376  0.24464  0.61811  1.0000 0.0739379409
C   C21       1.0  0.29650  0.61943  0.08500  1.0000 -0.0630631787
C   C22       1.0  0.27870  0.58836  0.02748  1.0000 -0.1487754849
C   C23       1.0  0.45652  0.19016  0.63007  1.0000 -0.1487754849
C   C24       1.0  0.50899  0.11265  0.58183  1.0000 -0.0778411892
C   C25       1.0  0.14331  0.47889  0.57260  1.0000 -0.1410245217
C   C26       1.0  0.46119  0.32486  0.66632  1.0000 0.6116058188
C   C27       1.0  0.65482  0.14660  0.51072  1.0000 0.1061112243
C   C28       1.0  0.91836  0.93028  0.86974  1.0000 0.6185609231
C   C29       1.0  0.20186  0.85587  0.32209  1.0000 0.6185609231
C   C30       1.0  0.35330  0.92587  0.09947  1.0000 -0.0737488908
C   C31       1.0  0.33384  0.88139  0.17952  1.0000 -0.1487754849
C   C32       1.0  0.27166  0.99062  0.08086  1.0000 -0.1410245217
C   C33       1.0  0.23484  0.90195  0.23970  1.0000 0.0797490138
C   C34       1.0  0.17387  0.01018  0.14320  1.0000 0.0912208843
C   C35       1.0  0.23883  0.86856  0.54640  1.0000 0.6185609231
C   C36       1.0  0.83926  0.38300  0.04460  1.0000 0.6185609231
C   C37       1.0  0.88423  0.60104  0.26549  1.0000 0.0797490138
C   C38       1.0  0.82167  0.50650  0.37425  1.0000 0.0912208843
C   C39       1.0  0.76296  0.45439  0.39612  1.0000 0.6185609231
C   C40       1.0  0.88488  0.64308  0.18180  1.0000 0.6185609231
C   C41       1.0  0.80865  0.36103  0.98650  1.0000 0.1061112243
C   C42       1.0  0.86383  0.25366  0.88331  1.0000 0.0797490138
C   C43       1.0  0.91016  0.57446  0.39685  1.0000 -0.0737488908
C   C44       1.0  0.94852  0.17169  0.83956  1.0000 0.6185609231
C   C45       1.0  0.77577  0.30163  0.86992  1.0000 -0.1587616843
C   C46       1.0  0.92201  0.61612  0.31570  1.0000 -0.1487754849
C   C47       1.0  0.38966  0.90983  0.47784  1.0000 -0.1410245217
C   C48       1.0  0.49624  0.75536  0.38189  1.0000 0.0797490138
C   C49       1.0  0.70350  0.38057  0.91500  1.0000 -0.0630631787
C   C50       1.0  0.72130  0.41164  0.97252  1.0000 -0.1487754849
C   C51       1.0  0.54348  0.80984  0.36993  1.0000 -0.1487754849
C   C52       1.0  0.49101  0.88735  0.41817  1.0000 -0.0778411892
C   C53       1.0  0.85669  0.52111  0.42740  1.0000 -0.1410245217
C   C54       1.0  0.53881  0.67514  0.33368  1.0000 0.6116058188
C   C55       1.0  0.34518  0.85340  0.48928  1.0000 0.1061112243
C   C56       1.0  0.08164  0.06972  0.13026  1.0000 0.6185609231
N   N1        1.0  0.84528  0.03181  0.77717  1.0000 -0.5095813614
N   N2        1.0  0.60215  0.22432  0.55692  1.0000 -0.5307492656
N   N3        1.0  0.12177  0.71834  0.05621  1.0000 -0.5240446371
N   N4        1.0  0.16086  0.45693  0.70783  1.0000 -0.5095813614
N   N5        1.0  0.15472  0.96819  0.22283  1.0000 -0.5047033769
N   N6        1.0  0.39785  0.77568  0.44308  1.0000 -0.5307492656
N   N7        1.0  0.87823  0.28166  0.94379  1.0000 -0.5240446371
N   N8        1.0  0.83914  0.54307  0.29217  1.0000 -0.5095813614
O   O1        1.0  0.37168  0.35258  0.72914  1.0000 -0.7295086691
O   O2        1.0  0.73480  0.21265  0.65367  1.0000 -0.7295086691
O   O3        1.0  0.89532  0.11351  0.63132  1.0000 -0.681893939
O   O4        1.0  0.91485  0.88651  0.94112  1.0000 -0.7384121162
O   O5        1.0  0.07456  0.67454  0.95483  1.0000 -0.7068320753
O   O6        1.0  0.51810  0.36725  0.64355  1.0000 -0.6904736203
O   O7        1.0  0.09031  0.29116  0.84791  1.0000 -0.7228159351
O   O8        1.0  0.14446  0.38747  0.85902  1.0000 -0.681893939
O   O9        1.0  0.04571  0.86058  0.22498  1.0000 -0.7295086691
O   O10       1.0  0.82553  0.06077  0.40808  1.0000 -0.7295086691
O   O11       1.0  0.21470  0.54724  0.90788  1.0000 -0.7228159351
O   O12       1.0  0.00241  0.92656  0.80598  1.0000 -0.7002222819
O   O13       1.0  0.26092  0.54983  0.66447  1.0000 -0.7002222819
O   O14       1.0  0.26261  0.58459  0.52960  1.0000 -0.7295086691
O   O15       1.0  0.98104  0.86649  0.13146  1.0000 -0.681893939
O   O16       1.0  0.78504  0.19410  0.45377  1.0000 -0.7002222819
O   O17       1.0  0.62832  0.64742  0.27086  1.0000 -0.7228159351
O   O18       1.0  0.26520  0.78735  0.34633  1.0000 -0.7295086691
O   O19       1.0  0.10468  0.88649  0.36868  1.0000 -0.681893939
O   O20       1.0  0.08515  0.11349  0.05888  1.0000 -0.7384121162
O   O21       1.0  0.92544  0.32546  0.04517  1.0000 -0.7068320753
O   O22       1.0  0.48190  0.63275  0.35645  1.0000 -0.6904736203
O   O23       1.0  0.90969  0.70884  0.15209  1.0000 -0.7295086691
O   O24       1.0  0.85554  0.61253  0.14098  1.0000 -0.681893939
O   O25       1.0  0.95429  0.13942  0.77502  1.0000 -0.7295086691
O   O26       1.0  0.17447  0.93923  0.59192  1.0000 -0.7228159351
O   O27       1.0  0.78530  0.45276  0.09212  1.0000 -0.7228159351
O   O28       1.0  0.99759  0.07344  0.19402  1.0000 -0.7002222819
O   O29       1.0  0.73908  0.45017  0.33553  1.0000 -0.7068320753
O   O30       1.0  0.73739  0.41541  0.47040  1.0000 -0.7295086691
O   O31       1.0  0.01896  0.13351  0.86854  1.0000 -0.681893939
O   O32       1.0  0.21496  0.80590  0.54623  1.0000 -0.7002222819
