# DDEC6 charges by PACMAN v1.1 (https://github.com/mtap-research/PACMAN-charge/)
data_2012[Ag][srs]3[ASR]3
_chemical_formula_sum              "Ag6 H144 C156 N40"
_cell_length_a       21.9702
_cell_length_b       21.9702
_cell_length_c       21.9702
_cell_angle_alpha    109.471
_cell_angle_beta     109.471
_cell_angle_gamma    109.471

_symmetry_space_group_name_H-M    "P 1"
_symmetry_Int_Tables_number       1

loop_
  _symmetry_equiv_pos_as_xyz
  'x, y, z'

loop_
  _atom_site_type_symbol
  _atom_site_label
  _atom_site_symmetry_multiplicity
  _atom_site_fract_x
  _atom_site_fract_y
  _atom_site_fract_z
  _atom_site_occupancy
  _atom_site_charge
Ag  Ag1       1.0  0.25000  0.63700  0.38700  1.0000 0.2500292862
Ag  Ag2       1.0  0.75000  0.86300  0.11300  1.0000 0.2500292862
Ag  Ag3       1.0  0.38700  0.25000  0.63700  1.0000 0.2500292862
Ag  Ag4       1.0  0.11300  0.75000  0.86300  1.0000 0.2500292862
Ag  Ag5       1.0  0.63700  0.38700  0.25000  1.0000 0.2500292862
Ag  Ag6       1.0  0.86300  0.11300  0.75000  1.0000 0.2500292862
H   H1        1.0  0.42430  0.75200  0.59170  1.0000 0.2500292862
H   H2        1.0  0.66030  0.83260  0.90830  1.0000 0.2500292862
H   H3        1.0  0.83970  0.74800  0.17230  1.0000 0.2500292862
H   H4        1.0  0.07570  0.66740  0.32770  1.0000 0.2500292862
H   H5        1.0  0.59170  0.42430  0.75200  1.0000 0.2500292862
H   H6        1.0  0.90830  0.66030  0.83260  1.0000 0.2500292862
H   H7        1.0  0.17230  0.83970  0.74800  1.0000 0.2500292862
H   H8        1.0  0.32770  0.07570  0.66740  1.0000 0.2500292862
H   H9        1.0  0.75200  0.59170  0.42430  1.0000 0.2500292862
H   H10       1.0  0.83260  0.90830  0.66030  1.0000 0.2500292862
H   H11       1.0  0.74800  0.17230  0.83970  1.0000 0.2500292862
H   H12       1.0  0.66740  0.32770  0.07570  1.0000 0.2500292862
H   H13       1.0  0.35400  0.61070  0.32530  1.0000 0.1000156794
H   H14       1.0  0.78540  0.02870  0.17470  1.0000 0.1000156794
H   H15       1.0  0.71460  0.88930  0.24330  1.0000 0.1000156794
H   H16       1.0  0.14600  0.47130  0.25670  1.0000 0.1000156794
H   H17       1.0  0.32530  0.35400  0.61070  1.0000 0.1000156794
H   H18       1.0  0.17470  0.78540  0.02870  1.0000 0.1000156794
H   H19       1.0  0.24330  0.71460  0.88930  1.0000 0.1000156794
H   H20       1.0  0.25670  0.14600  0.47130  1.0000 0.1000156794
H   H21       1.0  0.61070  0.32530  0.35400  1.0000 0.1000156794
H   H22       1.0  0.02870  0.17470  0.78540  1.0000 0.1000156794
H   H23       1.0  0.88930  0.24330  0.71460  1.0000 0.1000156794
H   H24       1.0  0.47130  0.25670  0.14600  1.0000 0.1000156794
H   H25       1.0  0.47740  0.64000  0.36320  1.0000 0.1200093762
H   H26       1.0  0.77680  0.11420  0.13680  1.0000 0.1200093762
H   H27       1.0  0.72320  0.86000  0.33740  1.0000 0.1200093762
H   H28       1.0  0.02260  0.38580  0.16260  1.0000 0.1200093762
H   H29       1.0  0.36320  0.47740  0.64000  1.0000 0.1200093762
H   H30       1.0  0.13680  0.77680  0.11420  1.0000 0.1200093762
H   H31       1.0  0.33740  0.72320  0.86000  1.0000 0.1200093762
H   H32       1.0  0.16260  0.02260  0.38580  1.0000 0.1200093762
H   H33       1.0  0.64000  0.36320  0.47740  1.0000 0.1200093762
H   H34       1.0  0.11420  0.13680  0.77680  1.0000 0.1200093762
H   H35       1.0  0.86000  0.33740  0.72320  1.0000 0.1200093762
H   H36       1.0  0.38580  0.16260  0.02260  1.0000 0.1200093762
H   H37       1.0  0.55780  0.69050  0.49250  1.0000 0.1082143959
H   H38       1.0  0.69800  0.06530  0.00750  1.0000 0.1082143959
H   H39       1.0  0.80200  0.80950  0.36730  1.0000 0.1082143959
H   H40       1.0  0.94220  0.43470  0.13270  1.0000 0.1082143959
H   H41       1.0  0.49250  0.55780  0.69050  1.0000 0.1082143959
H   H42       1.0  0.00750  0.69800  0.06530  1.0000 0.1082143959
H   H43       1.0  0.36730  0.80200  0.80950  1.0000 0.1082143959
H   H44       1.0  0.13270  0.94220  0.43470  1.0000 0.1082143959
H   H45       1.0  0.69050  0.49250  0.55780  1.0000 0.1082143959
H   H46       1.0  0.06530  0.00750  0.69800  1.0000 0.1082143959
H   H47       1.0  0.80950  0.36730  0.80200  1.0000 0.1082143959
H   H48       1.0  0.43470  0.13270  0.94220  1.0000 0.1082143959
H   H49       1.0  0.52340  0.73980  0.57320  1.0000 0.1312665679
H   H50       1.0  0.66667  0.95020  0.92680  1.0000 0.1312665679
H   H51       1.0  0.83340  0.76020  0.28360  1.0000 0.1312665679
H   H52       1.0  0.97660  0.54980  0.21640  1.0000 0.1312665679
H   H53       1.0  0.57320  0.52340  0.73980  1.0000 0.1312665679
H   H54       1.0  0.92680  0.66667  0.95020  1.0000 0.1312665679
H   H55       1.0  0.28360  0.83340  0.76020  1.0000 0.1312665679
H   H56       1.0  0.21640  0.97660  0.54980  1.0000 0.1312665679
H   H57       1.0  0.73980  0.57320  0.52340  1.0000 0.1312665679
H   H58       1.0  0.95020  0.92680  0.66667  1.0000 0.1312665679
H   H59       1.0  0.76020  0.28360  0.83340  1.0000 0.1312665679
H   H60       1.0  0.54980  0.21640  0.97660  1.0000 0.1312665679
H   H61       1.0  0.41020  0.80310  0.65010  1.0000 0.1200093762
H   H62       1.0  0.65300  0.76010  0.84990  1.0000 0.1200093762
H   H63       1.0  0.84700  0.69690  0.10710  1.0000 0.1200093762
H   H64       1.0  0.08980  0.73990  0.39290  1.0000 0.1200093762
H   H65       1.0  0.65010  0.41020  0.80310  1.0000 0.1200093762
H   H66       1.0  0.84990  0.65300  0.76010  1.0000 0.1200093762
H   H67       1.0  0.10710  0.84700  0.69690  1.0000 0.1082143959
H   H68       1.0  0.39290  0.08980  0.73990  1.0000 0.1200093762
H   H69       1.0  0.80310  0.65010  0.41020  1.0000 0.1200093762
H   H70       1.0  0.76010  0.84990  0.65300  1.0000 0.1200093762
H   H71       1.0  0.69690  0.10710  0.84700  1.0000 0.1200093762
H   H72       1.0  0.73990  0.39290  0.08980  1.0000 0.1200093762
H   H73       1.0  0.35980  0.78060  0.68400  1.0000 0.1408962537
H   H74       1.0  0.59660  0.67580  0.81600  1.0000 0.1408962537
H   H75       1.0  0.90340  0.71940  0.07920  1.0000 0.1408962537
H   H76       1.0  0.14020  0.82420  0.42080  1.0000 0.1408962537
H   H77       1.0  0.68400  0.35980  0.78060  1.0000 0.1408962537
H   H78       1.0  0.81600  0.59660  0.67580  1.0000 0.1408962537
H   H79       1.0  0.07920  0.90340  0.71940  1.0000 0.1408962537
H   H80       1.0  0.42080  0.14020  0.82420  1.0000 0.1408962537
H   H81       1.0  0.78060  0.68400  0.35980  1.0000 0.1408962537
H   H82       1.0  0.67580  0.81600  0.59660  1.0000 0.1408962537
H   H83       1.0  0.71940  0.07920  0.90340  1.0000 0.1408962537
H   H84       1.0  0.82420  0.42080  0.14020  1.0000 0.1408962537
H   H85       1.0  0.35820  0.83670  0.65510  1.0000 0.1408962537
H   H86       1.0  0.68160  0.70310  0.84490  1.0000 0.1408962537
H   H87       1.0  0.81840  0.66330  0.02150  1.0000 0.1408962537
H   H88       1.0  0.14180  0.79690  0.47850  1.0000 0.1408962537
H   H89       1.0  0.65510  0.35820  0.83670  1.0000 0.1408962537
H   H90       1.0  0.84490  0.68160  0.70310  1.0000 0.1408962537
H   H91       1.0  0.02150  0.81840  0.66330  1.0000 0.1408962537
H   H92       1.0  0.47850  0.14180  0.79690  1.0000 0.1408962537
H   H93       1.0  0.83670  0.65510  0.35820  1.0000 0.1408962537
H   H94       1.0  0.70310  0.84490  0.68160  1.0000 0.1408962537
H   H95       1.0  0.66330  0.02150  0.81840  1.0000 0.1408962537
H   H96       1.0  0.79690  0.47850  0.14180  1.0000 0.1408962537
H   H97       1.0  0.23460  0.79110  0.62350  1.0000 0.1082143959
H   H98       1.0  0.66760  0.61110  0.87650  1.0000 0.1082143959
H   H99       1.0  0.83240  0.70890  0.94350  1.0000 0.1082143959
H   H100      1.0  0.26540  0.88890  0.55650  1.0000 0.1082143959
H   H101      1.0  0.62350  0.23460  0.79110  1.0000 0.1082143959
H   H102      1.0  0.87650  0.66760  0.61110  1.0000 0.1082143959
H   H103      1.0  0.94350  0.83240  0.70890  1.0000 0.1082143959
H   H104      1.0  0.55650  0.26540  0.88890  1.0000 0.1082143959
H   H105      1.0  0.79110  0.62350  0.23460  1.0000 0.1082143959
H   H106      1.0  0.61110  0.87650  0.66760  1.0000 0.1082143959
H   H107      1.0  0.70890  0.94350  0.83240  1.0000 0.1082143959
H   H108      1.0  0.88890  0.55650  0.26540  1.0000 0.1082143959
H   H109      1.0  0.11200  0.73950  0.59770  1.0000 0.1082143959
H   H110      1.0  0.64180  0.51430  0.90230  1.0000 0.1082143959
H   H111      1.0  0.85820  0.76050  0.87250  1.0000 0.1082143959
H   H112      1.0  0.38800  0.98570  0.62750  1.0000 0.1082143959
H   H113      1.0  0.59770  0.11200  0.73950  1.0000 0.1082143959
H   H114      1.0  0.90230  0.64180  0.51430  1.0000 0.1082143959
H   H115      1.0  0.87250  0.85820  0.76050  1.0000 0.1082143959
H   H116      1.0  0.62750  0.38800  0.98570  1.0000 0.1082143959
H   H117      1.0  0.73950  0.59770  0.11200  1.0000 0.1082143959
H   H118      1.0  0.51430  0.90230  0.64180  1.0000 0.1082143959
H   H119      1.0  0.76050  0.87250  0.85820  1.0000 0.1082143959
H   H120      1.0  0.98570  0.62750  0.38800  1.0000 0.1082143959
H   H121      1.0  0.06540  0.55010  0.43710  1.0000 0.1200093762
H   H122      1.0  0.61300  0.62830  0.06290  1.0000 0.1200093762
H   H123      1.0  0.88700  0.94990  0.01530  1.0000 0.1200093762
H   H124      1.0  0.43460  0.87170  0.48470  1.0000 0.1200093762
H   H125      1.0  0.43710  0.06540  0.55010  1.0000 0.1200093762
H   H126      1.0  0.06290  0.61300  0.62830  1.0000 0.1200093762
H   H127      1.0  0.01530  0.88700  0.94990  1.0000 0.1200093762
H   H128      1.0  0.48470  0.43460  0.87170  1.0000 0.1200093762
H   H129      1.0  0.55010  0.43710  0.06540  1.0000 0.1200093762
H   H130      1.0  0.62830  0.06290  0.61300  1.0000 0.1200093762
H   H131      1.0  0.94990  0.01530  0.88700  1.0000 0.1200093762
H   H132      1.0  0.87170  0.48470  0.43460  1.0000 0.1200093762
H   H133      1.0  0.18380  0.59940  0.46560  1.0000 0.1082143959
H   H134      1.0  0.63380  0.71820  0.03440  1.0000 0.1082143959
H   H135      1.0  0.86620  0.90060  0.08440  1.0000 0.1082143959
H   H136      1.0  0.31620  0.78180  0.41560  1.0000 0.1082143959
H   H137      1.0  0.46560  0.18380  0.59940  1.0000 0.1082143959
H   H138      1.0  0.03440  0.63380  0.71820  1.0000 0.1082143959
H   H139      1.0  0.08440  0.86620  0.90060  1.0000 0.1082143959
H   H140      1.0  0.41560  0.31620  0.78180  1.0000 0.1082143959
H   H141      1.0  0.59940  0.46560  0.18380  1.0000 0.1082143959
H   H142      1.0  0.71820  0.03440  0.63380  1.0000 0.1082143959
H   H143      1.0  0.90060  0.08440  0.86620  1.0000 0.1082143959
H   H144      1.0  0.78180  0.41560  0.31620  1.0000 0.1082143959
C   C1        1.0  0.38950  0.63940  0.37590  1.0000 0.0699190144
C   C2        1.0  0.76350  0.01360  0.12410  1.0000 0.0699190144
C   C3        1.0  0.73650  0.86060  0.25010  1.0000 0.0699190144
C   C4        1.0  0.11050  0.48640  0.24990  1.0000 0.0699190144
C   C5        1.0  0.37590  0.38950  0.63940  1.0000 0.0699190144
C   C6        1.0  0.12410  0.76350  0.01360  1.0000 0.0699190144
C   C7        1.0  0.25010  0.73650  0.86060  1.0000 0.0699190144
C   C8        1.0  0.24990  0.11050  0.48640  1.0000 0.0699190144
C   C9        1.0  0.63940  0.37590  0.38950  1.0000 0.0699190144
C   C10       1.0  0.01360  0.12410  0.76350  1.0000 0.0699190144
C   C11       1.0  0.86060  0.25010  0.73650  1.0000 0.0699190144
C   C12       1.0  0.48640  0.24990  0.11050  1.0000 0.0699190144
C   C13       1.0  0.46200  0.65280  0.39780  1.0000 -0.1810280482
C   C14       1.0  0.75500  0.06420  0.10220  1.0000 -0.1810280482
C   C15       1.0  0.74500  0.84720  0.30920  1.0000 -0.1810280482
C   C16       1.0  0.03800  0.43580  0.19080  1.0000 -0.1810280482
C   C17       1.0  0.39780  0.46200  0.65280  1.0000 -0.1810280482
C   C18       1.0  0.10220  0.75500  0.06420  1.0000 -0.1810280482
C   C19       1.0  0.30920  0.74500  0.84720  1.0000 -0.1810280482
C   C20       1.0  0.19080  0.03800  0.43580  1.0000 -0.1810280482
C   C21       1.0  0.65280  0.39780  0.46200  1.0000 -0.1810280482
C   C22       1.0  0.06420  0.10220  0.75500  1.0000 -0.1810280482
C   C23       1.0  0.84720  0.30920  0.74500  1.0000 -0.1810280482
C   C24       1.0  0.43580  0.19080  0.03800  1.0000 -0.1810280482
C   C25       1.0  0.51110  0.68660  0.47510  1.0000 -0.0287371422
C   C26       1.0  0.71150  0.03600  0.02490  1.0000 -0.0287371422
C   C27       1.0  0.78850  0.81340  0.32450  1.0000 -0.0287371422
C   C28       1.0  0.98890  0.46400  0.17550  1.0000 -0.0287371422
C   C29       1.0  0.47510  0.51110  0.68660  1.0000 -0.0287371422
C   C30       1.0  0.02490  0.71150  0.03600  1.0000 -0.0287371422
C   C31       1.0  0.32450  0.78850  0.81340  1.0000 -0.0287371422
C   C32       1.0  0.17550  0.98890  0.46400  1.0000 -0.0287371422
C   C33       1.0  0.68660  0.47510  0.51110  1.0000 -0.0287371422
C   C34       1.0  0.03600  0.02490  0.71150  1.0000 -0.0287371422
C   C35       1.0  0.81340  0.32450  0.78850  1.0000 -0.0287371422
C   C36       1.0  0.46400  0.17550  0.98890  1.0000 -0.0287371422
C   C37       1.0  0.48900  0.71280  0.52240  1.0000 -0.2290235074
C   C38       1.0  0.69040  0.96660  0.97760  1.0000 -0.2290235074
C   C39       1.0  0.80960  0.78720  0.27620  1.0000 -0.2290235074
C   C40       1.0  0.01100  0.53340  0.22380  1.0000 -0.2290235074
C   C41       1.0  0.52240  0.48900  0.71280  1.0000 -0.2290235074
C   C42       1.0  0.97760  0.69040  0.96660  1.0000 -0.2290235074
C   C43       1.0  0.27620  0.80960  0.78720  1.0000 -0.2290235074
C   C44       1.0  0.22380  0.01100  0.53340  1.0000 -0.2290235074
C   C45       1.0  0.71280  0.52240  0.48900  1.0000 -0.2290235074
C   C46       1.0  0.96660  0.97760  0.69040  1.0000 -0.2290235074
C   C47       1.0  0.78720  0.27620  0.80960  1.0000 -0.2290235074
C   C48       1.0  0.53340  0.22380  0.01100  1.0000 -0.2290235074
C   C49       1.0  0.41850  0.70240  0.50050  1.0000 0.2951174118
C   C50       1.0  0.70190  0.91800  0.99950  1.0000 0.2943104245
C   C51       1.0  0.79810  0.79760  0.21610  1.0000 0.2943104245
C   C52       1.0  0.08150  0.58200  0.28390  1.0000 0.2943104245
C   C53       1.0  0.50050  0.41850  0.70240  1.0000 0.2943104245
C   C54       1.0  0.99950  0.70190  0.91800  1.0000 0.2943104245
C   C55       1.0  0.21610  0.79810  0.79760  1.0000 0.2943104245
C   C56       1.0  0.28390  0.08150  0.58200  1.0000 0.2943104245
C   C57       1.0  0.70240  0.50050  0.41850  1.0000 0.2943104245
C   C58       1.0  0.91800  0.99950  0.70190  1.0000 0.2943104245
C   C59       1.0  0.79760  0.21610  0.79810  1.0000 0.2943104245
C   C60       1.0  0.58200  0.28390  0.08150  1.0000 0.2943104245
C   C61       1.0  0.30130  0.72920  0.57090  1.0000 0.1663990207
C   C62       1.0  0.65830  0.73040  0.92910  1.0000 0.1663990207
C   C63       1.0  0.84170  0.77080  0.07210  1.0000 0.1663990207
C   C64       1.0  0.19870  0.76960  0.42790  1.0000 0.1663990207
C   C65       1.0  0.57090  0.30130  0.72920  1.0000 0.1663990207
C   C66       1.0  0.92910  0.65830  0.73040  1.0000 0.1663990207
C   C67       1.0  0.07210  0.84170  0.77080  1.0000 0.1663990207
C   C68       1.0  0.42790  0.19870  0.76960  1.0000 0.1663990207
C   C69       1.0  0.72920  0.57090  0.30130  1.0000 0.1663990207
C   C70       1.0  0.73040  0.92910  0.65830  1.0000 0.1663990207
C   C71       1.0  0.77080  0.07210  0.84170  1.0000 0.1663990207
C   C72       1.0  0.76960  0.42790  0.19870  1.0000 0.1663990207
C   C73       1.0  0.36290  0.79320  0.64690  1.0000 -0.4908779028
C   C74       1.0  0.64630  0.71600  0.85310  1.0000 -0.4908779028
C   C75       1.0  0.85370  0.70680  0.06970  1.0000 -0.4908779028
C   C76       1.0  0.13710  0.78400  0.43030  1.0000 -0.4908779028
C   C77       1.0  0.64690  0.36290  0.79320  1.0000 -0.4908779028
C   C78       1.0  0.85310  0.64630  0.71600  1.0000 -0.4908779028
C   C79       1.0  0.06970  0.85370  0.70680  1.0000 -0.4908779028
C   C80       1.0  0.43030  0.13710  0.78400  1.0000 -0.4908779028
C   C81       1.0  0.79320  0.64690  0.36290  1.0000 -0.4908779028
C   C82       1.0  0.71600  0.85310  0.64630  1.0000 -0.4908779028
C   C83       1.0  0.70680  0.06970  0.85370  1.0000 -0.4908779028
C   C84       1.0  0.78400  0.43030  0.13710  1.0000 -0.4908779028
C   C85       1.0  0.22490  0.69930  0.55100  1.0000 0.0178338805
C   C86       1.0  0.64830  0.67390  0.94900  1.0000 0.0178338805
C   C87       1.0  0.85170  0.80070  0.02560  1.0000 0.0178338805
C   C88       1.0  0.27510  0.82610  0.47440  1.0000 0.0178338805
C   C89       1.0  0.55100  0.22490  0.69930  1.0000 0.0178338805
C   C90       1.0  0.94900  0.64830  0.67390  1.0000 0.0178338805
C   C91       1.0  0.02560  0.85170  0.80070  1.0000 0.0178338805
C   C92       1.0  0.47440  0.27510  0.82610  1.0000 0.0178338805
C   C93       1.0  0.69930  0.55100  0.22490  1.0000 0.0178338805
C   C94       1.0  0.67390  0.94900  0.64830  1.0000 0.0178338805
C   C95       1.0  0.80070  0.02560  0.85170  1.0000 0.0178338805
C   C96       1.0  0.82610  0.47440  0.27510  1.0000 0.0178338805
C   C97       1.0  0.20080  0.74130  0.58710  1.0000 -0.1701401062
C   C98       1.0  0.65420  0.61370  0.91290  1.0000 -0.1701401062
C   C99       1.0  0.84580  0.75870  0.95950  1.0000 -0.1701401062
C   C100      1.0  0.29920  0.88630  0.54050  1.0000 -0.1701401062
C   C101      1.0  0.58710  0.20080  0.74130  1.0000 -0.1701401062
C   C102      1.0  0.91290  0.65420  0.61370  1.0000 -0.1701401062
C   C103      1.0  0.95950  0.84580  0.75870  1.0000 -0.1701401062
C   C104      1.0  0.54050  0.29920  0.88630  1.0000 -0.1701401062
C   C105      1.0  0.74130  0.58710  0.20080  1.0000 -0.1701401062
C   C106      1.0  0.61370  0.91290  0.65420  1.0000 -0.1701401062
C   C107      1.0  0.75870  0.95950  0.84580  1.0000 -0.1701401062
C   C108      1.0  0.88630  0.54050  0.29920  1.0000 -0.1701401062
C   C109      1.0  0.12700  0.71130  0.57070  1.0000 -0.1914164579
C   C110      1.0  0.64060  0.55630  0.92930  1.0000 -0.1914164579
C   C111      1.0  0.85940  0.78870  0.91570  1.0000 -0.1914164579
C   C112      1.0  0.37300  0.94370  0.58430  1.0000 -0.1914164579
C   C113      1.0  0.57070  0.12700  0.71130  1.0000 -0.1914164579
C   C114      1.0  0.92930  0.64060  0.55630  1.0000 -0.1914164579
C   C115      1.0  0.91570  0.85940  0.78870  1.0000 -0.1914164579
C   C116      1.0  0.58430  0.37300  0.94370  1.0000 -0.1914164579
C   C117      1.0  0.71130  0.57070  0.12700  1.0000 -0.1914164579
C   C118      1.0  0.55630  0.92930  0.64060  1.0000 -0.1914164579
C   C119      1.0  0.78870  0.91570  0.85940  1.0000 -0.1914164579
C   C120      1.0  0.94370  0.58430  0.37300  1.0000 -0.1914164579
C   C121      1.0  0.07880  0.64240  0.51620  1.0000 0.1408962537
C   C122      1.0  0.62620  0.56260  0.98380  1.0000 0.1408962537
C   C123      1.0  0.87380  0.85760  0.93640  1.0000 0.1408962537
C   C124      1.0  0.42120  0.93740  0.56360  1.0000 0.1408962537
C   C125      1.0  0.51620  0.07880  0.64240  1.0000 0.1408962537
C   C126      1.0  0.98380  0.62620  0.56260  1.0000 0.1408962537
C   C127      1.0  0.93640  0.87380  0.85760  1.0000 0.1408962537
C   C128      1.0  0.56360  0.42120  0.93740  1.0000 0.1408962537
C   C129      1.0  0.64240  0.51620  0.07880  1.0000 0.1408962537
C   C130      1.0  0.56260  0.98380  0.62620  1.0000 0.1408962537
C   C131      1.0  0.85760  0.93640  0.87380  1.0000 0.1408962537
C   C132      1.0  0.93740  0.56360  0.42120  1.0000 0.1408962537
C   C133      1.0  0.10010  0.59880  0.47570  1.0000 -0.1541660155
C   C134      1.0  0.62310  0.62440  0.02430  1.0000 -0.1541660155
C   C135      1.0  0.87690  0.90120  0.00130  1.0000 -0.1541660155
C   C136      1.0  0.39990  0.87560  0.49870  1.0000 -0.1541660155
C   C137      1.0  0.47570  0.10010  0.59880  1.0000 -0.1541660155
C   C138      1.0  0.02430  0.62310  0.62440  1.0000 -0.1541660155
C   C139      1.0  0.00130  0.87690  0.90120  1.0000 -0.1541660155
C   C140      1.0  0.49870  0.39990  0.87560  1.0000 -0.1541660155
C   C141      1.0  0.59880  0.47570  0.10010  1.0000 -0.1541660155
C   C142      1.0  0.62440  0.02430  0.62310  1.0000 -0.1541660155
C   C143      1.0  0.90120  0.00130  0.87690  1.0000 -0.1541660155
C   C144      1.0  0.87560  0.49870  0.39990  1.0000 -0.1541660155
C   C145      1.0  0.16990  0.62820  0.49350  1.0000 -0.1347813867
C   C146      1.0  0.63470  0.67640  0.00650  1.0000 -0.1347813867
C   C147      1.0  0.86530  0.87180  0.04170  1.0000 -0.1347813867
C   C148      1.0  0.33010  0.82360  0.45830  1.0000 -0.1354614608
C   C149      1.0  0.49350  0.16990  0.62820  1.0000 -0.1347813867
C   C150      1.0  0.00650  0.63470  0.67640  1.0000 -0.1354614608
C   C151      1.0  0.04170  0.86530  0.87180  1.0000 -0.1354614608
C   C152      1.0  0.45830  0.33010  0.82360  1.0000 -0.1347813867
C   C153      1.0  0.62820  0.49350  0.16990  1.0000 -0.1354614608
C   C154      1.0  0.67640  0.00650  0.63470  1.0000 -0.1347813867
C   C155      1.0  0.87180  0.04170  0.86530  1.0000 -0.1347813867
C   C156      1.0  0.82360  0.45830  0.33010  1.0000 -0.1347813867
N   N1        1.0  0.36900  0.66650  0.42530  1.0000 -0.3033950192
N   N2        1.0  0.74120  0.94370  0.07470  1.0000 -0.3033950192
N   N3        1.0  0.75880  0.83350  0.20250  1.0000 -0.3033950192
N   N4        1.0  0.13100  0.55630  0.29750  1.0000 -0.3033950192
N   N5        1.0  0.42530  0.36900  0.66650  1.0000 -0.3033950192
N   N6        1.0  0.07470  0.74120  0.94370  1.0000 -0.3033950192
N   N7        1.0  0.20250  0.75880  0.83350  1.0000 -0.3033950192
N   N8        1.0  0.29750  0.13100  0.55630  1.0000 -0.3033950192
N   N9        1.0  0.66650  0.42530  0.36900  1.0000 -0.3033950192
N   N10       1.0  0.94370  0.07470  0.74120  1.0000 -0.3033950192
N   N11       1.0  0.83350  0.20250  0.75880  1.0000 -0.3033950192
N   N12       1.0  0.55630  0.29750  0.13100  1.0000 -0.3033950192
N   N13       1.0  0.39290  0.72180  0.54490  1.0000 -0.1914164579
N   N14       1.0  0.67690  0.84800  0.95510  1.0000 -0.1914164579
N   N15       1.0  0.82310  0.77820  0.17110  1.0000 -0.1914164579
N   N16       1.0  0.10710  0.65200  0.32890  1.0000 -0.1914164579
N   N17       1.0  0.54490  0.39290  0.72180  1.0000 -0.1914164579
N   N18       1.0  0.95510  0.67690  0.84800  1.0000 -0.1914164579
N   N19       1.0  0.17110  0.82310  0.77820  1.0000 -0.1914164579
N   N20       1.0  0.32890  0.10710  0.65200  1.0000 -0.1914164579
N   N21       1.0  0.72180  0.54490  0.39290  1.0000 -0.1914164579
N   N22       1.0  0.84800  0.95510  0.67690  1.0000 -0.1914164579
N   N23       1.0  0.77820  0.17110  0.82310  1.0000 -0.1914164579
N   N24       1.0  0.65200  0.32890  0.10710  1.0000 -0.1914164579
N   N25       1.0  0.32010  0.69720  0.52150  1.0000 -0.2034336527
N   N26       1.0  0.67570  0.79860  0.97850  1.0000 -0.2034336527
N   N27       1.0  0.82430  0.80280  0.12290  1.0000 -0.2034336527
N   N28       1.0  0.17990  0.70140  0.37710  1.0000 -0.2034336527
N   N29       1.0  0.52150  0.32010  0.69720  1.0000 -0.2034336527
N   N30       1.0  0.97850  0.67570  0.79860  1.0000 -0.2034336527
N   N31       1.0  0.12290  0.82430  0.80280  1.0000 -0.2034336527
N   N32       1.0  0.37710  0.17990  0.70140  1.0000 -0.2034336527
N   N33       1.0  0.69720  0.52150  0.32010  1.0000 -0.2034336527
N   N34       1.0  0.79860  0.97850  0.67570  1.0000 -0.2034336527
N   N35       1.0  0.80280  0.12290  0.82430  1.0000 -0.2034336527
N   N36       1.0  0.70140  0.37710  0.17990  1.0000 -0.2034336527
N   N37       1.0  0.00000  0.61200  0.50000  1.0000 -0.2724148072
N   N38       1.0  0.61200  0.50000  0.00000  1.0000 -0.2724148072
N   N39       1.0  0.88800  0.88800  0.88800  1.0000 -0.2724148072
N   N40       1.0  0.50000  0.00000  0.61200  1.0000 -0.2724148072
