# DDEC6 charges by PACMAN v1.1 (https://github.com/mtap-research/PACMAN-charge/)
data_2012[Zn][nan]3[ASR]38
_chemical_formula_sum              "Zn52 H104 C288 O254"
_cell_length_a       26.8326
_cell_length_b       26.8326
_cell_length_c       26.8326
_cell_angle_alpha    109.471
_cell_angle_beta     109.471
_cell_angle_gamma    109.471

_symmetry_space_group_name_H-M    "P 1"
_symmetry_Int_Tables_number       1

loop_
  _symmetry_equiv_pos_as_xyz
  'x, y, z'

loop_
  _atom_site_type_symbol
  _atom_site_label
  _atom_site_symmetry_multiplicity
  _atom_site_fract_x
  _atom_site_fract_y
  _atom_site_fract_z
  _atom_site_occupancy
  _atom_site_charge
Zn  Zn1       1.0  0.23959  0.79732  0.45329  1.0000 0.9209388132
Zn  Zn2       1.0  0.34403  0.78630  0.54671  1.0000 0.9209388132
Zn  Zn3       1.0  0.65597  0.20268  0.44227  1.0000 0.9209388132
Zn  Zn4       1.0  0.76041  0.21370  0.55773  1.0000 0.9209388132
Zn  Zn5       1.0  0.45329  0.23959  0.79732  1.0000 0.9209388132
Zn  Zn6       1.0  0.54671  0.34403  0.78630  1.0000 0.9209388132
Zn  Zn7       1.0  0.44227  0.65597  0.20268  1.0000 0.9209388132
Zn  Zn8       1.0  0.55773  0.76041  0.21370  1.0000 0.9209388132
Zn  Zn9       1.0  0.79732  0.45329  0.23959  1.0000 0.9209388132
Zn  Zn10      1.0  0.78630  0.54671  0.34403  1.0000 0.9209388132
Zn  Zn11      1.0  0.20268  0.44227  0.65597  1.0000 0.9209388132
Zn  Zn12      1.0  0.21370  0.55773  0.76041  1.0000 0.9209388132
Zn  Zn13      1.0  0.00000  0.51924  0.00000  1.0000 1.0889895743
Zn  Zn14      1.0  0.51924  0.00000  0.00000  1.0000 1.0889895743
Zn  Zn15      1.0  0.48076  0.48076  0.48076  1.0000 1.0889895743
Zn  Zn16      1.0  0.00000  0.00000  0.51924  1.0000 1.0889895743
Zn  Zn17      1.0  0.76948  0.32811  0.54903  1.0000 0.9286768472
Zn  Zn18      1.0  0.77908  0.22045  0.45097  1.0000 0.9286768472
Zn  Zn19      1.0  0.22092  0.67189  0.44137  1.0000 0.9286768472
Zn  Zn20      1.0  0.23052  0.77955  0.55863  1.0000 0.9286768472
Zn  Zn21      1.0  0.54903  0.76948  0.32811  1.0000 0.9286768472
Zn  Zn22      1.0  0.45097  0.77908  0.22045  1.0000 0.9286768472
Zn  Zn23      1.0  0.44137  0.22092  0.67189  1.0000 0.9286768472
Zn  Zn24      1.0  0.55863  0.23052  0.77955  1.0000 0.9286768472
Zn  Zn25      1.0  0.32811  0.54903  0.76948  1.0000 0.9286768472
Zn  Zn26      1.0  0.22045  0.45097  0.77908  1.0000 0.9286768472
Zn  Zn27      1.0  0.67189  0.44137  0.22092  1.0000 0.9286768472
Zn  Zn28      1.0  0.77955  0.55863  0.23052  1.0000 0.9286768472
Zn  Zn29      1.0  0.96546  0.63612  0.91182  1.0000 0.9461309846
Zn  Zn30      1.0  0.72430  0.05364  0.08818  1.0000 0.9461309846
Zn  Zn31      1.0  0.27570  0.36388  0.32934  1.0000 0.9461309846
Zn  Zn32      1.0  0.03454  0.94636  0.67066  1.0000 0.9461309846
Zn  Zn33      1.0  0.91182  0.96546  0.63612  1.0000 0.9461309846
Zn  Zn34      1.0  0.08818  0.72430  0.05364  1.0000 0.9461309846
Zn  Zn35      1.0  0.32934  0.27570  0.36388  1.0000 0.9461309846
Zn  Zn36      1.0  0.67066  0.03454  0.94636  1.0000 0.9461309846
Zn  Zn37      1.0  0.63612  0.91182  0.96546  1.0000 0.9461309846
Zn  Zn38      1.0  0.05364  0.08818  0.72430  1.0000 0.9461309846
Zn  Zn39      1.0  0.36388  0.32934  0.27570  1.0000 0.9461309846
Zn  Zn40      1.0  0.94636  0.67066  0.03454  1.0000 0.9461309846
Zn  Zn41      1.0  0.03631  0.39955  0.08744  1.0000 0.9416650122
Zn  Zn42      1.0  0.31211  0.94887  0.91256  1.0000 0.9416650122
Zn  Zn43      1.0  0.68789  0.60045  0.63676  1.0000 0.9416650122
Zn  Zn44      1.0  0.96369  0.05113  0.36324  1.0000 0.9416650122
Zn  Zn45      1.0  0.08744  0.03631  0.39955  1.0000 0.9416650122
Zn  Zn46      1.0  0.91256  0.31211  0.94887  1.0000 0.9416650122
Zn  Zn47      1.0  0.63676  0.68789  0.60045  1.0000 0.9416650122
Zn  Zn48      1.0  0.36324  0.96369  0.05113  1.0000 0.9416650122
Zn  Zn49      1.0  0.39955  0.08744  0.03631  1.0000 0.9416650122
Zn  Zn50      1.0  0.94887  0.91256  0.31211  1.0000 0.9416650122
Zn  Zn51      1.0  0.60045  0.63676  0.68789  1.0000 0.9416650122
Zn  Zn52      1.0  0.05113  0.36324  0.96369  1.0000 0.9416650122
H   H1        1.0  0.00000  0.62300  0.00000  1.0000 0.3833473732
H   H2        1.0  0.62300  0.00000  0.00000  1.0000 0.3833473732
H   H3        1.0  0.37700  0.37700  0.37700  1.0000 0.3833473732
H   H4        1.0  0.00000  0.00000  0.62300  1.0000 0.3833473732
H   H5        1.0  0.00000  0.41360  0.00000  1.0000 0.3909094742
H   H6        1.0  0.41360  0.00000  0.00000  1.0000 0.3909094742
H   H7        1.0  0.58640  0.58640  0.58640  1.0000 0.3909094742
H   H8        1.0  0.00000  0.00000  0.41360  1.0000 0.3909094742
H   H9        1.0  0.07320  0.68050  0.81950  1.0000 0.1657673387
H   H10       1.0  0.86100  0.25370  0.18050  1.0000 0.1657673387
H   H11       1.0  0.13900  0.31950  0.39270  1.0000 0.1657673387
H   H12       1.0  0.92680  0.74630  0.60730  1.0000 0.1657673387
H   H13       1.0  0.81950  0.07320  0.68050  1.0000 0.1657673387
H   H14       1.0  0.18050  0.86100  0.25370  1.0000 0.1657673387
H   H15       1.0  0.39270  0.13900  0.31950  1.0000 0.1657673387
H   H16       1.0  0.60730  0.92680  0.74630  1.0000 0.1657673387
H   H17       1.0  0.68050  0.81950  0.07320  1.0000 0.1648499554
H   H18       1.0  0.25370  0.18050  0.86100  1.0000 0.1657673387
H   H19       1.0  0.31950  0.39270  0.13900  1.0000 0.1657673387
H   H20       1.0  0.74630  0.60730  0.92680  1.0000 0.1657673387
H   H21       1.0  0.11560  0.71790  0.24410  1.0000 0.1433663384
H   H22       1.0  0.47380  0.87150  0.75590  1.0000 0.1433663384
H   H23       1.0  0.52620  0.28210  0.39770  1.0000 0.1433663384
H   H24       1.0  0.88440  0.12850  0.60230  1.0000 0.1433663384
H   H25       1.0  0.24410  0.11560  0.71790  1.0000 0.1433663384
H   H26       1.0  0.75590  0.47380  0.87150  1.0000 0.1433663384
H   H27       1.0  0.39770  0.52620  0.28210  1.0000 0.1433663384
H   H28       1.0  0.60230  0.88440  0.12850  1.0000 0.1433663384
H   H29       1.0  0.71790  0.24410  0.11560  1.0000 0.1433663384
H   H30       1.0  0.87150  0.75590  0.47380  1.0000 0.1433663384
H   H31       1.0  0.28210  0.39770  0.52620  1.0000 0.1433663384
H   H32       1.0  0.12850  0.60230  0.88440  1.0000 0.1433663384
H   H33       1.0  0.06460  0.63330  0.13610  1.0000 0.1340083745
H   H34       1.0  0.49720  0.92850  0.86390  1.0000 0.1340083745
H   H35       1.0  0.50280  0.36670  0.43130  1.0000 0.1340083745
H   H36       1.0  0.93540  0.07150  0.56870  1.0000 0.1340083745
H   H37       1.0  0.13610  0.06460  0.63330  1.0000 0.1340083745
H   H38       1.0  0.86390  0.49720  0.92850  1.0000 0.1340083745
H   H39       1.0  0.43130  0.50280  0.36670  1.0000 0.1340083745
H   H40       1.0  0.56870  0.93540  0.07150  1.0000 0.1340083745
H   H41       1.0  0.63330  0.13610  0.06460  1.0000 0.1340083745
H   H42       1.0  0.92850  0.86390  0.49720  1.0000 0.1340083745
H   H43       1.0  0.36670  0.43130  0.50280  1.0000 0.1340083745
H   H44       1.0  0.07150  0.56870  0.93540  1.0000 0.1340083745
H   H45       1.0  0.44150  0.93990  0.37140  1.0000 0.1433663384
H   H46       1.0  0.56850  0.07010  0.62860  1.0000 0.1433663384
H   H47       1.0  0.43150  0.06010  0.50160  1.0000 0.1433663384
H   H48       1.0  0.55850  0.92990  0.49840  1.0000 0.1433663384
H   H49       1.0  0.37140  0.44150  0.93990  1.0000 0.1433663384
H   H50       1.0  0.62860  0.56850  0.07010  1.0000 0.1433663384
H   H51       1.0  0.50160  0.43150  0.06010  1.0000 0.1433663384
H   H52       1.0  0.49840  0.55850  0.92990  1.0000 0.1433663384
H   H53       1.0  0.93990  0.37140  0.44150  1.0000 0.1433663384
H   H54       1.0  0.07010  0.62860  0.56850  1.0000 0.1433663384
H   H55       1.0  0.06010  0.50160  0.43150  1.0000 0.1433663384
H   H56       1.0  0.92990  0.49840  0.55850  1.0000 0.1433663384
H   H57       1.0  0.38760  0.94420  0.43160  1.0000 0.1456689818
H   H58       1.0  0.51260  0.95600  0.56840  1.0000 0.1456689818
H   H59       1.0  0.48740  0.05580  0.44340  1.0000 0.1456689818
H   H60       1.0  0.61240  0.04400  0.55660  1.0000 0.1456689818
H   H61       1.0  0.43160  0.38760  0.94420  1.0000 0.1456689818
H   H62       1.0  0.56840  0.51260  0.95600  1.0000 0.1456689818
H   H63       1.0  0.44340  0.48740  0.05580  1.0000 0.1456689818
H   H64       1.0  0.55660  0.61240  0.04400  1.0000 0.1456689818
H   H65       1.0  0.94420  0.43160  0.38760  1.0000 0.1456689818
H   H66       1.0  0.95600  0.56840  0.51260  1.0000 0.1456689818
H   H67       1.0  0.05580  0.44340  0.48740  1.0000 0.1456689818
H   H68       1.0  0.04400  0.55660  0.61240  1.0000 0.1456689818
H   H69       1.0  0.87010  0.31050  0.76300  1.0000 0.1433663384
H   H70       1.0  0.54750  0.10710  0.23700  1.0000 0.1433663384
H   H71       1.0  0.45250  0.68950  0.55960  1.0000 0.1433663384
H   H72       1.0  0.12990  0.89290  0.44040  1.0000 0.1456689818
H   H73       1.0  0.76300  0.87010  0.31050  1.0000 0.1456689818
H   H74       1.0  0.23700  0.54750  0.10710  1.0000 0.1456689818
H   H75       1.0  0.55960  0.45250  0.68950  1.0000 0.1433663384
H   H76       1.0  0.44040  0.12990  0.89290  1.0000 0.1456689818
H   H77       1.0  0.31050  0.76300  0.87010  1.0000 0.1456689818
H   H78       1.0  0.10710  0.23700  0.54750  1.0000 0.1433663384
H   H79       1.0  0.68950  0.55960  0.45250  1.0000 0.1433663384
H   H80       1.0  0.89290  0.44040  0.12990  1.0000 0.1433663384
H   H81       1.0  0.93550  0.40290  0.86660  1.0000 0.1340083745
H   H82       1.0  0.53630  0.06890  0.13340  1.0000 0.1340083745
H   H83       1.0  0.46370  0.59710  0.53260  1.0000 0.1340083745
H   H84       1.0  0.06450  0.93110  0.46740  1.0000 0.1340083745
H   H85       1.0  0.86660  0.93550  0.40290  1.0000 0.1340083745
H   H86       1.0  0.13340  0.53630  0.06890  1.0000 0.1340083745
H   H87       1.0  0.53260  0.46370  0.59710  1.0000 0.1340083745
H   H88       1.0  0.46740  0.06450  0.93110  1.0000 0.1340083745
H   H89       1.0  0.40290  0.86660  0.93550  1.0000 0.1340083745
H   H90       1.0  0.06890  0.13340  0.53630  1.0000 0.1340083745
H   H91       1.0  0.59710  0.53260  0.46370  1.0000 0.1340083745
H   H92       1.0  0.93110  0.46740  0.06450  1.0000 0.1340083745
H   H93       1.0  0.15770  0.75470  0.81940  1.0000 0.1657673387
H   H94       1.0  0.93530  0.33830  0.18060  1.0000 0.1657673387
H   H95       1.0  0.06470  0.24530  0.40300  1.0000 0.1657673387
H   H96       1.0  0.84230  0.66170  0.59700  1.0000 0.1657673387
H   H97       1.0  0.81940  0.15770  0.75470  1.0000 0.1657673387
H   H98       1.0  0.18060  0.93530  0.33830  1.0000 0.1657673387
H   H99       1.0  0.40300  0.06470  0.24530  1.0000 0.1657673387
H   H100      1.0  0.59700  0.84230  0.66170  1.0000 0.1657673387
H   H101      1.0  0.75470  0.81940  0.15770  1.0000 0.1657673387
H   H102      1.0  0.33830  0.18060  0.93530  1.0000 0.1648499554
H   H103      1.0  0.24530  0.40300  0.06470  1.0000 0.1657673387
H   H104      1.0  0.66170  0.59700  0.84230  1.0000 0.1657673387
C   C1        1.0  0.10800  0.71540  0.85360  1.0000 -0.1824544526
C   C2        1.0  0.86180  0.25440  0.14640  1.0000 -0.1824544526
C   C3        1.0  0.13820  0.28460  0.39260  1.0000 -0.1824544526
C   C4        1.0  0.89200  0.74560  0.60740  1.0000 -0.1824544526
C   C5        1.0  0.85360  0.10800  0.71540  1.0000 -0.1824544526
C   C6        1.0  0.14640  0.86180  0.25440  1.0000 -0.1824544526
C   C7        1.0  0.39260  0.13820  0.28460  1.0000 -0.1824544526
C   C8        1.0  0.60740  0.89200  0.74560  1.0000 -0.1824544526
C   C9        1.0  0.71540  0.85360  0.10800  1.0000 -0.1824544526
C   C10       1.0  0.25440  0.14640  0.86180  1.0000 -0.1824544526
C   C11       1.0  0.28460  0.39260  0.13820  1.0000 -0.1824544526
C   C12       1.0  0.74560  0.60740  0.89200  1.0000 -0.1824544526
C   C13       1.0  0.11110  0.67920  0.23190  1.0000 -0.168496063
C   C14       1.0  0.44730  0.87920  0.76810  1.0000 -0.168496063
C   C15       1.0  0.55270  0.32080  0.43190  1.0000 -0.168496063
C   C16       1.0  0.88890  0.12080  0.56810  1.0000 -0.168496063
C   C17       1.0  0.23190  0.11110  0.67920  1.0000 -0.168496063
C   C18       1.0  0.76810  0.44730  0.87920  1.0000 -0.168496063
C   C19       1.0  0.43190  0.55270  0.32080  1.0000 -0.168496063
C   C20       1.0  0.56810  0.88890  0.12080  1.0000 -0.168496063
C   C21       1.0  0.67920  0.23190  0.11110  1.0000 -0.168496063
C   C22       1.0  0.87920  0.76810  0.44730  1.0000 -0.168496063
C   C23       1.0  0.32080  0.43190  0.55270  1.0000 -0.168496063
C   C24       1.0  0.12080  0.56810  0.88890  1.0000 -0.168496063
C   C25       1.0  0.08240  0.63190  0.17150  1.0000 -0.1824544526
C   C26       1.0  0.46040  0.91090  0.82850  1.0000 -0.1906180464
C   C27       1.0  0.53960  0.36810  0.45050  1.0000 -0.1824544526
C   C28       1.0  0.91760  0.08910  0.54950  1.0000 -0.1824544526
C   C29       1.0  0.17150  0.08240  0.63190  1.0000 -0.1824544526
C   C30       1.0  0.82850  0.46040  0.91090  1.0000 -0.1906180464
C   C31       1.0  0.45050  0.53960  0.36810  1.0000 -0.1824544526
C   C32       1.0  0.54950  0.91760  0.08910  1.0000 -0.1824544526
C   C33       1.0  0.63190  0.17150  0.08240  1.0000 -0.1824544526
C   C34       1.0  0.91090  0.82850  0.46040  1.0000 -0.1824544526
C   C35       1.0  0.36810  0.45050  0.53960  1.0000 -0.1824544526
C   C36       1.0  0.08910  0.54950  0.91760  1.0000 -0.1824544526
C   C37       1.0  0.06230  0.52090  0.12900  1.0000 0.5611662662
C   C38       1.0  0.39190  0.93330  0.87100  1.0000 0.5611662662
C   C39       1.0  0.60810  0.47910  0.54140  1.0000 0.5611662662
C   C40       1.0  0.93770  0.06670  0.45860  1.0000 0.5611662662
C   C41       1.0  0.12900  0.06230  0.52090  1.0000 0.5611662662
C   C42       1.0  0.87100  0.39190  0.93330  1.0000 0.5611662662
C   C43       1.0  0.54140  0.60810  0.47910  1.0000 0.5611662662
C   C44       1.0  0.45860  0.93770  0.06670  1.0000 0.5611662662
C   C45       1.0  0.52090  0.12900  0.06230  1.0000 0.5611662662
C   C46       1.0  0.93330  0.87100  0.39190  1.0000 0.5611662662
C   C47       1.0  0.47910  0.54140  0.60810  1.0000 0.5611662662
C   C48       1.0  0.06670  0.45860  0.93770  1.0000 0.5611662662
C   C49       1.0  0.13150  0.65740  0.27010  1.0000 0.0890638312
C   C50       1.0  0.38730  0.86140  0.72990  1.0000 0.0890638312
C   C51       1.0  0.61270  0.34260  0.47410  1.0000 0.0890638312
C   C52       1.0  0.86850  0.13860  0.52590  1.0000 0.0890638312
C   C53       1.0  0.27010  0.13150  0.65740  1.0000 0.0890638312
C   C54       1.0  0.72990  0.38730  0.86140  1.0000 0.0890638312
C   C55       1.0  0.47410  0.61270  0.34260  1.0000 0.0890638312
C   C56       1.0  0.52590  0.86850  0.13860  1.0000 0.0890638312
C   C57       1.0  0.65740  0.27010  0.13150  1.0000 0.0890638312
C   C58       1.0  0.86140  0.72990  0.38730  1.0000 0.0890638312
C   C59       1.0  0.34260  0.47410  0.61270  1.0000 0.0890638312
C   C60       1.0  0.13860  0.52590  0.86850  1.0000 0.0890638312
C   C61       1.0  0.90740  0.44760  0.82520  1.0000 0.0825332066
C   C62       1.0  0.62240  0.08220  0.17480  1.0000 0.0825332066
C   C63       1.0  0.37760  0.55240  0.45980  1.0000 0.0825332066
C   C64       1.0  0.09260  0.91780  0.54020  1.0000 0.0825332066
C   C65       1.0  0.82520  0.90740  0.44760  1.0000 0.0825332066
C   C66       1.0  0.17480  0.62240  0.08220  1.0000 0.0825332066
C   C67       1.0  0.45980  0.37760  0.55240  1.0000 0.0825332066
C   C68       1.0  0.54020  0.09260  0.91780  1.0000 0.0825332066
C   C69       1.0  0.44760  0.82520  0.90740  1.0000 0.0825332066
C   C70       1.0  0.08220  0.17480  0.62240  1.0000 0.0825332066
C   C71       1.0  0.55240  0.45980  0.37760  1.0000 0.0825332066
C   C72       1.0  0.91780  0.54020  0.09260  1.0000 0.0825332066
C   C73       1.0  0.08620  0.58350  0.17530  1.0000 0.059450892
C   C74       1.0  0.40820  0.91090  0.82470  1.0000 0.059450892
C   C75       1.0  0.59180  0.41650  0.50270  1.0000 0.059450892
C   C76       1.0  0.91380  0.08910  0.49730  1.0000 0.059450892
C   C77       1.0  0.17530  0.08620  0.58350  1.0000 0.059450892
C   C78       1.0  0.82470  0.40820  0.91090  1.0000 0.059450892
C   C79       1.0  0.50270  0.59180  0.41650  1.0000 0.059450892
C   C80       1.0  0.49730  0.91380  0.08910  1.0000 0.059450892
C   C81       1.0  0.58350  0.17530  0.08620  1.0000 0.059450892
C   C82       1.0  0.91090  0.82470  0.40820  1.0000 0.059450892
C   C83       1.0  0.41650  0.50270  0.59180  1.0000 0.059450892
C   C84       1.0  0.08910  0.49730  0.91380  1.0000 0.059450892
C   C85       1.0  0.16270  0.68310  0.33640  1.0000 0.5611662662
C   C86       1.0  0.34670  0.82630  0.66360  1.0000 0.5611662662
C   C87       1.0  0.65330  0.31690  0.47960  1.0000 0.5611662662
C   C88       1.0  0.83730  0.17370  0.52040  1.0000 0.5611662662
C   C89       1.0  0.33640  0.16270  0.68310  1.0000 0.5611662662
C   C90       1.0  0.66360  0.34670  0.82630  1.0000 0.5611662662
C   C91       1.0  0.47960  0.65330  0.31690  1.0000 0.5611662662
C   C92       1.0  0.52040  0.83730  0.17370  1.0000 0.5611662662
C   C93       1.0  0.68310  0.33640  0.16270  1.0000 0.5611662662
C   C94       1.0  0.82630  0.66360  0.34670  1.0000 0.5611662662
C   C95       1.0  0.31690  0.47960  0.65330  1.0000 0.5611662662
C   C96       1.0  0.17370  0.52040  0.83730  1.0000 0.5611662662
C   C97       1.0  0.93600  0.51370  0.87110  1.0000 0.5611662662
C   C98       1.0  0.64260  0.06490  0.12890  1.0000 0.5611662662
C   C99       1.0  0.35740  0.48630  0.42230  1.0000 0.5611662662
C   C100      1.0  0.06400  0.93510  0.57770  1.0000 0.5611662662
C   C101      1.0  0.87110  0.93600  0.51370  1.0000 0.5611662662
C   C102      1.0  0.12890  0.64260  0.06490  1.0000 0.5611662662
C   C103      1.0  0.42230  0.35740  0.48630  1.0000 0.5611662662
C   C104      1.0  0.57770  0.06400  0.93510  1.0000 0.5611662662
C   C105      1.0  0.51370  0.87110  0.93600  1.0000 0.5611662662
C   C106      1.0  0.06490  0.12890  0.64260  1.0000 0.5611662662
C   C107      1.0  0.48630  0.42230  0.35740  1.0000 0.5611662662
C   C108      1.0  0.93510  0.57770  0.06400  1.0000 0.5611662662
C   C109      1.0  0.36370  0.85760  0.40310  1.0000 0.0890638312
C   C110      1.0  0.45450  0.96060  0.59690  1.0000 0.0890638312
C   C111      1.0  0.54550  0.14240  0.50610  1.0000 0.0890638312
C   C112      1.0  0.63630  0.03940  0.49390  1.0000 0.0890638312
C   C113      1.0  0.40310  0.36370  0.85760  1.0000 0.0890638312
C   C114      1.0  0.59690  0.45450  0.96060  1.0000 0.0890638312
C   C115      1.0  0.50610  0.54550  0.14240  1.0000 0.0890638312
C   C116      1.0  0.49390  0.63630  0.03940  1.0000 0.0890638312
C   C117      1.0  0.85760  0.40310  0.36370  1.0000 0.0890638312
C   C118      1.0  0.96060  0.59690  0.45450  1.0000 0.0890638312
C   C119      1.0  0.14240  0.50610  0.54550  1.0000 0.0890638312
C   C120      1.0  0.03940  0.49390  0.63630  1.0000 0.0890638312
C   C121      1.0  0.41970  0.90770  0.37540  1.0000 -0.1824544526
C   C122      1.0  0.53230  0.04430  0.62460  1.0000 -0.1824544526
C   C123      1.0  0.46770  0.09230  0.51200  1.0000 -0.1824544526
C   C124      1.0  0.58030  0.95570  0.48800  1.0000 -0.1824544526
C   C125      1.0  0.37540  0.41970  0.90770  1.0000 -0.1824544526
C   C126      1.0  0.62460  0.53230  0.04430  1.0000 -0.1824544526
C   C127      1.0  0.51200  0.46770  0.09230  1.0000 -0.1824544526
C   C128      1.0  0.48800  0.58030  0.95570  1.0000 -0.1824544526
C   C129      1.0  0.90770  0.37540  0.41970  1.0000 -0.1824544526
C   C130      1.0  0.04430  0.62460  0.53230  1.0000 -0.1824544526
C   C131      1.0  0.09230  0.51200  0.46770  1.0000 -0.1824544526
C   C132      1.0  0.95570  0.48800  0.58030  1.0000 -0.1824544526
C   C133      1.0  0.41270  0.85050  0.34960  1.0000 0.0890638312
C   C134      1.0  0.50090  0.06310  0.65040  1.0000 0.0890638312
C   C135      1.0  0.49910  0.14950  0.56220  1.0000 0.0890638312
C   C136      1.0  0.58730  0.93690  0.43780  1.0000 0.0890638312
C   C137      1.0  0.34960  0.41270  0.85050  1.0000 0.0890638312
C   C138      1.0  0.65040  0.50090  0.06310  1.0000 0.0890638312
C   C139      1.0  0.56220  0.49910  0.14950  1.0000 0.0890638312
C   C140      1.0  0.43780  0.58730  0.93690  1.0000 0.0890638312
C   C141      1.0  0.85050  0.34960  0.41270  1.0000 0.0890638312
C   C142      1.0  0.06310  0.65040  0.50090  1.0000 0.0890638312
C   C143      1.0  0.14950  0.56220  0.49910  1.0000 0.0890638312
C   C144      1.0  0.93690  0.43780  0.58730  1.0000 0.0890638312
C   C145      1.0  0.32310  0.82250  0.42220  1.0000 0.5338089353
C   C146      1.0  0.40030  0.90090  0.57780  1.0000 0.5338089353
C   C147      1.0  0.59970  0.17750  0.50060  1.0000 0.5338089353
C   C148      1.0  0.67690  0.09910  0.49940  1.0000 0.5338089353
C   C149      1.0  0.42220  0.32310  0.82250  1.0000 0.5338089353
C   C150      1.0  0.57780  0.40030  0.90090  1.0000 0.5338089353
C   C151      1.0  0.50060  0.59970  0.17750  1.0000 0.5338089353
C   C152      1.0  0.49940  0.67690  0.09910  1.0000 0.5338089353
C   C153      1.0  0.82250  0.42220  0.32310  1.0000 0.5338089353
C   C154      1.0  0.90090  0.57780  0.40030  1.0000 0.5338089353
C   C155      1.0  0.17750  0.50060  0.59970  1.0000 0.5338089353
C   C156      1.0  0.09910  0.49940  0.67690  1.0000 0.5338089353
C   C157      1.0  0.81400  0.33300  0.66460  1.0000 0.5735915637
C   C158      1.0  0.66840  0.14940  0.33540  1.0000 0.5735915637
C   C159      1.0  0.33160  0.66700  0.48100  1.0000 0.5735915637
C   C160      1.0  0.18600  0.85060  0.51900  1.0000 0.5735915637
C   C161      1.0  0.66460  0.81400  0.33300  1.0000 0.5735915637
C   C162      1.0  0.33540  0.66840  0.14940  1.0000 0.5735915637
C   C163      1.0  0.48100  0.33160  0.66700  1.0000 0.5735915637
C   C164      1.0  0.51900  0.18600  0.85060  1.0000 0.5735915637
C   C165      1.0  0.33300  0.66460  0.81400  1.0000 0.5735915637
C   C166      1.0  0.14940  0.33540  0.66840  1.0000 0.5735915637
C   C167      1.0  0.66700  0.48100  0.33160  1.0000 0.5735915637
C   C168      1.0  0.85060  0.51900  0.18600  1.0000 0.5735915637
C   C169      1.0  0.38910  0.91030  0.40920  1.0000 -0.168496063
C   C170      1.0  0.50110  0.97990  0.59080  1.0000 -0.168496063
C   C171      1.0  0.49890  0.08970  0.47880  1.0000 -0.168496063
C   C172      1.0  0.61090  0.02010  0.52120  1.0000 -0.168496063
C   C173      1.0  0.40920  0.38910  0.91030  1.0000 -0.168496063
C   C174      1.0  0.59080  0.50110  0.97990  1.0000 -0.168496063
C   C175      1.0  0.47880  0.49890  0.08970  1.0000 -0.168496063
C   C176      1.0  0.52120  0.61090  0.02010  1.0000 -0.168496063
C   C177      1.0  0.91030  0.40920  0.38910  1.0000 -0.168496063
C   C178      1.0  0.97990  0.59080  0.50110  1.0000 -0.168496063
C   C179      1.0  0.08970  0.47880  0.49890  1.0000 -0.168496063
C   C180      1.0  0.02010  0.52120  0.61090  1.0000 -0.168496063
C   C181      1.0  0.42398  0.81180  0.30658  1.0000 0.5043605452
C   C182      1.0  0.50522  0.11740  0.69342  1.0000 0.5043605452
C   C183      1.0  0.49478  0.18820  0.61218  1.0000 0.5043605452
C   C184      1.0  0.57602  0.88260  0.38782  1.0000 0.5043605452
C   C185      1.0  0.30658  0.42398  0.81180  1.0000 0.5043605452
C   C186      1.0  0.69342  0.50522  0.11740  1.0000 0.5043605452
C   C187      1.0  0.61218  0.49478  0.18820  1.0000 0.5043605452
C   C188      1.0  0.38782  0.57602  0.88260  1.0000 0.5043605452
C   C189      1.0  0.81180  0.30658  0.42398  1.0000 0.5043605452
C   C190      1.0  0.11740  0.69342  0.50522  1.0000 0.5043605452
C   C191      1.0  0.18820  0.61218  0.49478  1.0000 0.5043605452
C   C192      1.0  0.88260  0.38782  0.57602  1.0000 0.5043605452
C   C193      1.0  0.87640  0.34950  0.77250  1.0000 -0.168496063
C   C194      1.0  0.57700  0.10390  0.22750  1.0000 -0.168496063
C   C195      1.0  0.42300  0.65050  0.52690  1.0000 -0.168496063
C   C196      1.0  0.12360  0.89610  0.47310  1.0000 -0.168496063
C   C197      1.0  0.77250  0.87640  0.34950  1.0000 -0.168496063
C   C198      1.0  0.22750  0.57700  0.10390  1.0000 -0.168496063
C   C199      1.0  0.52690  0.42300  0.65050  1.0000 -0.168496063
C   C200      1.0  0.47310  0.12360  0.89610  1.0000 -0.168496063
C   C201      1.0  0.34950  0.77250  0.87640  1.0000 -0.168496063
C   C202      1.0  0.10390  0.22750  0.57700  1.0000 -0.168496063
C   C203      1.0  0.65050  0.52690  0.42300  1.0000 -0.168496063
C   C204      1.0  0.89610  0.47310  0.12360  1.0000 -0.168496063
C   C205      1.0  0.91240  0.40110  0.83070  1.0000 -0.1906180464
C   C206      1.0  0.57040  0.08170  0.16930  1.0000 -0.1906180464
C   C207      1.0  0.42960  0.59890  0.51130  1.0000 -0.1906180464
C   C208      1.0  0.08760  0.91830  0.48870  1.0000 -0.1906180464
C   C209      1.0  0.83070  0.91240  0.40110  1.0000 -0.1906180464
C   C210      1.0  0.16930  0.57040  0.08170  1.0000 -0.1906180464
C   C211      1.0  0.51130  0.42960  0.59890  1.0000 -0.1906180464
C   C212      1.0  0.48870  0.08760  0.91830  1.0000 -0.1906180464
C   C213      1.0  0.40110  0.83070  0.91240  1.0000 -0.1906180464
C   C214      1.0  0.08170  0.16930  0.57040  1.0000 -0.1906180464
C   C215      1.0  0.59890  0.51130  0.42960  1.0000 -0.1906180464
C   C216      1.0  0.91830  0.48870  0.08760  1.0000 -0.1906180464
C   C217      1.0  0.85220  0.36650  0.73190  1.0000 0.0825332066
C   C218      1.0  0.63460  0.12030  0.26810  1.0000 0.0825332066
C   C219      1.0  0.36540  0.63350  0.48570  1.0000 0.0825332066
C   C220      1.0  0.14780  0.87970  0.51430  1.0000 0.0825332066
C   C221      1.0  0.73190  0.85220  0.36650  1.0000 0.0825332066
C   C222      1.0  0.26810  0.63460  0.12030  1.0000 0.0825332066
C   C223      1.0  0.48570  0.36540  0.63350  1.0000 0.0825332066
C   C224      1.0  0.51430  0.14780  0.87970  1.0000 0.0825332066
C   C225      1.0  0.36650  0.73190  0.85220  1.0000 0.0825332066
C   C226      1.0  0.12030  0.26810  0.63460  1.0000 0.0825332066
C   C227      1.0  0.63350  0.48570  0.36540  1.0000 0.0825332066
C   C228      1.0  0.87970  0.51430  0.14780  1.0000 0.0825332066
C   C229      1.0  0.08770  0.70900  0.94170  1.0000 0.5611662662
C   C230      1.0  0.76730  0.14600  0.05830  1.0000 0.5540863192
C   C231      1.0  0.23270  0.29100  0.37870  1.0000 0.5540863192
C   C232      1.0  0.91230  0.85400  0.62130  1.0000 0.5611662662
C   C233      1.0  0.94170  0.08770  0.70900  1.0000 0.5540863192
C   C234      1.0  0.05830  0.76730  0.14600  1.0000 0.5540863192
C   C235      1.0  0.37870  0.23270  0.29100  1.0000 0.5540863192
C   C236      1.0  0.62130  0.91230  0.85400  1.0000 0.5540863192
C   C237      1.0  0.70900  0.94170  0.08770  1.0000 0.5611662662
C   C238      1.0  0.14600  0.05830  0.76730  1.0000 0.5540863192
C   C239      1.0  0.29100  0.37870  0.23270  1.0000 0.5540863192
C   C240      1.0  0.85400  0.62130  0.91230  1.0000 0.5611662662
C   C241      1.0  0.12170  0.73500  0.91310  1.0000 0.0890638312
C   C242      1.0  0.82190  0.20860  0.08690  1.0000 0.0890638312
C   C243      1.0  0.17810  0.26500  0.38670  1.0000 0.0890638312
C   C244      1.0  0.87830  0.79140  0.61330  1.0000 0.0890638312
C   C245      1.0  0.91310  0.12170  0.73500  1.0000 0.0890638312
C   C246      1.0  0.08690  0.82190  0.20860  1.0000 0.0890638312
C   C247      1.0  0.38670  0.17810  0.26500  1.0000 0.0890638312
C   C248      1.0  0.61330  0.87830  0.79140  1.0000 0.0890638312
C   C249      1.0  0.73500  0.91310  0.12170  1.0000 0.0890638312
C   C250      1.0  0.20860  0.08690  0.82190  1.0000 0.0890638312
C   C251      1.0  0.26500  0.38670  0.17810  1.0000 0.0890638312
C   C252      1.0  0.79140  0.61330  0.87830  1.0000 0.0890638312
C   C253      1.0  0.15520  0.75660  0.85360  1.0000 -0.1824544526
C   C254      1.0  0.90300  0.30160  0.14640  1.0000 -0.1824544526
C   C255      1.0  0.09700  0.24340  0.39860  1.0000 -0.1824544526
C   C256      1.0  0.84480  0.69840  0.60140  1.0000 -0.1824544526
C   C257      1.0  0.85360  0.15520  0.75660  1.0000 -0.1824544526
C   C258      1.0  0.14640  0.90300  0.30160  1.0000 -0.1824544526
C   C259      1.0  0.39860  0.09700  0.24340  1.0000 -0.1824544526
C   C260      1.0  0.60140  0.84480  0.69840  1.0000 -0.1824544526
C   C261      1.0  0.75660  0.85360  0.15520  1.0000 -0.1824544526
C   C262      1.0  0.30160  0.14640  0.90300  1.0000 -0.1824544526
C   C263      1.0  0.24340  0.39860  0.09700  1.0000 -0.1824544526
C   C264      1.0  0.69840  0.60140  0.84480  1.0000 -0.1824544526
C   C265      1.0  0.19720  0.80060  0.91260  1.0000 0.0890638312
C   C266      1.0  0.88800  0.28460  0.08740  1.0000 0.0890638312
C   C267      1.0  0.11200  0.19940  0.39660  1.0000 0.0890638312
C   C268      1.0  0.80280  0.71540  0.60340  1.0000 0.0890638312
C   C269      1.0  0.91260  0.19720  0.80060  1.0000 0.0890638312
C   C270      1.0  0.08740  0.88800  0.28460  1.0000 0.0890638312
C   C271      1.0  0.39660  0.11200  0.19940  1.0000 0.0890638312
C   C272      1.0  0.60340  0.80280  0.71540  1.0000 0.0890638312
C   C273      1.0  0.80060  0.91260  0.19720  1.0000 0.0890638312
C   C274      1.0  0.28460  0.08740  0.88800  1.0000 0.0890638312
C   C275      1.0  0.19940  0.39660  0.11200  1.0000 0.0890638312
C   C276      1.0  0.71540  0.60340  0.80280  1.0000 0.0890638312
C   C277      1.0  0.25860  0.85770  0.94250  1.0000 0.5540863192
C   C278      1.0  0.91520  0.31610  0.05750  1.0000 0.5540863192
C   C279      1.0  0.08480  0.14230  0.40090  1.0000 0.5540863192
C   C280      1.0  0.74140  0.68390  0.59910  1.0000 0.5540863192
C   C281      1.0  0.94250  0.25860  0.85770  1.0000 0.5540863192
C   C282      1.0  0.05750  0.91520  0.31610  1.0000 0.5540863192
C   C283      1.0  0.40090  0.08480  0.14230  1.0000 0.5540863192
C   C284      1.0  0.59910  0.74140  0.68390  1.0000 0.5540863192
C   C285      1.0  0.85770  0.94250  0.25860  1.0000 0.5540863192
C   C286      1.0  0.31610  0.05750  0.91520  1.0000 0.5540863192
C   C287      1.0  0.14230  0.40090  0.08480  1.0000 0.5540863192
C   C288      1.0  0.68390  0.59910  0.74140  1.0000 0.5540863192
O   O1        1.0  0.04190  0.66220  0.90730  1.0000 -0.4627298366
O   O2        1.0  0.75490  0.13460  0.09270  1.0000 -0.4627298366
O   O3        1.0  0.24510  0.33780  0.37970  1.0000 -0.4721984421
O   O4        1.0  0.95810  0.86540  0.62030  1.0000 -0.4627298366
O   O5        1.0  0.90730  0.04190  0.66220  1.0000 -0.4721984421
O   O6        1.0  0.09270  0.75490  0.13460  1.0000 -0.4627298366
O   O7        1.0  0.37970  0.24510  0.33780  1.0000 -0.4627298366
O   O8        1.0  0.62030  0.95810  0.86540  1.0000 -0.4627298366
O   O9        1.0  0.66220  0.90730  0.04190  1.0000 -0.4627298366
O   O10       1.0  0.13460  0.09270  0.75490  1.0000 -0.4627298366
O   O11       1.0  0.33780  0.37970  0.24510  1.0000 -0.4627298366
O   O12       1.0  0.86540  0.62030  0.95810  1.0000 -0.4627298366
O   O13       1.0  0.11250  0.74320  0.99490  1.0000 -0.4627298366
O   O14       1.0  0.74830  0.11760  0.00510  1.0000 -0.4627298366
O   O15       1.0  0.25170  0.25680  0.36930  1.0000 -0.4627298366
O   O16       1.0  0.88750  0.88240  0.63070  1.0000 -0.4627298366
O   O17       1.0  0.99490  0.11250  0.74320  1.0000 -0.4627298366
O   O18       1.0  0.00510  0.74830  0.11760  1.0000 -0.4627298366
O   O19       1.0  0.36930  0.25170  0.25680  1.0000 -0.4721984421
O   O20       1.0  0.63070  0.88750  0.88240  1.0000 -0.4627298366
O   O21       1.0  0.74320  0.99490  0.11250  1.0000 -0.4627298366
O   O22       1.0  0.11760  0.00510  0.74830  1.0000 -0.4627298366
O   O23       1.0  0.25680  0.36930  0.25170  1.0000 -0.4627298366
O   O24       1.0  0.88240  0.63070  0.88750  1.0000 -0.4627298366
O   O25       1.0  0.17503  0.73656  0.36627  1.0000 -0.5011152143
O   O26       1.0  0.37029  0.80876  0.63373  1.0000 -0.5011152143
O   O27       1.0  0.62971  0.26344  0.43847  1.0000 -0.5011152143
O   O28       1.0  0.82497  0.19124  0.56153  1.0000 -0.5011152143
O   O29       1.0  0.36627  0.17503  0.73656  1.0000 -0.5011152143
O   O30       1.0  0.63373  0.37029  0.80876  1.0000 -0.5011152143
O   O31       1.0  0.43847  0.62971  0.26344  1.0000 -0.5011152143
O   O32       1.0  0.56153  0.82497  0.19124  1.0000 -0.5011152143
O   O33       1.0  0.73656  0.36627  0.17503  1.0000 -0.5011152143
O   O34       1.0  0.80876  0.63373  0.37029  1.0000 -0.5011152143
O   O35       1.0  0.26344  0.43847  0.62971  1.0000 -0.5011152143
O   O36       1.0  0.19124  0.56153  0.82497  1.0000 -0.5011152143
O   O37       1.0  0.00000  0.65958  0.00000  1.0000 -0.8945006246
O   O38       1.0  0.65958  0.00000  0.00000  1.0000 -0.8945006246
O   O39       1.0  0.34042  0.34042  0.34042  1.0000 -0.8945006246
O   O40       1.0  0.00000  0.00000  0.65958  1.0000 -0.8945006246
O   O41       1.0  0.06794  0.48566  0.14702  1.0000 -0.4627298366
O   O42       1.0  0.33864  0.92092  0.85298  1.0000 -0.4627298366
O   O43       1.0  0.66136  0.51434  0.58228  1.0000 -0.4627298366
O   O44       1.0  0.93206  0.07908  0.41772  1.0000 -0.4627298366
O   O45       1.0  0.14702  0.06794  0.48566  1.0000 -0.4627298366
O   O46       1.0  0.85298  0.33864  0.92092  1.0000 -0.4627298366
O   O47       1.0  0.58228  0.66136  0.51434  1.0000 -0.4627298366
O   O48       1.0  0.41772  0.93206  0.07908  1.0000 -0.4627298366
O   O49       1.0  0.48566  0.14702  0.06794  1.0000 -0.4627298366
O   O50       1.0  0.92092  0.85298  0.33864  1.0000 -0.4627298366
O   O51       1.0  0.51434  0.58228  0.66136  1.0000 -0.4627298366
O   O52       1.0  0.07908  0.41772  0.93206  1.0000 -0.4627298366
O   O53       1.0  0.79752  0.35811  0.63743  1.0000 -0.4721984421
O   O54       1.0  0.72068  0.16009  0.36257  1.0000 -0.4721984421
O   O55       1.0  0.27932  0.64189  0.43941  1.0000 -0.4721984421
O   O56       1.0  0.20248  0.83991  0.56059  1.0000 -0.4721984421
O   O57       1.0  0.63743  0.79752  0.35811  1.0000 -0.4721984421
O   O58       1.0  0.36257  0.72068  0.16009  1.0000 -0.4721984421
O   O59       1.0  0.43941  0.27932  0.64189  1.0000 -0.4721984421
O   O60       1.0  0.56059  0.20248  0.83991  1.0000 -0.4721984421
O   O61       1.0  0.35811  0.63743  0.79752  1.0000 -0.4721984421
O   O62       1.0  0.16009  0.36257  0.72068  1.0000 -0.4721984421
O   O63       1.0  0.64189  0.43941  0.27932  1.0000 -0.4721984421
O   O64       1.0  0.83991  0.56059  0.20248  1.0000 -0.4721984421
O   O65       1.0  0.92852  0.54856  0.85106  1.0000 -0.5011152143
O   O66       1.0  0.69750  0.07746  0.14894  1.0000 -0.5011152143
O   O67       1.0  0.30250  0.45144  0.37996  1.0000 -0.5011152143
O   O68       1.0  0.07148  0.92254  0.62004  1.0000 -0.5011152143
O   O69       1.0  0.85106  0.92852  0.54856  1.0000 -0.5011152143
O   O70       1.0  0.14894  0.69750  0.07746  1.0000 -0.5011152143
O   O71       1.0  0.37996  0.30250  0.45144  1.0000 -0.5011152143
O   O72       1.0  0.62004  0.07148  0.92254  1.0000 -0.5011152143
O   O73       1.0  0.54856  0.85106  0.92852  1.0000 -0.5011152143
O   O74       1.0  0.07746  0.14894  0.69750  1.0000 -0.5011152143
O   O75       1.0  0.45144  0.37996  0.30250  1.0000 -0.5011152143
O   O76       1.0  0.92254  0.62004  0.07148  1.0000 -0.5011152143
O   O77       1.0  0.03675  0.50646  0.07397  1.0000 -0.5643531992
O   O78       1.0  0.43249  0.96278  0.92603  1.0000 -0.5643531992
O   O79       1.0  0.56751  0.49354  0.53029  1.0000 -0.5643531992
O   O80       1.0  0.96325  0.03722  0.46971  1.0000 -0.5643531992
O   O81       1.0  0.07397  0.03675  0.50646  1.0000 -0.5643531992
O   O82       1.0  0.92603  0.43249  0.96278  1.0000 -0.5643531992
O   O83       1.0  0.53029  0.56751  0.49354  1.0000 -0.5643531992
O   O84       1.0  0.46971  0.96325  0.03722  1.0000 -0.5643531992
O   O85       1.0  0.50646  0.07397  0.03675  1.0000 -0.5643531992
O   O86       1.0  0.96278  0.92603  0.43249  1.0000 -0.5643531992
O   O87       1.0  0.49354  0.53029  0.56751  1.0000 -0.5643531992
O   O88       1.0  0.03722  0.46971  0.96325  1.0000 -0.5643531992
O   O89       1.0  0.96407  0.52969  0.92452  1.0000 -0.5365201547
O   O90       1.0  0.60517  0.03955  0.07548  1.0000 -0.5365201547
O   O91       1.0  0.39483  0.47031  0.43438  1.0000 -0.5365201547
O   O92       1.0  0.03593  0.96045  0.56562  1.0000 -0.5365201547
O   O93       1.0  0.92452  0.96407  0.52969  1.0000 -0.5365201547
O   O94       1.0  0.07548  0.60517  0.03955  1.0000 -0.5365201547
O   O95       1.0  0.43438  0.39483  0.47031  1.0000 -0.5365201547
O   O96       1.0  0.56562  0.03593  0.96045  1.0000 -0.5365201547
O   O97       1.0  0.52969  0.92452  0.96407  1.0000 -0.5365201547
O   O98       1.0  0.03955  0.07548  0.60517  1.0000 -0.5365201547
O   O99       1.0  0.47031  0.43438  0.39483  1.0000 -0.5365201547
O   O100      1.0  0.96045  0.56562  0.03593  1.0000 -0.5365201547
O   O101      1.0  0.17894  0.65183  0.35591  1.0000 -0.4889543846
O   O102      1.0  0.29592  0.82303  0.64409  1.0000 -0.4889543846
O   O103      1.0  0.70408  0.34817  0.52711  1.0000 -0.4889543846
O   O104      1.0  0.82106  0.17697  0.47289  1.0000 -0.4889543846
O   O105      1.0  0.35591  0.17894  0.65183  1.0000 -0.4889543846
O   O106      1.0  0.64409  0.29592  0.82303  1.0000 -0.4889543846
O   O107      1.0  0.52711  0.70408  0.34817  1.0000 -0.4889543846
O   O108      1.0  0.47289  0.82106  0.17697  1.0000 -0.4889543846
O   O109      1.0  0.65183  0.35591  0.17894  1.0000 -0.4889543846
O   O110      1.0  0.82303  0.64409  0.29592  1.0000 -0.4889543846
O   O111      1.0  0.34817  0.52711  0.70408  1.0000 -0.4889543846
O   O112      1.0  0.17697  0.47289  0.82106  1.0000 -0.4889543846
O   O113      1.0  0.11425  0.59703  0.23498  1.0000 -0.0800669158
O   O114      1.0  0.36205  0.87927  0.76502  1.0000 -0.0800669158
O   O115      1.0  0.63795  0.40297  0.51722  1.0000 -0.0800669158
O   O116      1.0  0.88575  0.12073  0.48278  1.0000 -0.0800669158
O   O117      1.0  0.23498  0.11425  0.59703  1.0000 -0.0800669158
O   O118      1.0  0.76502  0.36205  0.87927  1.0000 -0.0800669158
O   O119      1.0  0.51722  0.63795  0.40297  1.0000 -0.0800669158
O   O120      1.0  0.48278  0.88575  0.12073  1.0000 -0.0800669158
O   O121      1.0  0.59703  0.23498  0.11425  1.0000 -0.0800669158
O   O122      1.0  0.87927  0.76502  0.36205  1.0000 -0.0800669158
O   O123      1.0  0.40297  0.51722  0.63795  1.0000 -0.0800669158
O   O124      1.0  0.12073  0.48278  0.88575  1.0000 -0.0800669158
O   O125      1.0  0.80179  0.27855  0.64226  1.0000 -0.5011152143
O   O126      1.0  0.63629  0.15953  0.35774  1.0000 -0.5011152143
O   O127      1.0  0.36371  0.72145  0.52324  1.0000 -0.5011152143
O   O128      1.0  0.19821  0.84047  0.47676  1.0000 -0.5011152143
O   O129      1.0  0.64226  0.80179  0.27855  1.0000 -0.5011152143
O   O130      1.0  0.35774  0.63629  0.15953  1.0000 -0.5011152143
O   O131      1.0  0.52324  0.36371  0.72145  1.0000 -0.5011152143
O   O132      1.0  0.47676  0.19821  0.84047  1.0000 -0.5011152143
O   O133      1.0  0.27855  0.64226  0.80179  1.0000 -0.5011152143
O   O134      1.0  0.15953  0.35774  0.63629  1.0000 -0.5011152143
O   O135      1.0  0.72145  0.52324  0.36371  1.0000 -0.5011152143
O   O136      1.0  0.84047  0.47676  0.19821  1.0000 -0.5011152143
O   O137      1.0  0.31057  0.77265  0.41168  1.0000 -0.4075108209
O   O138      1.0  0.36097  0.89889  0.58832  1.0000 -0.4075108209
O   O139      1.0  0.63903  0.22735  0.53792  1.0000 -0.4037324602
O   O140      1.0  0.68943  0.10111  0.46208  1.0000 -0.4075108209
O   O141      1.0  0.41168  0.31057  0.77265  1.0000 -0.4075108209
O   O142      1.0  0.58832  0.36097  0.89889  1.0000 -0.4037324602
O   O143      1.0  0.53792  0.63903  0.22735  1.0000 -0.4037324602
O   O144      1.0  0.46208  0.68943  0.10111  1.0000 -0.4075108209
O   O145      1.0  0.77265  0.41168  0.31057  1.0000 -0.4075108209
O   O146      1.0  0.89889  0.58832  0.36097  1.0000 -0.4075108209
O   O147      1.0  0.22735  0.53792  0.63903  1.0000 -0.4037324602
O   O148      1.0  0.10111  0.46208  0.68943  1.0000 -0.4075108209
O   O149      1.0  0.00000  0.37710  0.00000  1.0000 -0.8834653014
O   O150      1.0  0.37710  0.00000  0.00000  1.0000 -0.8834653014
O   O151      1.0  0.62290  0.62290  0.62290  1.0000 -0.8834653014
O   O152      1.0  0.00000  0.00000  0.37710  1.0000 -0.8834653014
O   O153      1.0  0.30176  0.85459  0.44845  1.0000 -0.5321289166
O   O154      1.0  0.40614  0.85331  0.55155  1.0000 -0.5321289166
O   O155      1.0  0.59386  0.14541  0.44717  1.0000 -0.5321289166
O   O156      1.0  0.69824  0.14669  0.55283  1.0000 -0.5321289166
O   O157      1.0  0.44845  0.30176  0.85459  1.0000 -0.5321289166
O   O158      1.0  0.55155  0.40614  0.85331  1.0000 -0.5321289166
O   O159      1.0  0.44717  0.59386  0.14541  1.0000 -0.5321289166
O   O160      1.0  0.55283  0.69824  0.14669  1.0000 -0.5321289166
O   O161      1.0  0.85459  0.44845  0.30176  1.0000 -0.5321289166
O   O162      1.0  0.85331  0.55155  0.40614  1.0000 -0.5321289166
O   O163      1.0  0.14541  0.44717  0.59386  1.0000 -0.5321289166
O   O164      1.0  0.14669  0.55283  0.69824  1.0000 -0.5321289166
O   O165      1.0  0.37611  0.81728  0.36687  1.0000 -0.0914529477
O   O166      1.0  0.45041  0.00924  0.63313  1.0000 -0.0914529477
O   O167      1.0  0.54959  0.18272  0.55883  1.0000 -0.0914529477
O   O168      1.0  0.62389  0.99076  0.44117  1.0000 -0.0914529477
O   O169      1.0  0.36687  0.37611  0.81728  1.0000 -0.0914529477
O   O170      1.0  0.63313  0.45041  0.00924  1.0000 -0.0914529477
O   O171      1.0  0.55883  0.54959  0.18272  1.0000 -0.0914529477
O   O172      1.0  0.44117  0.62389  0.99076  1.0000 -0.0914529477
O   O173      1.0  0.81728  0.36687  0.37611  1.0000 -0.0914529477
O   O174      1.0  0.00924  0.63313  0.45041  1.0000 -0.0914529477
O   O175      1.0  0.18272  0.55883  0.54959  1.0000 -0.0914529477
O   O176      1.0  0.99076  0.44117  0.62389  1.0000 -0.0914529477
O   O177      1.0  0.41107  0.76158  0.29573  1.0000 -0.4262934355
O   O178      1.0  0.46585  0.11534  0.70427  1.0000 -0.4222219819
O   O179      1.0  0.53415  0.23842  0.64949  1.0000 -0.4222219819
O   O180      1.0  0.58893  0.88466  0.35051  1.0000 -0.4262934355
O   O181      1.0  0.29573  0.41107  0.76158  1.0000 -0.4262934355
O   O182      1.0  0.70427  0.46585  0.11534  1.0000 -0.4262934355
O   O183      1.0  0.64949  0.53415  0.23842  1.0000 -0.4262934355
O   O184      1.0  0.35051  0.58893  0.88466  1.0000 -0.4222219819
O   O185      1.0  0.76158  0.29573  0.41107  1.0000 -0.4222219819
O   O186      1.0  0.11534  0.70427  0.46585  1.0000 -0.4262934355
O   O187      1.0  0.23842  0.64949  0.53415  1.0000 -0.4262934355
O   O188      1.0  0.88466  0.35051  0.58893  1.0000 -0.4222219819
O   O189      1.0  0.87185  0.42958  0.76409  1.0000 -0.0914529477
O   O190      1.0  0.66549  0.10776  0.23591  1.0000 -0.0914529477
O   O191      1.0  0.33451  0.57042  0.44227  1.0000 -0.0914529477
O   O192      1.0  0.12815  0.89224  0.55773  1.0000 -0.0914529477
O   O193      1.0  0.76409  0.87185  0.42958  1.0000 -0.0914529477
O   O194      1.0  0.23591  0.66549  0.10776  1.0000 -0.0914529477
O   O195      1.0  0.44227  0.33451  0.57042  1.0000 -0.0914529477
O   O196      1.0  0.55773  0.12815  0.89224  1.0000 -0.0914529477
O   O197      1.0  0.42958  0.76409  0.87185  1.0000 -0.0914529477
O   O198      1.0  0.10776  0.23591  0.66549  1.0000 -0.0914529477
O   O199      1.0  0.57042  0.44227  0.33451  1.0000 -0.0914529477
O   O200      1.0  0.89224  0.55773  0.12815  1.0000 -0.0914529477
O   O201      1.0  0.44927  0.84207  0.28426  1.0000 -0.5109281405
O   O202      1.0  0.55781  0.16501  0.71574  1.0000 -0.5109281405
O   O203      1.0  0.44219  0.15793  0.60720  1.0000 -0.5109281405
O   O204      1.0  0.55073  0.83499  0.39280  1.0000 -0.5109281405
O   O205      1.0  0.28426  0.44927  0.84207  1.0000 -0.5109281405
O   O206      1.0  0.71574  0.55781  0.16501  1.0000 -0.5109281405
O   O207      1.0  0.60720  0.44219  0.15793  1.0000 -0.5109281405
O   O208      1.0  0.39280  0.55073  0.83499  1.0000 -0.5109281405
O   O209      1.0  0.84207  0.28426  0.44927  1.0000 -0.5109281405
O   O210      1.0  0.16501  0.71574  0.55781  1.0000 -0.5109281405
O   O211      1.0  0.15793  0.60720  0.44219  1.0000 -0.5109281405
O   O212      1.0  0.83499  0.39280  0.55073  1.0000 -0.5109281405
O   O213      1.0  0.25657  0.75657  0.50000  1.0000 -0.9314713691
O   O214      1.0  0.74343  0.24343  0.50000  1.0000 -0.9314713691
O   O215      1.0  0.50000  0.25657  0.75657  1.0000 -0.9314713691
O   O216      1.0  0.50000  0.74343  0.24343  1.0000 -0.9314713691
O   O217      1.0  0.75657  0.50000  0.25657  1.0000 -0.9314713691
O   O218      1.0  0.24343  0.50000  0.74343  1.0000 -0.9314713691
O   O219      1.0  0.17630  0.78700  0.94810  1.0000 -0.0587379053
O   O220      1.0  0.83890  0.22820  0.05190  1.0000 -0.0587379053
O   O221      1.0  0.16110  0.21300  0.38930  1.0000 -0.0587379053
O   O222      1.0  0.82370  0.77180  0.61070  1.0000 -0.0587379053
O   O223      1.0  0.94810  0.17630  0.78700  1.0000 -0.0587379053
O   O224      1.0  0.05190  0.83890  0.22820  1.0000 -0.0587379053
O   O225      1.0  0.38930  0.16110  0.21300  1.0000 -0.0587379053
O   O226      1.0  0.61070  0.82370  0.77180  1.0000 -0.0587379053
O   O227      1.0  0.78700  0.94810  0.17630  1.0000 -0.0587379053
O   O228      1.0  0.22820  0.05190  0.83890  1.0000 -0.0587379053
O   O229      1.0  0.21300  0.38930  0.16110  1.0000 -0.0587379053
O   O230      1.0  0.77180  0.61070  0.82370  1.0000 -0.0587379053
O   O231      1.0  0.28430  0.88690  0.99700  1.0000 -0.4830979699
O   O232      1.0  0.88990  0.28730  0.00300  1.0000 -0.4830979699
O   O233      1.0  0.11010  0.11310  0.39740  1.0000 -0.4830979699
O   O234      1.0  0.71570  0.71270  0.60260  1.0000 -0.4830979699
O   O235      1.0  0.99700  0.28430  0.88690  1.0000 -0.4889543846
O   O236      1.0  0.00300  0.88990  0.28730  1.0000 -0.4830979699
O   O237      1.0  0.39740  0.11010  0.11310  1.0000 -0.4830979699
O   O238      1.0  0.60260  0.71570  0.71270  1.0000 -0.4830979699
O   O239      1.0  0.88690  0.99700  0.28430  1.0000 -0.4830979699
O   O240      1.0  0.28730  0.00300  0.88990  1.0000 -0.4830979699
O   O241      1.0  0.11310  0.39740  0.11010  1.0000 -0.4830979699
O   O242      1.0  0.71270  0.60260  0.71570  1.0000 -0.4889543846
O   O243      1.0  0.27150  0.86540  0.90570  1.0000 -0.4889543846
O   O244      1.0  0.95970  0.36580  0.09430  1.0000 -0.4889543846
O   O245      1.0  0.04030  0.13460  0.40610  1.0000 -0.4889543846
O   O246      1.0  0.72850  0.63420  0.59390  1.0000 -0.4889543846
O   O247      1.0  0.90570  0.27150  0.86540  1.0000 -0.4889543846
O   O248      1.0  0.09430  0.95970  0.36580  1.0000 -0.4889543846
O   O249      1.0  0.40610  0.04030  0.13460  1.0000 -0.4889543846
O   O250      1.0  0.59390  0.72850  0.63420  1.0000 -0.4889543846
O   O251      1.0  0.86540  0.90570  0.27150  1.0000 -0.4889543846
O   O252      1.0  0.36580  0.09430  0.95970  1.0000 -0.4889543846
O   O253      1.0  0.13460  0.40610  0.04030  1.0000 -0.4889543846
O   O254      1.0  0.63420  0.59390  0.72850  1.0000 -0.4889543846
