# DDEC6 charges by PACMAN v1.1 (https://github.com/mtap-research/PACMAN-charge/)
data_2012[Zn][scu]3[ASR]2
_chemical_formula_sum              "Zn16 H80 C148 O80"
_cell_length_a       12.31
_cell_length_b       26.25
_cell_length_c       26.341
_cell_angle_alpha    90
_cell_angle_beta     90
_cell_angle_gamma    90

_symmetry_space_group_name_H-M    "P 1"
_symmetry_Int_Tables_number       1

loop_
  _symmetry_equiv_pos_as_xyz
  'x, y, z'

loop_
  _atom_site_type_symbol
  _atom_site_label
  _atom_site_symmetry_multiplicity
  _atom_site_fract_x
  _atom_site_fract_y
  _atom_site_fract_z
  _atom_site_occupancy
  _atom_site_charge
Zn  Zn1       1.0  0.50749  0.19445  0.25000  1.0000 0.9591291596
Zn  Zn2       1.0  0.49251  0.80555  0.75000  1.0000 0.9591291596
Zn  Zn3       1.0  0.50749  0.30555  0.75000  1.0000 0.9591291596
Zn  Zn4       1.0  0.49251  0.69445  0.25000  1.0000 0.9591291596
Zn  Zn5       1.0  0.33914  0.27640  0.25000  1.0000 0.9434978763
Zn  Zn6       1.0  0.66086  0.72360  0.75000  1.0000 0.9434978763
Zn  Zn7       1.0  0.33914  0.22360  0.75000  1.0000 0.9434978763
Zn  Zn8       1.0  0.66086  0.77640  0.25000  1.0000 0.9434978763
Zn  Zn9       1.0  0.58267  0.00734  0.04090  1.0000 0.9591291596
Zn  Zn10      1.0  0.41733  0.99266  0.54090  1.0000 0.9591291596
Zn  Zn11      1.0  0.58267  0.49266  0.95910  1.0000 0.9591291596
Zn  Zn12      1.0  0.41733  0.50734  0.45910  1.0000 0.9591291596
Zn  Zn13      1.0  0.41733  0.99266  0.95910  1.0000 0.9591291596
Zn  Zn14      1.0  0.58267  0.00734  0.45910  1.0000 0.9591291596
Zn  Zn15      1.0  0.41733  0.50734  0.04090  1.0000 0.9591291596
Zn  Zn16      1.0  0.58267  0.49266  0.54090  1.0000 0.9591291596
H   H1        1.0  0.07930  0.25810  0.05180  1.0000 0.102121872
H   H2        1.0  0.92070  0.74190  0.55180  1.0000 0.102121872
H   H3        1.0  0.07930  0.24190  0.94820  1.0000 0.102121872
H   H4        1.0  0.92070  0.75810  0.44820  1.0000 0.102121872
H   H5        1.0  0.92070  0.74190  0.94820  1.0000 0.102121872
H   H6        1.0  0.07930  0.25810  0.44820  1.0000 0.102121872
H   H7        1.0  0.92070  0.75810  0.05180  1.0000 0.102121872
H   H8        1.0  0.07930  0.24190  0.55180  1.0000 0.102121872
H   H9        1.0  0.98030  0.22750  0.07430  1.0000 0.102121872
H   H10       1.0  0.01970  0.77250  0.57430  1.0000 0.1054247567
H   H11       1.0  0.98030  0.27250  0.92570  1.0000 0.1054247567
H   H12       1.0  0.01970  0.72750  0.42570  1.0000 0.102121872
H   H13       1.0  0.01970  0.77250  0.92570  1.0000 0.1054247567
H   H14       1.0  0.98030  0.22750  0.42570  1.0000 0.102121872
H   H15       1.0  0.01970  0.72750  0.07430  1.0000 0.1054247567
H   H16       1.0  0.98030  0.27250  0.57430  1.0000 0.1054247567
H   H17       1.0  0.92690  0.32260  0.02900  1.0000 0.1054247567
H   H18       1.0  0.07310  0.67740  0.52900  1.0000 0.1054247567
H   H19       1.0  0.92690  0.17740  0.97100  1.0000 0.1054247567
H   H20       1.0  0.07310  0.82260  0.47100  1.0000 0.1054247567
H   H21       1.0  0.07310  0.67740  0.97100  1.0000 0.1054247567
H   H22       1.0  0.92690  0.32260  0.47100  1.0000 0.1054247567
H   H23       1.0  0.07310  0.82260  0.02900  1.0000 0.1054247567
H   H24       1.0  0.92690  0.17740  0.52900  1.0000 0.1054247567
H   H25       1.0  0.83580  0.30570  0.99050  1.0000 0.102121872
H   H26       1.0  0.16420  0.69430  0.49050  1.0000 0.102121872
H   H27       1.0  0.83580  0.19430  0.00950  1.0000 0.102121872
H   H28       1.0  0.16420  0.80570  0.50950  1.0000 0.102121872
H   H29       1.0  0.16420  0.69430  0.00950  1.0000 0.102121872
H   H30       1.0  0.83580  0.30570  0.50950  1.0000 0.102121872
H   H31       1.0  0.16420  0.80570  0.99050  1.0000 0.102121872
H   H32       1.0  0.83580  0.19430  0.49050  1.0000 0.102121872
H   H33       1.0  0.18720  0.11070  0.00850  1.0000 0.1475148952
H   H34       1.0  0.81280  0.88930  0.50850  1.0000 0.1475148952
H   H35       1.0  0.18720  0.38930  0.99150  1.0000 0.1475148952
H   H36       1.0  0.81280  0.61070  0.49150  1.0000 0.1475148952
H   H37       1.0  0.81280  0.88930  0.99150  1.0000 0.1475148952
H   H38       1.0  0.18720  0.11070  0.49150  1.0000 0.1475148952
H   H39       1.0  0.81280  0.61070  0.00850  1.0000 0.1475148952
H   H40       1.0  0.18720  0.38930  0.50850  1.0000 0.1475148952
H   H41       1.0  0.39040  0.11000  0.12700  1.0000 0.1393385703
H   H42       1.0  0.60960  0.89000  0.62700  1.0000 0.1393385703
H   H43       1.0  0.39040  0.39000  0.87300  1.0000 0.1393385703
H   H44       1.0  0.60960  0.61000  0.37300  1.0000 0.1393385703
H   H45       1.0  0.60960  0.89000  0.87300  1.0000 0.1393385703
H   H46       1.0  0.39040  0.11000  0.37300  1.0000 0.1393385703
H   H47       1.0  0.60960  0.61000  0.12700  1.0000 0.1393385703
H   H48       1.0  0.39040  0.39000  0.62700  1.0000 0.1393385703
H   H49       1.0  0.15600  0.21560  0.11870  1.0000 0.1328705462
H   H50       1.0  0.84400  0.78440  0.61870  1.0000 0.1328705462
H   H51       1.0  0.15600  0.28440  0.88130  1.0000 0.1328705462
H   H52       1.0  0.84400  0.71560  0.38130  1.0000 0.1328705462
H   H53       1.0  0.84400  0.78440  0.88130  1.0000 0.1328705462
H   H54       1.0  0.15600  0.21560  0.38130  1.0000 0.1328705462
H   H55       1.0  0.84400  0.71560  0.11870  1.0000 0.1328705462
H   H56       1.0  0.15600  0.28440  0.61870  1.0000 0.1328705462
H   H57       1.0  0.73870  0.36450  0.02890  1.0000 0.1328705462
H   H58       1.0  0.26130  0.63550  0.52890  1.0000 0.1328705462
H   H59       1.0  0.73870  0.13550  0.97110  1.0000 0.1328705462
H   H60       1.0  0.26130  0.86450  0.47110  1.0000 0.1328705462
H   H61       1.0  0.26130  0.63550  0.97110  1.0000 0.1328705462
H   H62       1.0  0.73870  0.36450  0.47110  1.0000 0.1328705462
H   H63       1.0  0.26130  0.86450  0.02890  1.0000 0.1328705462
H   H64       1.0  0.73870  0.13550  0.52890  1.0000 0.1328705462
H   H65       1.0  0.70250  0.25390  0.13270  1.0000 0.1475148952
H   H66       1.0  0.29750  0.74610  0.63270  1.0000 0.1475148952
H   H67       1.0  0.70250  0.24610  0.86730  1.0000 0.1475148952
H   H68       1.0  0.29750  0.75390  0.36730  1.0000 0.1475148952
H   H69       1.0  0.29750  0.74610  0.86730  1.0000 0.1475148952
H   H70       1.0  0.70250  0.25390  0.36730  1.0000 0.1475148952
H   H71       1.0  0.29750  0.75390  0.13270  1.0000 0.1475148952
H   H72       1.0  0.70250  0.24610  0.63270  1.0000 0.1475148952
H   H73       1.0  0.49370  0.37040  0.12950  1.0000 0.1393385703
H   H74       1.0  0.50630  0.62960  0.62950  1.0000 0.1393385703
H   H75       1.0  0.49370  0.12960  0.87050  1.0000 0.1393385703
H   H76       1.0  0.50630  0.87040  0.37050  1.0000 0.1393385703
H   H77       1.0  0.50630  0.62960  0.87050  1.0000 0.1393385703
H   H78       1.0  0.49370  0.37040  0.37050  1.0000 0.1393385703
H   H79       1.0  0.50630  0.87040  0.12950  1.0000 0.1393385703
H   H80       1.0  0.49370  0.12960  0.62950  1.0000 0.1393385703
C   C1        1.0  0.95420  0.25000  0.00000  1.0000 0.0339947647
C   C2        1.0  0.04580  0.75000  0.50000  1.0000 0.0355615491
C   C3        1.0  0.04580  0.75000  0.00000  1.0000 0.0339947647
C   C4        1.0  0.95420  0.25000  0.50000  1.0000 0.0355615491
C   C5        1.0  0.02457  0.23260  0.04425  1.0000 -0.0876810415
C   C6        1.0  0.97543  0.76740  0.54425  1.0000 -0.0876810415
C   C7        1.0  0.02457  0.26740  0.95575  1.0000 -0.0876810415
C   C8        1.0  0.97543  0.73260  0.45575  1.0000 -0.0876810415
C   C9        1.0  0.97543  0.76740  0.95575  1.0000 -0.0876810415
C   C10       1.0  0.02457  0.23260  0.45575  1.0000 -0.0876810415
C   C11       1.0  0.97543  0.73260  0.04425  1.0000 -0.0876810415
C   C12       1.0  0.02457  0.26740  0.54425  1.0000 -0.0876810415
C   C13       1.0  0.88231  0.29420  0.01795  1.0000 -0.0797836486
C   C14       1.0  0.11769  0.70580  0.51795  1.0000 -0.0797836486
C   C15       1.0  0.88231  0.20580  0.98205  1.0000 -0.0797836486
C   C16       1.0  0.11769  0.79420  0.48205  1.0000 -0.0797836486
C   C17       1.0  0.11769  0.70580  0.98205  1.0000 -0.0797836486
C   C18       1.0  0.88231  0.29420  0.48205  1.0000 -0.0797836486
C   C19       1.0  0.11769  0.79420  0.01795  1.0000 -0.0797836486
C   C20       1.0  0.88231  0.20580  0.51795  1.0000 -0.0797836486
C   C21       1.0  0.15700  0.16648  0.05957  1.0000 0.2498829519
C   C22       1.0  0.84300  0.83352  0.55957  1.0000 0.2498829519
C   C23       1.0  0.15700  0.33352  0.94043  1.0000 0.2498829519
C   C24       1.0  0.84300  0.66648  0.44043  1.0000 0.2498829519
C   C25       1.0  0.84300  0.83352  0.94043  1.0000 0.2498829519
C   C26       1.0  0.15700  0.16648  0.44043  1.0000 0.2498829519
C   C27       1.0  0.84300  0.66648  0.05957  1.0000 0.2498829519
C   C28       1.0  0.15700  0.33352  0.55957  1.0000 0.2498829519
C   C29       1.0  0.21060  0.12455  0.03911  1.0000 -0.2021469933
C   C30       1.0  0.78940  0.87545  0.53911  1.0000 -0.2021469933
C   C31       1.0  0.21060  0.37545  0.96089  1.0000 -0.2021469933
C   C32       1.0  0.78940  0.62455  0.46089  1.0000 -0.2021469933
C   C33       1.0  0.78940  0.87545  0.96089  1.0000 -0.2021469933
C   C34       1.0  0.21060  0.12455  0.46089  1.0000 -0.2021469933
C   C35       1.0  0.78940  0.62455  0.03911  1.0000 -0.2021469933
C   C36       1.0  0.21060  0.37545  0.53911  1.0000 -0.2021469933
C   C37       1.0  0.29820  0.10352  0.06392  1.0000 -0.0115959749
C   C38       1.0  0.70180  0.89648  0.56392  1.0000 -0.0115959749
C   C39       1.0  0.29820  0.39648  0.93608  1.0000 -0.0115959749
C   C40       1.0  0.70180  0.60352  0.43608  1.0000 -0.0115959749
C   C41       1.0  0.70180  0.89648  0.93608  1.0000 -0.0115959749
C   C42       1.0  0.29820  0.10352  0.43608  1.0000 -0.0115959749
C   C43       1.0  0.70180  0.60352  0.06392  1.0000 -0.0115959749
C   C44       1.0  0.29820  0.39648  0.56392  1.0000 -0.0115959749
C   C45       1.0  0.33170  0.12424  0.10978  1.0000 -0.1181322135
C   C46       1.0  0.66830  0.87576  0.60978  1.0000 -0.1181322135
C   C47       1.0  0.33170  0.37576  0.89022  1.0000 -0.1181322135
C   C48       1.0  0.66830  0.62424  0.39022  1.0000 -0.1181322135
C   C49       1.0  0.66830  0.87576  0.89022  1.0000 -0.1181322135
C   C50       1.0  0.33170  0.12424  0.39022  1.0000 -0.1181322135
C   C51       1.0  0.66830  0.62424  0.10978  1.0000 -0.1181322135
C   C52       1.0  0.33170  0.37576  0.60978  1.0000 -0.1181322135
C   C53       1.0  0.27820  0.16609  0.13017  1.0000 -0.0115959749
C   C54       1.0  0.72180  0.83391  0.63017  1.0000 -0.0115959749
C   C55       1.0  0.27820  0.33391  0.86983  1.0000 -0.0115959749
C   C56       1.0  0.72180  0.66609  0.36983  1.0000 -0.0115959749
C   C57       1.0  0.72180  0.83391  0.86983  1.0000 -0.0115959749
C   C58       1.0  0.27820  0.16609  0.36983  1.0000 -0.0115959749
C   C59       1.0  0.72180  0.66609  0.13017  1.0000 -0.0115959749
C   C60       1.0  0.27820  0.33391  0.63017  1.0000 -0.0115959749
C   C61       1.0  0.19140  0.18738  0.10515  1.0000 -0.2312912712
C   C62       1.0  0.80860  0.81262  0.60515  1.0000 -0.2312912712
C   C63       1.0  0.19140  0.31262  0.89485  1.0000 -0.2312912712
C   C64       1.0  0.80860  0.68738  0.39485  1.0000 -0.2312912712
C   C65       1.0  0.80860  0.81262  0.89485  1.0000 -0.2312912712
C   C66       1.0  0.19140  0.18738  0.39485  1.0000 -0.2312912712
C   C67       1.0  0.80860  0.68738  0.10515  1.0000 -0.2312912712
C   C68       1.0  0.19140  0.31262  0.60515  1.0000 -0.2312912712
C   C69       1.0  0.36300  0.06154  0.03951  1.0000 0.6008062052
C   C70       1.0  0.63700  0.93846  0.53951  1.0000 0.6008062052
C   C71       1.0  0.36300  0.43846  0.96049  1.0000 0.6008062052
C   C72       1.0  0.63700  0.56154  0.46049  1.0000 0.6008062052
C   C73       1.0  0.63700  0.93846  0.96049  1.0000 0.6008062052
C   C74       1.0  0.36300  0.06154  0.46049  1.0000 0.6008062052
C   C75       1.0  0.63700  0.56154  0.03951  1.0000 0.6008062052
C   C76       1.0  0.36300  0.43846  0.53951  1.0000 0.6008062052
C   C77       1.0  0.32280  0.19002  0.17787  1.0000 0.6008062052
C   C78       1.0  0.67720  0.80998  0.67787  1.0000 0.6008062052
C   C79       1.0  0.32280  0.30998  0.82213  1.0000 0.6008062052
C   C80       1.0  0.67720  0.69002  0.32213  1.0000 0.6008062052
C   C81       1.0  0.67720  0.80998  0.82213  1.0000 0.6008062052
C   C82       1.0  0.32280  0.19002  0.32213  1.0000 0.6008062052
C   C83       1.0  0.67720  0.69002  0.17787  1.0000 0.6008062052
C   C84       1.0  0.32280  0.30998  0.67787  1.0000 0.6008062052
C   C85       1.0  0.70100  0.35025  0.05597  1.0000 -0.2398939928
C   C86       1.0  0.29900  0.64975  0.55597  1.0000 -0.2398939928
C   C87       1.0  0.70100  0.14975  0.94403  1.0000 -0.2398939928
C   C88       1.0  0.29900  0.85025  0.44403  1.0000 -0.2398939928
C   C89       1.0  0.29900  0.64975  0.94403  1.0000 -0.2398939928
C   C90       1.0  0.70100  0.35025  0.44403  1.0000 -0.2398939928
C   C91       1.0  0.29900  0.85025  0.05597  1.0000 -0.2398939928
C   C92       1.0  0.70100  0.14975  0.55597  1.0000 -0.2398939928
C   C93       1.0  0.73420  0.30453  0.07652  1.0000 0.2498829519
C   C94       1.0  0.26580  0.69547  0.57652  1.0000 0.2498829519
C   C95       1.0  0.73420  0.19547  0.92348  1.0000 0.2498829519
C   C96       1.0  0.26580  0.80453  0.42348  1.0000 0.2498829519
C   C97       1.0  0.26580  0.69547  0.92348  1.0000 0.2498829519
C   C98       1.0  0.73420  0.30453  0.42348  1.0000 0.2498829519
C   C99       1.0  0.26580  0.80453  0.07652  1.0000 0.2498829519
C   C100      1.0  0.73420  0.19547  0.57652  1.0000 0.2498829519
C   C101      1.0  0.67840  0.28415  0.11806  1.0000 -0.2056576213
C   C102      1.0  0.32160  0.71585  0.61806  1.0000 -0.2056576213
C   C103      1.0  0.67840  0.21585  0.88194  1.0000 -0.2021469933
C   C104      1.0  0.32160  0.78415  0.38194  1.0000 -0.2056576213
C   C105      1.0  0.32160  0.71585  0.88194  1.0000 -0.2056576213
C   C106      1.0  0.67840  0.28415  0.38194  1.0000 -0.2021469933
C   C107      1.0  0.32160  0.78415  0.11806  1.0000 -0.2056576213
C   C108      1.0  0.67840  0.21585  0.61806  1.0000 -0.2021469933
C   C109      1.0  0.61030  0.37500  0.07614  1.0000 -0.003208361
C   C110      1.0  0.38970  0.62500  0.57614  1.0000 -0.003208361
C   C111      1.0  0.61030  0.12500  0.92386  1.0000 -0.003208361
C   C112      1.0  0.38970  0.87500  0.42386  1.0000 -0.003208361
C   C113      1.0  0.38970  0.62500  0.92386  1.0000 -0.003208361
C   C114      1.0  0.61030  0.37500  0.42386  1.0000 -0.003208361
C   C115      1.0  0.38970  0.87500  0.07614  1.0000 -0.003208361
C   C116      1.0  0.61030  0.12500  0.57614  1.0000 -0.003208361
C   C117      1.0  0.55440  0.35393  0.11641  1.0000 -0.1181322135
C   C118      1.0  0.44560  0.64607  0.61641  1.0000 -0.1181322135
C   C119      1.0  0.55440  0.14607  0.88359  1.0000 -0.1181322135
C   C120      1.0  0.44560  0.85393  0.38359  1.0000 -0.1181322135
C   C121      1.0  0.44560  0.64607  0.88359  1.0000 -0.1181322135
C   C122      1.0  0.55440  0.35393  0.38359  1.0000 -0.1181322135
C   C123      1.0  0.44560  0.85393  0.11641  1.0000 -0.1181322135
C   C124      1.0  0.55440  0.14607  0.61641  1.0000 -0.1181322135
C   C125      1.0  0.58880  0.30809  0.13745  1.0000 -0.0115959749
C   C126      1.0  0.41120  0.69191  0.63745  1.0000 -0.0115959749
C   C127      1.0  0.58880  0.19191  0.86255  1.0000 -0.0115959749
C   C128      1.0  0.41120  0.80809  0.36255  1.0000 -0.0115959749
C   C129      1.0  0.41120  0.69191  0.86255  1.0000 -0.0115959749
C   C130      1.0  0.58880  0.30809  0.36255  1.0000 -0.0115959749
C   C131      1.0  0.41120  0.80809  0.13745  1.0000 -0.0115959749
C   C132      1.0  0.58880  0.19191  0.63745  1.0000 -0.0115959749
C   C133      1.0  0.52710  0.28341  0.18036  1.0000 0.6008062052
C   C134      1.0  0.47290  0.71659  0.68036  1.0000 0.6008062052
C   C135      1.0  0.52710  0.21659  0.81964  1.0000 0.6008062052
C   C136      1.0  0.47290  0.78341  0.31964  1.0000 0.6008062052
C   C137      1.0  0.47290  0.71659  0.81964  1.0000 0.6008062052
C   C138      1.0  0.52710  0.28341  0.31964  1.0000 0.6008062052
C   C139      1.0  0.47290  0.78341  0.18036  1.0000 0.6008062052
C   C140      1.0  0.52710  0.21659  0.68036  1.0000 0.6008062052
C   C141      1.0  0.57040  0.42340  0.05119  1.0000 0.6008062052
C   C142      1.0  0.42960  0.57660  0.55119  1.0000 0.6008062052
C   C143      1.0  0.57040  0.07660  0.94881  1.0000 0.6008062052
C   C144      1.0  0.42960  0.92340  0.44881  1.0000 0.6008062052
C   C145      1.0  0.42960  0.57660  0.94881  1.0000 0.6008062052
C   C146      1.0  0.57040  0.42340  0.44881  1.0000 0.6008062052
C   C147      1.0  0.42960  0.92340  0.05119  1.0000 0.6008062052
C   C148      1.0  0.57040  0.07660  0.55119  1.0000 0.6008062052
O   O1        1.0  0.07510  0.18580  0.02965  1.0000 -0.2021469933
O   O2        1.0  0.92490  0.81420  0.52965  1.0000 -0.2021469933
O   O3        1.0  0.07510  0.31420  0.97035  1.0000 -0.2021469933
O   O4        1.0  0.92490  0.68580  0.47035  1.0000 -0.2021469933
O   O5        1.0  0.92490  0.81420  0.97035  1.0000 -0.2021469933
O   O6        1.0  0.07510  0.18580  0.47035  1.0000 -0.2021469933
O   O7        1.0  0.92490  0.68580  0.02965  1.0000 -0.2021469933
O   O8        1.0  0.07510  0.31420  0.52965  1.0000 -0.2021469933
O   O9        1.0  0.81855  0.27581  0.05894  1.0000 -0.2021469933
O   O10       1.0  0.18145  0.72419  0.55894  1.0000 -0.2021469933
O   O11       1.0  0.81855  0.22419  0.94106  1.0000 -0.2021469933
O   O12       1.0  0.18145  0.77581  0.44106  1.0000 -0.2021469933
O   O13       1.0  0.18145  0.72419  0.94106  1.0000 -0.2021469933
O   O14       1.0  0.81855  0.27581  0.44106  1.0000 -0.2021469933
O   O15       1.0  0.18145  0.77581  0.05894  1.0000 -0.2021469933
O   O16       1.0  0.81855  0.22419  0.55894  1.0000 -0.2021469933
O   O17       1.0  0.32561  0.04201  0.99983  1.0000 -0.5389361374
O   O18       1.0  0.67439  0.95799  0.49983  1.0000 -0.5389361374
O   O19       1.0  0.32561  0.45799  0.00017  1.0000 -0.5389361374
O   O20       1.0  0.67439  0.54201  0.50017  1.0000 -0.5389361374
O   O21       1.0  0.67439  0.95799  0.00017  1.0000 -0.5389361374
O   O22       1.0  0.32561  0.04201  0.50017  1.0000 -0.5389361374
O   O23       1.0  0.67439  0.54201  0.99983  1.0000 -0.5389361374
O   O24       1.0  0.32561  0.45799  0.49983  1.0000 -0.5389361374
O   O25       1.0  0.45086  0.04955  0.06104  1.0000 -0.5592097864
O   O26       1.0  0.54914  0.95045  0.56104  1.0000 -0.5592097864
O   O27       1.0  0.45086  0.45045  0.93896  1.0000 -0.5592097864
O   O28       1.0  0.54914  0.54955  0.43896  1.0000 -0.5592097864
O   O29       1.0  0.54914  0.95045  0.93896  1.0000 -0.5592097864
O   O30       1.0  0.45086  0.04955  0.43896  1.0000 -0.5592097864
O   O31       1.0  0.54914  0.54955  0.06104  1.0000 -0.5592097864
O   O32       1.0  0.45086  0.45045  0.56104  1.0000 -0.5592097864
O   O33       1.0  0.40518  0.16796  0.19685  1.0000 -0.5513162291
O   O34       1.0  0.59482  0.83204  0.69685  1.0000 -0.5513162291
O   O35       1.0  0.40518  0.33204  0.80315  1.0000 -0.5513162291
O   O36       1.0  0.59482  0.66796  0.30315  1.0000 -0.5513162291
O   O37       1.0  0.59482  0.83204  0.80315  1.0000 -0.5513162291
O   O38       1.0  0.40518  0.16796  0.30315  1.0000 -0.5513162291
O   O39       1.0  0.59482  0.66796  0.19685  1.0000 -0.5513162291
O   O40       1.0  0.40518  0.33204  0.69685  1.0000 -0.5513162291
O   O41       1.0  0.27813  0.22925  0.19470  1.0000 -0.5389361374
O   O42       1.0  0.72187  0.77075  0.69470  1.0000 -0.5389361374
O   O43       1.0  0.27813  0.27075  0.80530  1.0000 -0.5389361374
O   O44       1.0  0.72187  0.72925  0.30530  1.0000 -0.5389361374
O   O45       1.0  0.72187  0.77075  0.80530  1.0000 -0.5389361374
O   O46       1.0  0.27813  0.22925  0.30530  1.0000 -0.5389361374
O   O47       1.0  0.72187  0.72925  0.19470  1.0000 -0.5389361374
O   O48       1.0  0.27813  0.27075  0.69470  1.0000 -0.5389361374
O   O49       1.0  0.56591  0.24220  0.19672  1.0000 -0.5592097864
O   O50       1.0  0.43409  0.75780  0.69672  1.0000 -0.5592097864
O   O51       1.0  0.56591  0.25780  0.80328  1.0000 -0.5592097864
O   O52       1.0  0.43409  0.74220  0.30328  1.0000 -0.5592097864
O   O53       1.0  0.43409  0.75780  0.80328  1.0000 -0.5592097864
O   O54       1.0  0.56591  0.24220  0.30328  1.0000 -0.5592097864
O   O55       1.0  0.43409  0.74220  0.19672  1.0000 -0.5592097864
O   O56       1.0  0.56591  0.25780  0.69672  1.0000 -0.5592097864
O   O57       1.0  0.44407  0.30442  0.19602  1.0000 -0.5158627828
O   O58       1.0  0.55593  0.69558  0.69602  1.0000 -0.5158627828
O   O59       1.0  0.44407  0.19558  0.80398  1.0000 -0.5144946178
O   O60       1.0  0.55593  0.80442  0.30398  1.0000 -0.5158627828
O   O61       1.0  0.55593  0.69558  0.80398  1.0000 -0.5144946178
O   O62       1.0  0.44407  0.30442  0.30398  1.0000 -0.5144946178
O   O63       1.0  0.55593  0.80442  0.19602  1.0000 -0.5144946178
O   O64       1.0  0.44407  0.19558  0.69602  1.0000 -0.5158627828
O   O65       1.0  0.49141  0.44567  0.07193  1.0000 -0.5389361374
O   O66       1.0  0.50859  0.55433  0.57193  1.0000 -0.5389361374
O   O67       1.0  0.49141  0.05433  0.92807  1.0000 -0.5389361374
O   O68       1.0  0.50859  0.94567  0.42807  1.0000 -0.5349337062
O   O69       1.0  0.50859  0.55433  0.92807  1.0000 -0.5389361374
O   O70       1.0  0.49141  0.44567  0.42807  1.0000 -0.5389361374
O   O71       1.0  0.50859  0.94567  0.07193  1.0000 -0.5389361374
O   O72       1.0  0.49141  0.05433  0.57193  1.0000 -0.5389361374
O   O73       1.0  0.61702  0.43690  0.01105  1.0000 -0.5592097864
O   O74       1.0  0.38298  0.56310  0.51105  1.0000 -0.5592097864
O   O75       1.0  0.61702  0.06310  0.98895  1.0000 -0.5592097864
O   O76       1.0  0.38298  0.93690  0.48895  1.0000 -0.5592097864
O   O77       1.0  0.38298  0.56310  0.98895  1.0000 -0.5592097864
O   O78       1.0  0.61702  0.43690  0.48895  1.0000 -0.5592097864
O   O79       1.0  0.38298  0.93690  0.01105  1.0000 -0.5592097864
O   O80       1.0  0.61702  0.06310  0.51105  1.0000 -0.5592097864
