# DDEC6 charges by PACMAN v1.1 (https://github.com/mtap-research/PACMAN-charge/)
data_2012[Co][ecu]3[ASR]8
_chemical_formula_sum              "Co8 H72 C96 N16 O36"
_cell_length_a       11.4659
_cell_length_b       13.2732
_cell_length_c       26.1201
_cell_angle_alpha    90
_cell_angle_beta     90
_cell_angle_gamma    90

_symmetry_space_group_name_H-M    "P 1"
_symmetry_Int_Tables_number       1

loop_
  _symmetry_equiv_pos_as_xyz
  'x, y, z'

loop_
  _atom_site_type_symbol
  _atom_site_label
  _atom_site_symmetry_multiplicity
  _atom_site_fract_x
  _atom_site_fract_y
  _atom_site_fract_z
  _atom_site_occupancy
  _atom_site_charge
Co  Co1       1.0  0.15121  0.94429  0.07833  1.0000 0.8882425498
Co  Co2       1.0  0.34879  0.05571  0.57833  1.0000 0.8882425498
Co  Co3       1.0  0.65121  0.55571  0.92167  1.0000 0.8882425498
Co  Co4       1.0  0.84879  0.44429  0.42167  1.0000 0.8882425498
Co  Co5       1.0  0.89484  0.04968  0.14009  1.0000 0.8845871459
Co  Co6       1.0  0.60516  0.95032  0.64009  1.0000 0.8845871459
Co  Co7       1.0  0.39484  0.45032  0.85991  1.0000 0.8845871459
Co  Co8       1.0  0.10516  0.54968  0.35991  1.0000 0.8845871459
H   H1        1.0  0.07890  0.13000  0.09140  1.0000 0.3823360126
H   H2        1.0  0.42110  0.87000  0.59140  1.0000 0.3823360126
H   H3        1.0  0.57890  0.37000  0.90860  1.0000 0.3823360126
H   H4        1.0  0.92110  0.63000  0.40860  1.0000 0.3823360126
H   H5        1.0  0.12420  0.08940  0.14550  1.0000 0.3823360126
H   H6        1.0  0.37580  0.91060  0.64550  1.0000 0.3823360126
H   H7        1.0  0.62420  0.41060  0.85450  1.0000 0.3823360126
H   H8        1.0  0.87580  0.58940  0.35450  1.0000 0.3823360126
H   H9        1.0  0.39420  0.01500  0.04460  1.0000 0.0894950364
H   H10       1.0  0.10580  0.98500  0.54460  1.0000 0.0894950364
H   H11       1.0  0.89420  0.48500  0.95540  1.0000 0.0894950364
H   H12       1.0  0.60580  0.51500  0.45540  1.0000 0.0894950364
H   H13       1.0  0.76170  0.76920  0.07380  1.0000 0.135324664
H   H14       1.0  0.73830  0.23080  0.57380  1.0000 0.135324664
H   H15       1.0  0.26170  0.73080  0.92620  1.0000 0.135324664
H   H16       1.0  0.23830  0.26920  0.42620  1.0000 0.135324664
H   H17       1.0  0.97420  0.74620  0.33550  1.0000 0.1090130844
H   H18       1.0  0.52580  0.25380  0.83550  1.0000 0.1090130844
H   H19       1.0  0.47420  0.75380  0.66450  1.0000 0.1090130844
H   H20       1.0  0.02580  0.24620  0.16450  1.0000 0.1090130844
H   H21       1.0  0.16260  0.57470  0.24490  1.0000 0.1016176321
H   H22       1.0  0.33740  0.42530  0.74490  1.0000 0.1016176321
H   H23       1.0  0.66260  0.92530  0.75510  1.0000 0.1016176321
H   H24       1.0  0.83740  0.07470  0.25510  1.0000 0.1016176321
H   H25       1.0  0.67240  0.64160  0.02860  1.0000 0.1016176321
H   H26       1.0  0.82760  0.35840  0.52860  1.0000 0.1016176321
H   H27       1.0  0.17240  0.85840  0.97140  1.0000 0.1016176321
H   H28       1.0  0.32760  0.14160  0.47140  1.0000 0.1016176321
H   H29       1.0  0.68640  0.18560  0.16940  1.0000 0.1016176321
H   H30       1.0  0.81360  0.81440  0.66940  1.0000 0.1016176321
H   H31       1.0  0.18640  0.31440  0.83060  1.0000 0.1016176321
H   H32       1.0  0.31360  0.68560  0.33060  1.0000 0.1016176321
H   H33       1.0  0.48730  0.13920  0.99700  1.0000 0.135324664
H   H34       1.0  0.01270  0.86080  0.49700  1.0000 0.135324664
H   H35       1.0  0.98730  0.36080  0.00300  1.0000 0.135324664
H   H36       1.0  0.51270  0.63920  0.50300  1.0000 0.135324664
H   H37       1.0  0.93900  0.85870  0.26930  1.0000 0.1312255133
H   H38       1.0  0.56100  0.14130  0.76930  1.0000 0.1312255133
H   H39       1.0  0.43900  0.64130  0.73070  1.0000 0.1312255133
H   H40       1.0  0.06100  0.35870  0.23070  1.0000 0.1312255133
H   H41       1.0  0.17510  0.21900  0.93930  1.0000 0.135324664
H   H42       1.0  0.32490  0.78100  0.43930  1.0000 0.135324664
H   H43       1.0  0.67510  0.28100  0.06070  1.0000 0.135324664
H   H44       1.0  0.82490  0.71900  0.56070  1.0000 0.135324664
H   H45       1.0  0.14080  0.68680  0.17760  1.0000 0.1312255133
H   H46       1.0  0.35920  0.31320  0.67760  1.0000 0.1312255133
H   H47       1.0  0.64080  0.81320  0.82240  1.0000 0.1312255133
H   H48       1.0  0.85920  0.18680  0.32240  1.0000 0.1312255133
H   H49       1.0  0.82060  0.73540  0.90120  1.0000 0.1090130844
H   H50       1.0  0.67940  0.26460  0.40120  1.0000 0.1090130844
H   H51       1.0  0.32060  0.76460  0.09880  1.0000 0.1090130844
H   H52       1.0  0.17940  0.23540  0.59880  1.0000 0.1090130844
H   H53       1.0  0.91850  0.85880  0.94410  1.0000 0.1312255133
H   H54       1.0  0.58150  0.14120  0.44410  1.0000 0.1312255133
H   H55       1.0  0.41850  0.64120  0.05590  1.0000 0.1312255133
H   H56       1.0  0.08150  0.35880  0.55590  1.0000 0.1312255133
H   H57       1.0  0.48510  0.18480  0.17030  1.0000 0.1312255133
H   H58       1.0  0.01490  0.81520  0.67030  1.0000 0.1312255133
H   H59       1.0  0.98510  0.31520  0.82970  1.0000 0.1312255133
H   H60       1.0  0.51490  0.68480  0.32970  1.0000 0.1312255133
H   H61       1.0  0.09110  0.09520  0.98970  1.0000 0.1090130844
H   H62       1.0  0.40890  0.90480  0.48970  1.0000 0.1090130844
H   H63       1.0  0.59110  0.40480  0.01030  1.0000 0.1090130844
H   H64       1.0  0.90890  0.59520  0.51030  1.0000 0.1090130844
H   H65       1.0  0.69660  0.89000  0.15100  1.0000 0.1090130844
H   H66       1.0  0.80340  0.11000  0.65100  1.0000 0.1090130844
H   H67       1.0  0.19660  0.61000  0.84900  1.0000 0.1090130844
H   H68       1.0  0.30340  0.39000  0.34900  1.0000 0.1090130844
H   H69       1.0  0.49470  0.88550  0.14590  1.0000 0.1312255133
H   H70       1.0  0.00530  0.11450  0.64590  1.0000 0.1312255133
H   H71       1.0  0.99470  0.61450  0.85410  1.0000 0.1312255133
H   H72       1.0  0.50530  0.38550  0.35410  1.0000 0.1312255133
C   C1        1.0  0.34880  0.05820  0.02360  1.0000 0.0599107813
C   C2        1.0  0.15120  0.94180  0.52360  1.0000 0.0599107813
C   C3        1.0  0.84880  0.44180  0.97640  1.0000 0.0599107813
C   C4        1.0  0.65120  0.55820  0.47640  1.0000 0.0599107813
C   C5        1.0  0.77520  0.76300  0.03810  1.0000 -0.1619310152
C   C6        1.0  0.72480  0.23700  0.53810  1.0000 -0.1619310152
C   C7        1.0  0.27520  0.73700  0.96190  1.0000 -0.1619310152
C   C8        1.0  0.22480  0.26300  0.46190  1.0000 -0.1619310152
C   C9        1.0  0.01970  0.86120  0.17360  1.0000 0.5869431567
C   C10       1.0  0.48030  0.13880  0.67360  1.0000 0.5869431567
C   C11       1.0  0.51970  0.63880  0.82640  1.0000 0.5869431567
C   C12       1.0  0.98030  0.36120  0.32640  1.0000 0.5869431567
C   C13       1.0  0.00730  0.73350  0.30280  1.0000 0.0701448262
C   C14       1.0  0.49270  0.26650  0.80280  1.0000 0.0701448262
C   C15       1.0  0.50730  0.76650  0.69720  1.0000 0.0701448262
C   C16       1.0  0.99270  0.23350  0.19720  1.0000 0.0701448262
C   C17       1.0  0.11820  0.63420  0.25020  1.0000 0.0769455466
C   C18       1.0  0.38180  0.36580  0.75020  1.0000 0.0769455466
C   C19       1.0  0.61820  0.86580  0.74980  1.0000 0.0769455466
C   C20       1.0  0.88180  0.13420  0.24980  1.0000 0.0769455466
C   C21       1.0  0.72090  0.68810  0.01090  1.0000 0.0701448262
C   C22       1.0  0.77910  0.31190  0.51090  1.0000 0.0701448262
C   C23       1.0  0.22090  0.81190  0.98910  1.0000 0.0701448262
C   C24       1.0  0.27910  0.18810  0.48910  1.0000 0.0701448262
C   C25       1.0  0.64660  0.12340  0.16510  1.0000 0.0701448262
C   C26       1.0  0.85340  0.87660  0.66510  1.0000 0.0701448262
C   C27       1.0  0.14660  0.37660  0.83490  1.0000 0.0701448262
C   C28       1.0  0.35340  0.62340  0.33490  1.0000 0.0701448262
C   C29       1.0  0.40500  0.13190  0.99480  1.0000 -0.1525407307
C   C30       1.0  0.09500  0.86810  0.49480  1.0000 -0.1525407307
C   C31       1.0  0.90500  0.36810  0.00520  1.0000 -0.1525407307
C   C32       1.0  0.59500  0.63190  0.50520  1.0000 -0.1525407307
C   C33       1.0  0.46700  0.03510  0.15610  1.0000 0.0222720758
C   C34       1.0  0.03300  0.96490  0.65610  1.0000 0.0222720758
C   C35       1.0  0.96700  0.46490  0.84390  1.0000 0.0222720758
C   C36       1.0  0.53300  0.53510  0.34390  1.0000 0.0222720758
C   C37       1.0  0.98680  0.80130  0.26360  1.0000 -0.1426432583
C   C38       1.0  0.51320  0.19870  0.76360  1.0000 -0.1426432583
C   C39       1.0  0.48680  0.69870  0.73640  1.0000 -0.1426432583
C   C40       1.0  0.01320  0.30130  0.23640  1.0000 -0.1426432583
C   C41       1.0  0.34230  0.19360  0.96330  1.0000 0.0222720758
C   C42       1.0  0.15770  0.80640  0.46330  1.0000 0.0222720758
C   C43       1.0  0.84230  0.30640  0.03670  1.0000 0.0222720758
C   C44       1.0  0.65770  0.69360  0.53670  1.0000 0.0222720758
C   C45       1.0  0.03560  0.78530  0.21640  1.0000 0.0294520255
C   C46       1.0  0.46440  0.21470  0.71640  1.0000 0.0294520255
C   C47       1.0  0.53560  0.71470  0.78360  1.0000 0.0294520255
C   C48       1.0  0.96440  0.28530  0.28360  1.0000 0.0294520255
C   C49       1.0  0.22240  0.17890  0.96120  1.0000 -0.1525407307
C   C50       1.0  0.27760  0.82110  0.46120  1.0000 -0.1525407307
C   C51       1.0  0.72240  0.32110  0.03880  1.0000 -0.1525407307
C   C52       1.0  0.77760  0.67890  0.53880  1.0000 -0.1525407307
C   C53       1.0  0.40300  0.27410  0.93310  1.0000 0.5606012713
C   C54       1.0  0.09700  0.72590  0.43310  1.0000 0.5606012713
C   C55       1.0  0.90300  0.22590  0.06690  1.0000 0.5606012713
C   C56       1.0  0.59700  0.77410  0.56690  1.0000 0.5606012713
C   C57       1.0  0.10430  0.69980  0.20960  1.0000 -0.1619310152
C   C58       1.0  0.39570  0.30020  0.70960  1.0000 -0.1619310152
C   C59       1.0  0.60430  0.80020  0.79040  1.0000 -0.1619310152
C   C60       1.0  0.89570  0.19980  0.29040  1.0000 -0.1619310152
C   C61       1.0  0.80820  0.74220  0.93700  1.0000 0.0769455466
C   C62       1.0  0.69180  0.25780  0.43700  1.0000 0.0769455466
C   C63       1.0  0.30820  0.75780  0.06300  1.0000 0.0769455466
C   C64       1.0  0.19180  0.24220  0.56300  1.0000 0.0769455466
C   C65       1.0  0.86610  0.81600  0.96210  1.0000 -0.1619310152
C   C66       1.0  0.63390  0.18400  0.46210  1.0000 -0.1619310152
C   C67       1.0  0.36610  0.68400  0.03790  1.0000 -0.1619310152
C   C68       1.0  0.13390  0.31600  0.53790  1.0000 -0.1619310152
C   C69       1.0  0.52660  0.12380  0.16470  1.0000 -0.1619310152
C   C70       1.0  0.97340  0.87620  0.66470  1.0000 -0.1619310152
C   C71       1.0  0.02660  0.37620  0.83530  1.0000 -0.1619310152
C   C72       1.0  0.47340  0.62380  0.33530  1.0000 -0.1619310152
C   C73       1.0  0.84860  0.82860  0.01390  1.0000 0.0377464775
C   C74       1.0  0.65140  0.17140  0.51390  1.0000 0.0377464775
C   C75       1.0  0.34860  0.67140  0.98610  1.0000 0.0377464775
C   C76       1.0  0.15140  0.32860  0.48610  1.0000 0.0377464775
C   C77       1.0  0.17310  0.10450  0.99150  1.0000 0.1016176321
C   C78       1.0  0.32690  0.89550  0.49150  1.0000 0.1016176321
C   C79       1.0  0.67310  0.39550  0.00850  1.0000 0.1016176321
C   C80       1.0  0.82690  0.60450  0.50850  1.0000 0.1016176321
C   C81       1.0  0.90940  0.91160  0.04480  1.0000 0.5869431567
C   C82       1.0  0.59060  0.08840  0.54480  1.0000 0.5869431567
C   C83       1.0  0.40940  0.58840  0.95520  1.0000 0.5869431567
C   C84       1.0  0.09060  0.41160  0.45520  1.0000 0.5869431567
C   C85       1.0  0.65350  0.95100  0.15360  1.0000 0.0894950364
C   C86       1.0  0.84650  0.04900  0.65360  1.0000 0.0894950364
C   C87       1.0  0.15350  0.54900  0.84640  1.0000 0.0894950364
C   C88       1.0  0.34650  0.45100  0.34640  1.0000 0.0894950364
C   C89       1.0  0.53300  0.94810  0.15110  1.0000 -0.1619310152
C   C90       1.0  0.96700  0.05190  0.65110  1.0000 -0.1619310152
C   C91       1.0  0.03300  0.55190  0.84890  1.0000 -0.1619310152
C   C92       1.0  0.46700  0.44810  0.34890  1.0000 -0.1619310152
C   C93       1.0  0.33570  0.03250  0.14840  1.0000 0.5606012713
C   C94       1.0  0.16430  0.96750  0.64840  1.0000 0.5606012713
C   C95       1.0  0.83570  0.46750  0.85160  1.0000 0.5606012713
C   C96       1.0  0.66430  0.53250  0.35160  1.0000 0.5606012713
N   N1        1.0  0.73450  0.67850  0.95980  1.0000 -0.2277677175
N   N2        1.0  0.76550  0.32150  0.45980  1.0000 -0.2277677175
N   N3        1.0  0.23450  0.82150  0.04020  1.0000 -0.2277677175
N   N4        1.0  0.26550  0.17850  0.54020  1.0000 -0.2277677175
N   N5        1.0  0.07260  0.65020  0.29630  1.0000 -0.2516147815
N   N6        1.0  0.42740  0.34980  0.79630  1.0000 -0.2516147815
N   N7        1.0  0.57260  0.84980  0.70370  1.0000 -0.2516147815
N   N8        1.0  0.92740  0.15020  0.20370  1.0000 -0.2516147815
N   N9        1.0  0.23230  0.04610  0.02260  1.0000 -0.2516147815
N   N10       1.0  0.26770  0.95390  0.52260  1.0000 -0.2516147815
N   N11       1.0  0.73230  0.45390  0.97740  1.0000 -0.2516147815
N   N12       1.0  0.76770  0.54610  0.47740  1.0000 -0.2516147815
N   N13       1.0  0.71060  0.03870  0.15950  1.0000 -0.2359994579
N   N14       1.0  0.78940  0.96130  0.65950  1.0000 -0.2359994579
N   N15       1.0  0.21060  0.46130  0.84050  1.0000 -0.2359994579
N   N16       1.0  0.28940  0.53870  0.34050  1.0000 -0.2359994579
O   O1        1.0  0.07620  0.07200  0.11521  1.0000 -0.7951892544
O   O2        1.0  0.42380  0.92800  0.61521  1.0000 -0.7951892544
O   O3        1.0  0.57620  0.42800  0.88479  1.0000 -0.7951892544
O   O4        1.0  0.92380  0.57200  0.38479  1.0000 -0.7951892544
O   O5        1.0  0.27790  0.10860  0.16180  1.0000 -0.5487248231
O   O6        1.0  0.22210  0.89140  0.66180  1.0000 -0.5487248231
O   O7        1.0  0.77790  0.39140  0.83820  1.0000 -0.5487248231
O   O8        1.0  0.72210  0.60860  0.33820  1.0000 -0.5487248231
O   O9        1.0  0.50980  0.27950  0.93870  1.0000 -0.5396811742
O   O10       1.0  0.99020  0.72050  0.43870  1.0000 -0.5396811742
O   O11       1.0  0.00980  0.22050  0.06130  1.0000 -0.5396811742
O   O12       1.0  0.49020  0.77950  0.56130  1.0000 -0.5396811742
O   O13       1.0  0.29570  0.95620  0.12710  1.0000 -0.567870734
O   O14       1.0  0.20430  0.04380  0.62710  1.0000 -0.567870734
O   O15       1.0  0.79570  0.54380  0.87290  1.0000 -0.567870734
O   O16       1.0  0.70430  0.45620  0.37290  1.0000 -0.567870734
O   O17       1.0  0.94780  0.93150  0.18360  1.0000 -0.567870734
O   O18       1.0  0.55220  0.06850  0.68360  1.0000 -0.567870734
O   O19       1.0  0.44780  0.56850  0.81640  1.0000 -0.567870734
O   O20       1.0  0.05220  0.43150  0.31640  1.0000 -0.567870734
O   O21       1.0  0.07600  0.84870  0.13360  1.0000 -0.5396811742
O   O22       1.0  0.42400  0.15130  0.63360  1.0000 -0.5396811742
O   O23       1.0  0.57600  0.65130  0.86640  1.0000 -0.5396811742
O   O24       1.0  0.92400  0.34870  0.36640  1.0000 -0.5396811742
O   O25       1.0  0.01150  0.93420  0.02940  1.0000 -0.567870734
O   O26       1.0  0.48850  0.06580  0.52940  1.0000 -0.567870734
O   O27       1.0  0.51150  0.56580  0.97060  1.0000 -0.567870734
O   O28       1.0  0.98850  0.43420  0.47060  1.0000 -0.567870734
O   O29       1.0  0.34160  0.32890  0.90500  1.0000 -0.5612377454
O   O30       1.0  0.15840  0.67110  0.40500  1.0000 -0.5612377454
O   O31       1.0  0.84160  0.17110  0.09500  1.0000 -0.5612377454
O   O32       1.0  0.65840  0.82890  0.59500  1.0000 -0.5612377454
O   O33       1.0  0.85550  0.94770  0.08168  1.0000 -0.5396811742
O   O34       1.0  0.64450  0.05230  0.58168  1.0000 -0.5396811742
O   O35       1.0  0.35550  0.55230  0.91832  1.0000 -0.5396811742
O   O36       1.0  0.14450  0.44770  0.41832  1.0000 -0.5396811742
