# DDEC6 charges by PACMAN v1.1 (https://github.com/mtap-research/PACMAN-charge/)
data_2012[Gd][pcu]3[ASR]3
_chemical_formula_sum              "Gd8 H48 C168 N48 O144"
_cell_length_a       13.307
_cell_length_b       30.217
_cell_length_c       25.693
_cell_angle_alpha    90
_cell_angle_beta     112.688
_cell_angle_gamma    90

_symmetry_space_group_name_H-M    "P 1"
_symmetry_Int_Tables_number       1

loop_
  _symmetry_equiv_pos_as_xyz
  'x, y, z'

loop_
  _atom_site_type_symbol
  _atom_site_label
  _atom_site_symmetry_multiplicity
  _atom_site_fract_x
  _atom_site_fract_y
  _atom_site_fract_z
  _atom_site_occupancy
  _atom_site_charge
Gd  Gd1       1.0  0.87484  0.22873  0.72965  1.0000 2.0173990552
Gd  Gd2       1.0  0.12516  0.72873  0.77035  1.0000 2.0173990552
Gd  Gd3       1.0  0.12516  0.77127  0.27035  1.0000 2.0173990552
Gd  Gd4       1.0  0.87484  0.27127  0.22965  1.0000 2.0173990552
Gd  Gd5       1.0  0.63834  0.25145  0.79020  1.0000 2.0108095233
Gd  Gd6       1.0  0.36166  0.75145  0.70980  1.0000 2.0108095233
Gd  Gd7       1.0  0.36166  0.74855  0.20980  1.0000 2.0108095233
Gd  Gd8       1.0  0.63834  0.24855  0.29020  1.0000 2.0108095233
H   H1        1.0  0.47330  0.27740  0.65330  1.0000 0.1392776232
H   H2        1.0  0.52670  0.77740  0.84670  1.0000 0.1392776232
H   H3        1.0  0.52670  0.72260  0.34670  1.0000 0.1392776232
H   H4        1.0  0.47330  0.22260  0.15330  1.0000 0.1392776232
H   H5        1.0  0.55870  0.20250  0.54930  1.0000 0.1505316688
H   H6        1.0  0.44130  0.70250  0.95070  1.0000 0.1505316688
H   H7        1.0  0.44130  0.79750  0.45070  1.0000 0.1505316688
H   H8        1.0  0.55870  0.29750  0.04930  1.0000 0.1505316688
H   H9        1.0  0.96040  0.20630  0.46160  1.0000 0.1505316688
H   H10       1.0  0.03960  0.70630  0.03840  1.0000 0.1505316688
H   H11       1.0  0.03960  0.79370  0.53840  1.0000 0.1505316688
H   H12       1.0  0.96040  0.29370  0.96160  1.0000 0.1505316688
H   H13       1.0  0.04360  0.29320  0.36570  1.0000 0.1392776232
H   H14       1.0  0.95640  0.79320  0.13430  1.0000 0.1392776232
H   H15       1.0  0.95640  0.70680  0.63430  1.0000 0.1392776232
H   H16       1.0  0.04360  0.20680  0.86570  1.0000 0.1392776232
H   H17       1.0  0.84710  0.60980  0.68170  1.0000 0.1392776232
H   H18       1.0  0.15290  0.10980  0.81830  1.0000 0.1392776232
H   H19       1.0  0.15290  0.39020  0.31830  1.0000 0.1392776232
H   H20       1.0  0.84710  0.89020  0.18170  1.0000 0.1392776232
H   H21       1.0  0.05270  0.58790  0.83980  1.0000 0.1505316688
H   H22       1.0  0.94730  0.08790  0.66020  1.0000 0.1505316688
H   H23       1.0  0.94730  0.41210  0.16020  1.0000 0.1505316688
H   H24       1.0  0.05270  0.91210  0.33980  1.0000 0.1505316688
H   H25       1.0  0.90390  0.37350  0.70700  1.0000 0.1505316688
H   H26       1.0  0.09610  0.87350  0.79300  1.0000 0.1505316688
H   H27       1.0  0.09610  0.62650  0.29300  1.0000 0.1505316688
H   H28       1.0  0.90390  0.12650  0.20700  1.0000 0.1505316688
H   H29       1.0  0.71250  0.39960  0.78910  1.0000 0.1505316688
H   H30       1.0  0.28750  0.89960  0.71090  1.0000 0.1505316688
H   H31       1.0  0.28750  0.60040  0.21090  1.0000 0.1505316688
H   H32       1.0  0.71250  0.10040  0.28910  1.0000 0.1505316688
H   H33       1.0  0.79740  0.08260  0.72480  1.0000 0.1505316688
H   H34       1.0  0.20260  0.58260  0.77520  1.0000 0.1505316688
H   H35       1.0  0.20260  0.91740  0.27520  1.0000 0.1505316688
H   H36       1.0  0.79740  0.41740  0.22480  1.0000 0.1505316688
H   H37       1.0  0.58890  0.10570  0.79860  1.0000 0.1564558272
H   H38       1.0  0.41110  0.60570  0.70140  1.0000 0.1564558272
H   H39       1.0  0.41110  0.89430  0.20140  1.0000 0.1564558272
H   H40       1.0  0.58890  0.39430  0.29860  1.0000 0.1564558272
H   H41       1.0  0.43820  0.89780  0.64450  1.0000 0.1505316688
H   H42       1.0  0.56180  0.39780  0.85550  1.0000 0.1505316688
H   H43       1.0  0.56180  0.10220  0.35550  1.0000 0.1505316688
H   H44       1.0  0.43820  0.60220  0.14450  1.0000 0.1505316688
H   H45       1.0  0.63480  0.86710  0.80180  1.0000 0.1392776232
H   H46       1.0  0.36520  0.36710  0.69820  1.0000 0.1392776232
H   H47       1.0  0.36520  0.13290  0.19820  1.0000 0.1392776232
H   H48       1.0  0.63480  0.63290  0.30180  1.0000 0.1392776232
C   C1        1.0  0.64580  0.23420  0.65260  1.0000 0.6213522676
C   C2        1.0  0.35420  0.73420  0.84740  1.0000 0.6213522676
C   C3        1.0  0.35420  0.76580  0.34740  1.0000 0.6213522676
C   C4        1.0  0.64580  0.26580  0.15260  1.0000 0.6213522676
C   C5        1.0  0.53360  0.23880  0.60890  1.0000 -0.0024360531
C   C6        1.0  0.46640  0.73880  0.89110  1.0000 -0.0024360531
C   C7        1.0  0.46640  0.76120  0.39110  1.0000 -0.0024360531
C   C8        1.0  0.53360  0.26120  0.10890  1.0000 -0.0024360531
C   C9        1.0  0.45610  0.26270  0.61910  1.0000 -0.1195024445
C   C10       1.0  0.54390  0.76270  0.88090  1.0000 -0.1195024445
C   C11       1.0  0.54390  0.73730  0.38090  1.0000 -0.1195024445
C   C12       1.0  0.45610  0.23730  0.11910  1.0000 -0.1195024445
C   C13       1.0  0.34900  0.26500  0.57710  1.0000 0.0093550722
C   C14       1.0  0.65100  0.76500  0.92290  1.0000 0.0093550722
C   C15       1.0  0.65100  0.73500  0.42290  1.0000 0.0093550722
C   C16       1.0  0.34900  0.23500  0.07710  1.0000 0.0093550722
C   C17       1.0  0.32120  0.24370  0.52590  1.0000 -0.0212232835
C   C18       1.0  0.67880  0.74370  0.97410  1.0000 -0.0212232835
C   C19       1.0  0.67880  0.75630  0.47410  1.0000 -0.0212232835
C   C20       1.0  0.32120  0.25630  0.02590  1.0000 -0.0212232835
C   C21       1.0  0.40070  0.22010  0.51840  1.0000 0.0432666263
C   C22       1.0  0.59930  0.72010  0.98160  1.0000 0.0432666263
C   C23       1.0  0.59930  0.77990  0.48160  1.0000 0.0432666263
C   C24       1.0  0.40070  0.27990  0.01840  1.0000 0.0432666263
C   C25       1.0  0.50620  0.21800  0.55750  1.0000 -0.1095961377
C   C26       1.0  0.49380  0.71800  0.94250  1.0000 -0.1095961377
C   C27       1.0  0.49380  0.78200  0.44250  1.0000 -0.1095961377
C   C28       1.0  0.50620  0.28200  0.05750  1.0000 -0.1095961377
C   C29       1.0  0.20380  0.24550  0.48200  1.0000 -0.0101479091
C   C30       1.0  0.79620  0.74550  0.01800  1.0000 -0.0101479091
C   C31       1.0  0.79620  0.75450  0.51800  1.0000 -0.0101479091
C   C32       1.0  0.20380  0.25450  0.98200  1.0000 -0.0101479091
C   C33       1.0  0.11910  0.22170  0.48970  1.0000 0.0477468746
C   C34       1.0  0.88090  0.72170  0.01030  1.0000 0.0477468746
C   C35       1.0  0.88090  0.77830  0.51030  1.0000 0.0477468746
C   C36       1.0  0.11910  0.27830  0.98970  1.0000 0.0477468746
C   C37       1.0  0.01230  0.22280  0.45410  1.0000 -0.1195024445
C   C38       1.0  0.98770  0.72280  0.04590  1.0000 -0.1195024445
C   C39       1.0  0.98770  0.77720  0.54590  1.0000 -0.1195024445
C   C40       1.0  0.01230  0.27720  0.95410  1.0000 -0.1195024445
C   C41       1.0  0.98280  0.24960  0.40580  1.0000 -0.0212232835
C   C42       1.0  0.01720  0.74960  0.09420  1.0000 -0.0212232835
C   C43       1.0  0.01720  0.75040  0.59420  1.0000 -0.0212232835
C   C44       1.0  0.98280  0.25040  0.90580  1.0000 -0.0212232835
C   C45       1.0  0.06190  0.27480  0.39700  1.0000 -0.1367604721
C   C46       1.0  0.93810  0.77480  0.10300  1.0000 -0.1367604721
C   C47       1.0  0.93810  0.72520  0.60300  1.0000 -0.1367604721
C   C48       1.0  0.06190  0.22520  0.89700  1.0000 -0.1367604721
C   C49       1.0  0.16960  0.27220  0.43590  1.0000 0.0217942162
C   C50       1.0  0.83040  0.77220  0.06410  1.0000 0.0217942162
C   C51       1.0  0.83040  0.72780  0.56410  1.0000 0.0217942162
C   C52       1.0  0.16960  0.22780  0.93590  1.0000 0.0217942162
C   C53       1.0  0.87000  0.25070  0.36540  1.0000 0.6146896903
C   C54       1.0  0.13000  0.75070  0.13460  1.0000 0.6146896903
C   C55       1.0  0.13000  0.74930  0.63460  1.0000 0.6146896903
C   C56       1.0  0.87000  0.24930  0.86540  1.0000 0.6146896903
C   C57       1.0  0.00390  0.65250  0.76650  1.0000 0.5699637357
C   C58       1.0  0.99610  0.15250  0.73350  1.0000 0.5699637357
C   C59       1.0  0.99610  0.34750  0.23350  1.0000 0.5699637357
C   C60       1.0  0.00390  0.84750  0.26650  1.0000 0.5699637357
C   C61       1.0  0.95940  0.60720  0.76170  1.0000 -0.0101479091
C   C62       1.0  0.04060  0.10720  0.73830  1.0000 -0.0101479091
C   C63       1.0  0.04060  0.39280  0.23830  1.0000 -0.0101479091
C   C64       1.0  0.95940  0.89280  0.26170  1.0000 -0.0101479091
C   C65       1.0  0.87790  0.59130  0.71270  1.0000 -0.1367604721
C   C66       1.0  0.12210  0.09130  0.78730  1.0000 -0.1367604721
C   C67       1.0  0.12210  0.40870  0.28730  1.0000 -0.1367604721
C   C68       1.0  0.87790  0.90870  0.21270  1.0000 -0.1367604721
C   C69       1.0  0.84230  0.54700  0.71030  1.0000 0.0327049368
C   C70       1.0  0.15770  0.04700  0.78970  1.0000 0.0327049368
C   C71       1.0  0.15770  0.45300  0.28970  1.0000 0.0327049368
C   C72       1.0  0.84230  0.95300  0.21030  1.0000 0.0327049368
C   C73       1.0  0.88590  0.51740  0.75290  1.0000 0.0093550722
C   C74       1.0  0.11410  0.01740  0.74710  1.0000 0.0093550722
C   C75       1.0  0.11410  0.48260  0.24710  1.0000 0.0093550722
C   C76       1.0  0.88590  0.98260  0.25290  1.0000 0.0093550722
C   C77       1.0  0.96500  0.53430  0.80210  1.0000 0.004132194
C   C78       1.0  0.03500  0.03430  0.69790  1.0000 0.004132194
C   C79       1.0  0.03500  0.46570  0.19790  1.0000 0.004132194
C   C80       1.0  0.96500  0.96570  0.30210  1.0000 0.004132194
C   C81       1.0  0.00000  0.57800  0.80600  1.0000 -0.1195024445
C   C82       1.0  0.00000  0.07800  0.69400  1.0000 -0.1195024445
C   C83       1.0  0.00000  0.42200  0.19400  1.0000 -0.1195024445
C   C84       1.0  0.00000  0.92200  0.30600  1.0000 -0.1195024445
C   C85       1.0  0.85220  0.46880  0.74920  1.0000 0.0093550722
C   C86       1.0  0.14780  0.96880  0.75080  1.0000 0.0093550722
C   C87       1.0  0.14780  0.53120  0.25080  1.0000 0.0093550722
C   C88       1.0  0.85220  0.03120  0.24920  1.0000 0.0093550722
C   C89       1.0  0.89950  0.43730  0.72590  1.0000 0.0217942162
C   C90       1.0  0.10050  0.93730  0.77410  1.0000 0.0217942162
C   C91       1.0  0.10050  0.56270  0.27410  1.0000 0.0217942162
C   C92       1.0  0.89950  0.06270  0.22590  1.0000 0.0217942162
C   C93       1.0  0.87330  0.39340  0.72420  1.0000 -0.1095961377
C   C94       1.0  0.12670  0.89340  0.77580  1.0000 -0.1095961377
C   C95       1.0  0.12670  0.60660  0.27580  1.0000 -0.1095961377
C   C96       1.0  0.87330  0.10660  0.22420  1.0000 -0.1095961377
C   C97       1.0  0.80290  0.37850  0.74730  1.0000 0.0093550722
C   C98       1.0  0.19710  0.87850  0.75270  1.0000 0.0093550722
C   C99       1.0  0.19710  0.62150  0.25270  1.0000 0.0093550722
C   C100      1.0  0.80290  0.12150  0.24730  1.0000 0.0093550722
C   C101      1.0  0.75930  0.40880  0.77210  1.0000 -0.1343528207
C   C102      1.0  0.24070  0.90880  0.72790  1.0000 -0.1343528207
C   C103      1.0  0.24070  0.59120  0.22790  1.0000 -0.1343528207
C   C104      1.0  0.75930  0.09120  0.27210  1.0000 -0.1343528207
C   C105      1.0  0.78470  0.45280  0.77190  1.0000 0.0477468746
C   C106      1.0  0.21530  0.95280  0.72810  1.0000 0.0477468746
C   C107      1.0  0.21530  0.54720  0.22810  1.0000 0.0477468746
C   C108      1.0  0.78470  0.04720  0.27190  1.0000 0.0477468746
C   C109      1.0  0.77900  0.32960  0.75110  1.0000 0.6213522676
C   C110      1.0  0.22100  0.82960  0.74890  1.0000 0.6213522676
C   C111      1.0  0.22100  0.67040  0.24890  1.0000 0.6213522676
C   C112      1.0  0.77900  0.17040  0.25110  1.0000 0.6213522676
C   C113      1.0  0.72560  0.15080  0.76740  1.0000 0.6374647443
C   C114      1.0  0.27440  0.65080  0.73260  1.0000 0.6374647443
C   C115      1.0  0.27440  0.84920  0.23260  1.0000 0.6374647443
C   C116      1.0  0.72560  0.34920  0.26740  1.0000 0.6374647443
C   C117      1.0  0.69920  0.10200  0.76390  1.0000 -0.0024360531
C   C118      1.0  0.30080  0.60200  0.73610  1.0000 -0.0024360531
C   C119      1.0  0.30080  0.89800  0.23610  1.0000 -0.0024360531
C   C120      1.0  0.69920  0.39800  0.26390  1.0000 -0.0024360531
C   C121      1.0  0.74580  0.07270  0.73830  1.0000 -0.1195024445
C   C122      1.0  0.25420  0.57270  0.76170  1.0000 -0.1195024445
C   C123      1.0  0.25420  0.92730  0.26170  1.0000 -0.1195024445
C   C124      1.0  0.74580  0.42730  0.23830  1.0000 -0.1195024445
C   C125      1.0  0.71640  0.02960  0.73310  1.0000 0.0477468746
C   C126      1.0  0.28360  0.52960  0.76690  1.0000 0.0477468746
C   C127      1.0  0.28360  0.97040  0.26690  1.0000 0.0477468746
C   C128      1.0  0.71640  0.47040  0.23310  1.0000 0.0477468746
C   C129      1.0  0.63930  0.01070  0.75070  1.0000 -0.0212232835
C   C130      1.0  0.36070  0.51070  0.74930  1.0000 -0.0212232835
C   C131      1.0  0.36070  0.98930  0.24930  1.0000 -0.0212232835
C   C132      1.0  0.63930  0.48930  0.25070  1.0000 -0.0212232835
C   C133      1.0  0.59440  0.04190  0.77530  1.0000 0.0432666263
C   C134      1.0  0.40560  0.54190  0.72470  1.0000 0.0432666263
C   C135      1.0  0.40560  0.95810  0.22470  1.0000 0.0432666263
C   C136      1.0  0.59440  0.45810  0.27530  1.0000 0.0432666263
C   C137      1.0  0.62250  0.08660  0.78190  1.0000 -0.1008541386
C   C138      1.0  0.37750  0.58660  0.71810  1.0000 -0.1008541386
C   C139      1.0  0.37750  0.91340  0.21810  1.0000 -0.1008541386
C   C140      1.0  0.62250  0.41340  0.28190  1.0000 -0.1008541386
C   C141      1.0  0.60420  0.96330  0.74090  1.0000 -0.0024360531
C   C142      1.0  0.39580  0.46330  0.75910  1.0000 -0.0024360531
C   C143      1.0  0.39580  0.03670  0.25910  1.0000 -0.0024360531
C   C144      1.0  0.60420  0.53670  0.24090  1.0000 -0.0024360531
C   C145      1.0  0.52850  0.94910  0.69020  1.0000 0.0327049368
C   C146      1.0  0.47150  0.44910  0.80980  1.0000 0.0327049368
C   C147      1.0  0.47150  0.05090  0.30980  1.0000 0.0327049368
C   C148      1.0  0.52850  0.55090  0.19020  1.0000 0.0327049368
C   C149      1.0  0.48960  0.90570  0.67970  1.0000 -0.1195024445
C   C150      1.0  0.51040  0.40570  0.82030  1.0000 -0.1195024445
C   C151      1.0  0.51040  0.09430  0.32030  1.0000 -0.1195024445
C   C152      1.0  0.48960  0.59430  0.17970  1.0000 -0.1195024445
C   C153      1.0  0.52860  0.87530  0.72210  1.0000 0.004132194
C   C154      1.0  0.47140  0.37530  0.77790  1.0000 0.004132194
C   C155      1.0  0.47140  0.12470  0.27790  1.0000 0.004132194
C   C156      1.0  0.52860  0.62470  0.22210  1.0000 0.004132194
C   C157      1.0  0.60720  0.88770  0.77280  1.0000 -0.1195024445
C   C158      1.0  0.39280  0.38770  0.72720  1.0000 -0.1195024445
C   C159      1.0  0.39280  0.11230  0.22720  1.0000 -0.1195024445
C   C160      1.0  0.60720  0.61230  0.27280  1.0000 -0.1195024445
C   C161      1.0  0.64520  0.93010  0.78080  1.0000 0.0327049368
C   C162      1.0  0.35480  0.43010  0.71920  1.0000 0.0327049368
C   C163      1.0  0.35480  0.06990  0.21920  1.0000 0.0327049368
C   C164      1.0  0.64520  0.56990  0.28080  1.0000 0.0327049368
C   C165      1.0  0.48350  0.82960  0.71410  1.0000 0.5775717322
C   C166      1.0  0.51650  0.32960  0.78590  1.0000 0.5775717322
C   C167      1.0  0.51650  0.17040  0.28590  1.0000 0.5775717322
C   C168      1.0  0.48350  0.67040  0.21410  1.0000 0.5775717322
N   N1        1.0  0.26600  0.29120  0.58860  1.0000 0.5008185451
N   N2        1.0  0.73400  0.79120  0.91140  1.0000 0.5008185451
N   N3        1.0  0.73400  0.70880  0.41140  1.0000 0.5008185451
N   N4        1.0  0.26600  0.20880  0.08860  1.0000 0.5008185451
N   N5        1.0  0.37610  0.19560  0.46560  1.0000 0.5008185451
N   N6        1.0  0.62390  0.69560  0.03440  1.0000 0.5008185451
N   N7        1.0  0.62390  0.80440  0.53440  1.0000 0.5008185451
N   N8        1.0  0.37610  0.30440  0.96560  1.0000 0.5008185451
N   N9        1.0  0.14440  0.19190  0.54060  1.0000 0.5086496223
N   N10       1.0  0.85560  0.69190  0.95940  1.0000 0.5086496223
N   N11       1.0  0.85560  0.80810  0.45940  1.0000 0.5086496223
N   N12       1.0  0.14440  0.30810  0.04060  1.0000 0.5086496223
N   N13       1.0  0.24750  0.30020  0.42380  1.0000 0.4809622888
N   N14       1.0  0.75250  0.80020  0.07620  1.0000 0.4809622888
N   N15       1.0  0.75250  0.69980  0.57620  1.0000 0.4809622888
N   N16       1.0  0.24750  0.19980  0.92380  1.0000 0.4809622888
N   N17       1.0  0.75300  0.53430  0.65580  1.0000 0.5086496223
N   N18       1.0  0.24700  0.03430  0.84420  1.0000 0.5086496223
N   N19       1.0  0.24700  0.46570  0.34420  1.0000 0.5086496223
N   N20       1.0  0.75300  0.96570  0.15580  1.0000 0.5086496223
N   N21       1.0  0.01090  0.50670  0.85160  1.0000 0.4809622888
N   N22       1.0  0.98910  0.00670  0.64840  1.0000 0.4809622888
N   N23       1.0  0.98910  0.49330  0.14840  1.0000 0.4809622888
N   N24       1.0  0.01090  0.99330  0.35160  1.0000 0.4809622888
N   N25       1.0  0.97920  0.44910  0.70120  1.0000 0.5008185451
N   N26       1.0  0.02080  0.94910  0.79880  1.0000 0.5008185451
N   N27       1.0  0.02080  0.55090  0.29880  1.0000 0.5008185451
N   N28       1.0  0.97920  0.05090  0.20120  1.0000 0.5008185451
N   N29       1.0  0.73870  0.48190  0.80380  1.0000 0.5086496223
N   N30       1.0  0.26130  0.98190  0.69620  1.0000 0.5086496223
N   N31       1.0  0.26130  0.51810  0.19620  1.0000 0.5086496223
N   N32       1.0  0.73870  0.01810  0.30380  1.0000 0.5086496223
N   N33       1.0  0.76390  0.99940  0.70210  1.0000 0.5008185451
N   N34       1.0  0.23610  0.49940  0.79790  1.0000 0.5008185451
N   N35       1.0  0.23610  0.00060  0.29790  1.0000 0.5008185451
N   N36       1.0  0.76390  0.50060  0.20210  1.0000 0.5008185451
N   N37       1.0  0.51090  0.02680  0.79680  1.0000 0.5189663593
N   N38       1.0  0.48910  0.52680  0.70320  1.0000 0.5189663593
N   N39       1.0  0.48910  0.97320  0.20320  1.0000 0.5189663593
N   N40       1.0  0.51090  0.47320  0.29680  1.0000 0.5189663593
N   N41       1.0  0.48310  0.97930  0.64180  1.0000 0.5008185451
N   N42       1.0  0.51690  0.47930  0.85820  1.0000 0.5008185451
N   N43       1.0  0.51690  0.02070  0.35820  1.0000 0.5008185451
N   N44       1.0  0.48310  0.52070  0.14180  1.0000 0.5008185451
N   N45       1.0  0.73330  0.94090  0.83570  1.0000 0.5086496223
N   N46       1.0  0.26670  0.44090  0.66430  1.0000 0.5086496223
N   N47       1.0  0.26670  0.05910  0.16430  1.0000 0.5086496223
N   N48       1.0  0.73330  0.55910  0.33570  1.0000 0.5086496223
O   O1        1.0  0.72130  0.22480  0.63830  1.0000 -0.5780707102
O   O2        1.0  0.27870  0.72480  0.86170  1.0000 -0.5780707102
O   O3        1.0  0.27870  0.77520  0.36170  1.0000 -0.5780707102
O   O4        1.0  0.72130  0.27520  0.13830  1.0000 -0.5780707102
O   O5        1.0  0.65790  0.24200  0.70390  1.0000 -0.7613728221
O   O6        1.0  0.34210  0.74200  0.79610  1.0000 -0.7613728221
O   O7        1.0  0.34210  0.75800  0.29610  1.0000 -0.7613728221
O   O8        1.0  0.65790  0.25800  0.20390  1.0000 -0.7613728221
O   O9        1.0  0.79370  0.24110  0.38130  1.0000 -0.6002513569
O   O10       1.0  0.20630  0.74110  0.11870  1.0000 -0.6002513569
O   O11       1.0  0.20630  0.75890  0.61870  1.0000 -0.6002513569
O   O12       1.0  0.79370  0.25890  0.88130  1.0000 -0.6002513569
O   O13       1.0  0.85010  0.26200  0.31490  1.0000 -0.7451378878
O   O14       1.0  0.14990  0.76200  0.18510  1.0000 -0.7451378878
O   O15       1.0  0.14990  0.73800  0.68510  1.0000 -0.7451378878
O   O16       1.0  0.85010  0.23800  0.81490  1.0000 -0.7451378878
O   O17       1.0  0.27650  0.29650  0.63510  1.0000 -0.2228959043
O   O18       1.0  0.72350  0.79650  0.86490  1.0000 -0.2228959043
O   O19       1.0  0.72350  0.70350  0.36490  1.0000 -0.2228959043
O   O20       1.0  0.27650  0.20350  0.13510  1.0000 -0.2228959043
O   O21       1.0  0.19850  0.31110  0.55230  1.0000 -0.2895314744
O   O22       1.0  0.80150  0.81110  0.94770  1.0000 -0.2895314744
O   O23       1.0  0.80150  0.68890  0.44770  1.0000 -0.2895314744
O   O24       1.0  0.19850  0.18890  0.05230  1.0000 -0.2895314744
O   O25       1.0  0.45100  0.18770  0.45130  1.0000 -0.2781307574
O   O26       1.0  0.54900  0.68770  0.04870  1.0000 -0.2781307574
O   O27       1.0  0.54900  0.81230  0.54870  1.0000 -0.2781307574
O   O28       1.0  0.45100  0.31230  0.95130  1.0000 -0.2781307574
O   O29       1.0  0.28700  0.18260  0.43800  1.0000 -0.3024734955
O   O30       1.0  0.71300  0.68260  0.06200  1.0000 -0.3024734955
O   O31       1.0  0.71300  0.81740  0.56200  1.0000 -0.3024734955
O   O32       1.0  0.28700  0.31740  0.93800  1.0000 -0.3024734955
O   O33       1.0  0.22870  0.17470  0.55950  1.0000 -0.3071942206
O   O34       1.0  0.77130  0.67470  0.94050  1.0000 -0.3071942206
O   O35       1.0  0.77130  0.82530  0.44050  1.0000 -0.3071942206
O   O36       1.0  0.22870  0.32530  0.05950  1.0000 -0.3071942206
O   O37       1.0  0.07550  0.18840  0.55820  1.0000 -0.2895314744
O   O38       1.0  0.92450  0.68840  0.94180  1.0000 -0.2895314744
O   O39       1.0  0.92450  0.81160  0.44180  1.0000 -0.2895314744
O   O40       1.0  0.07550  0.31160  0.05820  1.0000 -0.2895314744
O   O41       1.0  0.33580  0.28830  0.43510  1.0000 -0.2228959043
O   O42       1.0  0.66420  0.78830  0.06490  1.0000 -0.2228959043
O   O43       1.0  0.66420  0.71170  0.56490  1.0000 -0.2228959043
O   O44       1.0  0.33580  0.21170  0.93510  1.0000 -0.2228959043
O   O45       1.0  0.22380  0.33200  0.39920  1.0000 -0.148817892
O   O46       1.0  0.77620  0.83200  0.10080  1.0000 -0.148817892
O   O47       1.0  0.77620  0.66800  0.60080  1.0000 -0.148817892
O   O48       1.0  0.22380  0.16800  0.89920  1.0000 -0.148817892
O   O49       1.0  0.98350  0.67390  0.72160  1.0000 -0.6491755944
O   O50       1.0  0.01650  0.17390  0.77840  1.0000 -0.6491755944
O   O51       1.0  0.01650  0.32610  0.27840  1.0000 -0.6491755944
O   O52       1.0  0.98350  0.82610  0.22160  1.0000 -0.6491755944
O   O53       1.0  0.06560  0.66610  0.81380  1.0000 -0.6002513569
O   O54       1.0  0.93440  0.16610  0.68620  1.0000 -0.6002513569
O   O55       1.0  0.93440  0.33390  0.18620  1.0000 -0.6002513569
O   O56       1.0  0.06560  0.83390  0.31380  1.0000 -0.6002513569
O   O57       1.0  0.82780  0.30430  0.72640  1.0000 -0.7150150116
O   O58       1.0  0.17220  0.80430  0.77360  1.0000 -0.7150150116
O   O59       1.0  0.17220  0.69570  0.27360  1.0000 -0.7150150116
O   O60       1.0  0.82780  0.19570  0.22640  1.0000 -0.7150150116
O   O61       1.0  0.72410  0.31880  0.77630  1.0000 -0.5493681606
O   O62       1.0  0.27590  0.81880  0.72370  1.0000 -0.5493681606
O   O63       1.0  0.27590  0.68120  0.22370  1.0000 -0.5493681606
O   O64       1.0  0.72410  0.18120  0.27630  1.0000 -0.5493681606
O   O65       1.0  0.71620  0.56190  0.62000  1.0000 -0.2672988314
O   O66       1.0  0.28380  0.06190  0.88000  1.0000 -0.2672988314
O   O67       1.0  0.28380  0.43810  0.38000  1.0000 -0.2672988314
O   O68       1.0  0.71620  0.93810  0.12000  1.0000 -0.2672988314
O   O69       1.0  0.71640  0.49800  0.65180  1.0000 -0.2895314744
O   O70       1.0  0.28360  0.99800  0.84820  1.0000 -0.2895314744
O   O71       1.0  0.28360  0.50200  0.34820  1.0000 -0.2895314744
O   O72       1.0  0.71640  0.00200  0.15180  1.0000 -0.2895314744
O   O73       1.0  0.01250  0.46780  0.84910  1.0000 -0.2672988314
O   O74       1.0  0.98750  0.96780  0.65090  1.0000 -0.2672988314
O   O75       1.0  0.98750  0.53220  0.15090  1.0000 -0.2672988314
O   O76       1.0  0.01250  0.03220  0.34910  1.0000 -0.2672988314
O   O77       1.0  0.04380  0.52270  0.89540  1.0000 -0.1572858978
O   O78       1.0  0.95620  0.02270  0.60460  1.0000 -0.1572858978
O   O79       1.0  0.95620  0.47730  0.10460  1.0000 -0.1572858978
O   O80       1.0  0.04380  0.97730  0.39540  1.0000 -0.1572858978
O   O81       1.0  0.99620  0.48650  0.69690  1.0000 -0.3024734955
O   O82       1.0  0.00380  0.98650  0.80310  1.0000 -0.3024734955
O   O83       1.0  0.00380  0.51350  0.30310  1.0000 -0.3024734955
O   O84       1.0  0.99620  0.01350  0.19690  1.0000 -0.3024734955
O   O85       1.0  0.03350  0.42160  0.69190  1.0000 -0.2585884768
O   O86       1.0  0.96650  0.92160  0.80810  1.0000 -0.2585884768
O   O87       1.0  0.96650  0.57840  0.30810  1.0000 -0.2585884768
O   O88       1.0  0.03350  0.07840  0.19190  1.0000 -0.2585884768
O   O89       1.0  0.73290  0.52150  0.79520  1.0000 -0.3024734955
O   O90       1.0  0.26710  0.02150  0.70480  1.0000 -0.3024734955
O   O91       1.0  0.26710  0.47850  0.20480  1.0000 -0.3024734955
O   O92       1.0  0.73290  0.97850  0.29520  1.0000 -0.3024734955
O   O93       1.0  0.71310  0.46550  0.84060  1.0000 -0.3186540481
O   O94       1.0  0.28690  0.96550  0.65940  1.0000 -0.3186540481
O   O95       1.0  0.28690  0.53450  0.15940  1.0000 -0.3186540481
O   O96       1.0  0.71310  0.03450  0.34060  1.0000 -0.3186540481
O   O97       1.0  0.78630  0.16320  0.74260  1.0000 -0.6401145633
O   O98       1.0  0.21370  0.66320  0.75740  1.0000 -0.6401145633
O   O99       1.0  0.21370  0.83680  0.25740  1.0000 -0.6401145633
O   O100      1.0  0.78630  0.33680  0.24260  1.0000 -0.6401145633
O   O101      1.0  0.68150  0.17500  0.79150  1.0000 -0.6553145822
O   O102      1.0  0.31850  0.67500  0.70850  1.0000 -0.6553145822
O   O103      1.0  0.31850  0.82500  0.20850  1.0000 -0.6553145822
O   O104      1.0  0.68150  0.32500  0.29150  1.0000 -0.6553145822
O   O105      1.0  0.50450  0.80570  0.75780  1.0000 -0.6491755944
O   O106      1.0  0.49550  0.30570  0.74220  1.0000 -0.6491755944
O   O107      1.0  0.49550  0.19430  0.24220  1.0000 -0.6491755944
O   O108      1.0  0.50450  0.69430  0.25780  1.0000 -0.6491755944
O   O109      1.0  0.41960  0.81640  0.66760  1.0000 -0.5780707102
O   O110      1.0  0.58040  0.31640  0.83240  1.0000 -0.5780707102
O   O111      1.0  0.58040  0.18360  0.33240  1.0000 -0.5780707102
O   O112      1.0  0.41960  0.68360  0.16760  1.0000 -0.5780707102
O   O113      1.0  0.78540  0.02030  0.66220  1.0000 -0.403862017
O   O114      1.0  0.21460  0.52030  0.83780  1.0000 -0.403862017
O   O115      1.0  0.21460  0.97970  0.33780  1.0000 -0.403862017
O   O116      1.0  0.78540  0.47970  0.16220  1.0000 -0.403862017
O   O117      1.0  0.76310  0.96270  0.70250  1.0000 -0.2329908412
O   O118      1.0  0.23690  0.46270  0.79750  1.0000 -0.2329908412
O   O119      1.0  0.23690  0.03730  0.29750  1.0000 -0.2329908412
O   O120      1.0  0.76310  0.53730  0.20250  1.0000 -0.2329908412
O   O121      1.0  0.46430  0.05650  0.81370  1.0000 -0.3394003387
O   O122      1.0  0.53570  0.55650  0.68630  1.0000 -0.3394003387
O   O123      1.0  0.53570  0.94350  0.18630  1.0000 -0.3394003387
O   O124      1.0  0.46430  0.44350  0.31370  1.0000 -0.3394003387
O   O125      1.0  0.48290  0.98870  0.79330  1.0000 -0.3394003387
O   O126      1.0  0.51710  0.48870  0.70670  1.0000 -0.3394003387
O   O127      1.0  0.51710  0.01130  0.20670  1.0000 -0.3394003387
O   O128      1.0  0.48290  0.51130  0.29330  1.0000 -0.3394003387
O   O129      1.0  0.48130  0.01860  0.65040  1.0000 -0.3024734955
O   O130      1.0  0.51870  0.51860  0.84960  1.0000 -0.3024734955
O   O131      1.0  0.51870  0.98140  0.34960  1.0000 -0.3024734955
O   O132      1.0  0.48130  0.48140  0.15040  1.0000 -0.3024734955
O   O133      1.0  0.44520  0.96430  0.59520  1.0000 -0.2371860023
O   O134      1.0  0.55480  0.46430  0.90480  1.0000 -0.2371860023
O   O135      1.0  0.55480  0.03570  0.40480  1.0000 -0.2371860023
O   O136      1.0  0.44520  0.53570  0.09520  1.0000 -0.2371860023
O   O137      1.0  0.76340  0.97740  0.84790  1.0000 -0.2781307574
O   O138      1.0  0.23660  0.47740  0.65210  1.0000 -0.2781307574
O   O139      1.0  0.23660  0.02260  0.15210  1.0000 -0.2781307574
O   O140      1.0  0.76340  0.52260  0.34790  1.0000 -0.2781307574
O   O141      1.0  0.78400  0.90970  0.86240  1.0000 -0.2585884768
O   O142      1.0  0.21600  0.40970  0.63760  1.0000 -0.2585884768
O   O143      1.0  0.21600  0.09030  0.13760  1.0000 -0.2585884768
O   O144      1.0  0.78400  0.59030  0.36240  1.0000 -0.2585884768
