# DDEC6 charges by PACMAN v1.1 (https://github.com/mtap-research/PACMAN-charge/)
data_2012[ZnCu][idp]3[ASR]1
_chemical_formula_sum              "Zn12 Cu6 H36 C108 O76"
_cell_length_a       20.2202
_cell_length_b       20.2202
_cell_length_c       20.2202
_cell_angle_alpha    109.471
_cell_angle_beta     109.471
_cell_angle_gamma    109.471

_symmetry_space_group_name_H-M    "P 1"
_symmetry_Int_Tables_number       1

loop_
  _symmetry_equiv_pos_as_xyz
  'x, y, z'

loop_
  _atom_site_type_symbol
  _atom_site_label
  _atom_site_symmetry_multiplicity
  _atom_site_fract_x
  _atom_site_fract_y
  _atom_site_fract_z
  _atom_site_occupancy
  _atom_site_charge
Zn  Zn1       1.0  0.94272  0.05427  0.47637  1.0000 0.9725960415
Zn  Zn2       1.0  0.57790  0.46635  0.52363  1.0000 0.9725960415
Zn  Zn3       1.0  0.42210  0.94573  0.88845  1.0000 0.9772943077
Zn  Zn4       1.0  0.05728  0.53365  0.11155  1.0000 0.9725960415
Zn  Zn5       1.0  0.47637  0.94272  0.05427  1.0000 0.9725960415
Zn  Zn6       1.0  0.52363  0.57790  0.46635  1.0000 0.9725960415
Zn  Zn7       1.0  0.88845  0.42210  0.94573  1.0000 0.9772943077
Zn  Zn8       1.0  0.11155  0.05728  0.53365  1.0000 0.9725960415
Zn  Zn9       1.0  0.05427  0.47637  0.94272  1.0000 0.9772943077
Zn  Zn10      1.0  0.46635  0.52363  0.57790  1.0000 0.9772943077
Zn  Zn11      1.0  0.94573  0.88845  0.42210  1.0000 0.9725960415
Zn  Zn12      1.0  0.53365  0.11155  0.05728  1.0000 0.9772943077
Cu  Cu1       1.0  0.93843  0.43843  0.50000  1.0000 0.9009121833
Cu  Cu2       1.0  0.06157  0.56157  0.50000  1.0000 0.9009121833
Cu  Cu3       1.0  0.50000  0.93843  0.43843  1.0000 0.9009121833
Cu  Cu4       1.0  0.50000  0.06157  0.56157  1.0000 0.9009121833
Cu  Cu5       1.0  0.43843  0.50000  0.93843  1.0000 0.9009121833
Cu  Cu6       1.0  0.56157  0.50000  0.06157  1.0000 0.9009121833
H   H1        1.0  0.03010  0.27570  0.48520  1.0000 0.1396591331
H   H2        1.0  0.79050  0.54490  0.51480  1.0000 0.1396591331
H   H3        1.0  0.20950  0.72430  0.75440  1.0000 0.1396591331
H   H4        1.0  0.96990  0.45510  0.24560  1.0000 0.1396591331
H   H5        1.0  0.48520  0.03010  0.27570  1.0000 0.1396591331
H   H6        1.0  0.51480  0.79050  0.54490  1.0000 0.1396591331
H   H7        1.0  0.75440  0.20950  0.72430  1.0000 0.1396591331
H   H8        1.0  0.24560  0.96990  0.45510  1.0000 0.1396591331
H   H9        1.0  0.27570  0.48520  0.03010  1.0000 0.1396591331
H   H10       1.0  0.54490  0.51480  0.79050  1.0000 0.1396591331
H   H11       1.0  0.72430  0.75440  0.20950  1.0000 0.1396591331
H   H12       1.0  0.45510  0.24560  0.96990  1.0000 0.1396591331
H   H13       1.0  0.22660  0.25930  0.50930  1.0000 0.1291988073
H   H14       1.0  0.75000  0.71730  0.49070  1.0000 0.1291988073
H   H15       1.0  0.25000  0.74070  0.96730  1.0000 0.1291988073
H   H16       1.0  0.77340  0.28270  0.03270  1.0000 0.1291988073
H   H17       1.0  0.50930  0.22660  0.25930  1.0000 0.1291988073
H   H18       1.0  0.49070  0.75000  0.71730  1.0000 0.1291988073
H   H19       1.0  0.96730  0.25000  0.74070  1.0000 0.1291988073
H   H20       1.0  0.03270  0.77340  0.28270  1.0000 0.1291988073
H   H21       1.0  0.25930  0.50930  0.22660  1.0000 0.1291988073
H   H22       1.0  0.71730  0.49070  0.75000  1.0000 0.1291988073
H   H23       1.0  0.74070  0.96730  0.25000  1.0000 0.1291988073
H   H24       1.0  0.28270  0.03270  0.77340  1.0000 0.1291988073
H   H25       1.0  0.22400  0.46030  0.52610  1.0000 0.1396591331
H   H26       1.0  0.93420  0.69790  0.47390  1.0000 0.1396591331
H   H27       1.0  0.06580  0.53970  0.76370  1.0000 0.1396591331
H   H28       1.0  0.77600  0.30210  0.23630  1.0000 0.1396591331
H   H29       1.0  0.52610  0.22400  0.46030  1.0000 0.1396591331
H   H30       1.0  0.47390  0.93420  0.69790  1.0000 0.1396591331
H   H31       1.0  0.76370  0.06580  0.53970  1.0000 0.1396591331
H   H32       1.0  0.23630  0.77600  0.30210  1.0000 0.1396591331
H   H33       1.0  0.46030  0.52610  0.22400  1.0000 0.1396591331
H   H34       1.0  0.69790  0.47390  0.93420  1.0000 0.1396591331
H   H35       1.0  0.53970  0.76370  0.06580  1.0000 0.1396591331
H   H36       1.0  0.30210  0.23630  0.77600  1.0000 0.1396591331
C   C1        1.0  0.11940  0.37530  0.50290  1.0000 -0.0188361204
C   C2        1.0  0.87240  0.61650  0.49710  1.0000 -0.0188361204
C   C3        1.0  0.12760  0.62470  0.74410  1.0000 -0.0188361204
C   C4        1.0  0.88060  0.38350  0.25590  1.0000 -0.0188361204
C   C5        1.0  0.50290  0.11940  0.37530  1.0000 -0.0149679054
C   C6        1.0  0.49710  0.87240  0.61650  1.0000 -0.0188361204
C   C7        1.0  0.74410  0.12760  0.62470  1.0000 -0.0149679054
C   C8        1.0  0.25590  0.88060  0.38350  1.0000 -0.0188361204
C   C9        1.0  0.37530  0.50290  0.11940  1.0000 -0.0188361204
C   C10       1.0  0.61650  0.49710  0.87240  1.0000 -0.0188361204
C   C11       1.0  0.62470  0.74410  0.12760  1.0000 -0.0149679054
C   C12       1.0  0.38350  0.25590  0.88060  1.0000 -0.0149679054
C   C13       1.0  0.08240  0.29810  0.49330  1.0000 -0.0800741483
C   C14       1.0  0.80480  0.58910  0.50670  1.0000 -0.0800741483
C   C15       1.0  0.19520  0.70190  0.78430  1.0000 -0.0800741483
C   C16       1.0  0.91760  0.41090  0.21570  1.0000 -0.0800741483
C   C17       1.0  0.49330  0.08240  0.29810  1.0000 -0.0800741483
C   C18       1.0  0.50670  0.80480  0.58910  1.0000 -0.0800741483
C   C19       1.0  0.78430  0.19520  0.70190  1.0000 -0.0800741483
C   C20       1.0  0.21570  0.91760  0.41090  1.0000 -0.0800741483
C   C21       1.0  0.29810  0.49330  0.08240  1.0000 -0.0800741483
C   C22       1.0  0.58910  0.50670  0.80480  1.0000 -0.0800741483
C   C23       1.0  0.70190  0.78430  0.19520  1.0000 -0.0800741483
C   C24       1.0  0.41090  0.21570  0.91760  1.0000 -0.0800741483
C   C25       1.0  0.12250  0.25470  0.49580  1.0000 -0.0188361204
C   C26       1.0  0.75890  0.62670  0.50420  1.0000 -0.0188361204
C   C27       1.0  0.24110  0.74530  0.86780  1.0000 -0.0188361204
C   C28       1.0  0.87750  0.37330  0.13220  1.0000 -0.0188361204
C   C29       1.0  0.49580  0.12250  0.25470  1.0000 -0.0188361204
C   C30       1.0  0.50420  0.75890  0.62670  1.0000 -0.0188361204
C   C31       1.0  0.86780  0.24110  0.74530  1.0000 -0.0188361204
C   C32       1.0  0.13220  0.87750  0.37330  1.0000 -0.0188361204
C   C33       1.0  0.25470  0.49580  0.12250  1.0000 -0.0188361204
C   C34       1.0  0.62670  0.50420  0.75890  1.0000 -0.0188361204
C   C35       1.0  0.74530  0.86780  0.24110  1.0000 -0.0188361204
C   C36       1.0  0.37330  0.13220  0.87750  1.0000 -0.0188361204
C   C37       1.0  0.19960  0.28850  0.50830  1.0000 -0.0800741483
C   C38       1.0  0.78020  0.69130  0.49170  1.0000 -0.0800741483
C   C39       1.0  0.21980  0.71150  0.91110  1.0000 -0.0800741483
C   C40       1.0  0.80040  0.30870  0.08890  1.0000 -0.0800741483
C   C41       1.0  0.50830  0.19960  0.28850  1.0000 -0.0800741483
C   C42       1.0  0.49170  0.78020  0.69130  1.0000 -0.0800741483
C   C43       1.0  0.91110  0.21980  0.71150  1.0000 -0.0800741483
C   C44       1.0  0.08890  0.80040  0.30870  1.0000 -0.0800741483
C   C45       1.0  0.28850  0.50830  0.19960  1.0000 -0.0800741483
C   C46       1.0  0.69130  0.49170  0.78020  1.0000 -0.0800741483
C   C47       1.0  0.71150  0.91110  0.21980  1.0000 -0.0800741483
C   C48       1.0  0.30870  0.08890  0.80040  1.0000 -0.0800741483
C   C49       1.0  0.23870  0.36610  0.51960  1.0000 -0.0188361204
C   C50       1.0  0.84650  0.71910  0.48040  1.0000 -0.0188361204
C   C51       1.0  0.15350  0.63390  0.87260  1.0000 -0.0188361204
C   C52       1.0  0.76130  0.28090  0.12740  1.0000 -0.0188361204
C   C53       1.0  0.51960  0.23870  0.36610  1.0000 -0.0188361204
C   C54       1.0  0.48040  0.84650  0.71910  1.0000 -0.0188361204
C   C55       1.0  0.87260  0.15350  0.63390  1.0000 -0.0188361204
C   C56       1.0  0.12740  0.76130  0.28090  1.0000 -0.0188361204
C   C57       1.0  0.36610  0.51960  0.23870  1.0000 -0.0188361204
C   C58       1.0  0.71910  0.48040  0.84650  1.0000 -0.0188361204
C   C59       1.0  0.63390  0.87260  0.15350  1.0000 -0.0188361204
C   C60       1.0  0.28090  0.12740  0.76130  1.0000 -0.0188361204
C   C61       1.0  0.19810  0.40820  0.51750  1.0000 -0.0738933593
C   C62       1.0  0.89070  0.68060  0.48250  1.0000 -0.0738933593
C   C63       1.0  0.10930  0.59180  0.78990  1.0000 -0.0738933593
C   C64       1.0  0.80190  0.31940  0.21010  1.0000 -0.0738933593
C   C65       1.0  0.51750  0.19810  0.40820  1.0000 -0.0738933593
C   C66       1.0  0.48250  0.89070  0.68060  1.0000 -0.0738933593
C   C67       1.0  0.78990  0.10930  0.59180  1.0000 -0.0738933593
C   C68       1.0  0.21010  0.80190  0.31940  1.0000 -0.0738933593
C   C69       1.0  0.40820  0.51750  0.19810  1.0000 -0.0738933593
C   C70       1.0  0.68060  0.48250  0.89070  1.0000 -0.0738933593
C   C71       1.0  0.59180  0.78990  0.10930  1.0000 -0.0738933593
C   C72       1.0  0.31940  0.21010  0.80190  1.0000 -0.0738933593
C   C73       1.0  0.07520  0.42170  0.50010  1.0000 0.5945536323
C   C74       1.0  0.92160  0.57510  0.49990  1.0000 0.5945536323
C   C75       1.0  0.07840  0.57830  0.65350  1.0000 0.5945536323
C   C76       1.0  0.92480  0.42490  0.34650  1.0000 0.5945536323
C   C77       1.0  0.50010  0.07520  0.42170  1.0000 0.5945536323
C   C78       1.0  0.49990  0.92160  0.57510  1.0000 0.5945536323
C   C79       1.0  0.65350  0.07840  0.57830  1.0000 0.5945536323
C   C80       1.0  0.34650  0.92480  0.42490  1.0000 0.5945536323
C   C81       1.0  0.42170  0.50010  0.07520  1.0000 0.5945536323
C   C82       1.0  0.57510  0.49990  0.92160  1.0000 0.5945536323
C   C83       1.0  0.57830  0.65350  0.07840  1.0000 0.5945536323
C   C84       1.0  0.42490  0.34650  0.92480  1.0000 0.5945536323
C   C85       1.0  0.08240  0.17470  0.49150  1.0000 0.6079621293
C   C86       1.0  0.68320  0.59090  0.50850  1.0000 0.6079621293
C   C87       1.0  0.31680  0.82530  0.90770  1.0000 0.6079621293
C   C88       1.0  0.91760  0.40910  0.09230  1.0000 0.6079621293
C   C89       1.0  0.49150  0.08240  0.17470  1.0000 0.6079621293
C   C90       1.0  0.50850  0.68320  0.59090  1.0000 0.6079621293
C   C91       1.0  0.90770  0.31680  0.82530  1.0000 0.6079621293
C   C92       1.0  0.09230  0.91760  0.40910  1.0000 0.6079621293
C   C93       1.0  0.17470  0.49150  0.08240  1.0000 0.6079621293
C   C94       1.0  0.59090  0.50850  0.68320  1.0000 0.6079621293
C   C95       1.0  0.82530  0.90770  0.31680  1.0000 0.6079621293
C   C96       1.0  0.40910  0.09230  0.91760  1.0000 0.6079621293
C   C97       1.0  0.32250  0.40070  0.53340  1.0000 0.5420966226
C   C98       1.0  0.86730  0.78910  0.46660  1.0000 0.5420966226
C   C99       1.0  0.13270  0.59930  0.92180  1.0000 0.5420966226
C   C100      1.0  0.67750  0.21090  0.07820  1.0000 0.5420966226
C   C101      1.0  0.53340  0.32250  0.40070  1.0000 0.5420966226
C   C102      1.0  0.46660  0.86730  0.78910  1.0000 0.5420966226
C   C103      1.0  0.92180  0.13270  0.59930  1.0000 0.5420966226
C   C104      1.0  0.07820  0.67750  0.21090  1.0000 0.5420966226
C   C105      1.0  0.40070  0.53340  0.32250  1.0000 0.5420966226
C   C106      1.0  0.78910  0.46660  0.86730  1.0000 0.5420966226
C   C107      1.0  0.59930  0.92180  0.13270  1.0000 0.5420966226
C   C108      1.0  0.21090  0.07820  0.67750  1.0000 0.5420966226
O   O1        1.0  0.00579  0.38885  0.49114  1.0000 -0.5247435733
O   O2        1.0  0.89771  0.51465  0.50886  1.0000 -0.5247435733
O   O3        1.0  0.10229  0.61115  0.61694  1.0000 -0.5247435733
O   O4        1.0  0.99421  0.48535  0.38306  1.0000 -0.5247435733
O   O5        1.0  0.49114  0.00579  0.38885  1.0000 -0.5266605677
O   O6        1.0  0.50886  0.89771  0.51465  1.0000 -0.5266605677
O   O7        1.0  0.61694  0.10229  0.61115  1.0000 -0.5266605677
O   O8        1.0  0.38306  0.99421  0.48535  1.0000 -0.5247435733
O   O9        1.0  0.38885  0.49114  0.00579  1.0000 -0.5247435733
O   O10       1.0  0.51465  0.50886  0.89771  1.0000 -0.5266605677
O   O11       1.0  0.61115  0.61694  0.10229  1.0000 -0.5247435733
O   O12       1.0  0.48535  0.38306  0.99421  1.0000 -0.5266605677
O   O13       1.0  0.11117  0.48966  0.50891  1.0000 -0.5109474369
O   O14       1.0  0.98075  0.60226  0.49109  1.0000 -0.5011934938
O   O15       1.0  0.01925  0.51034  0.62151  1.0000 -0.5109474369
O   O16       1.0  0.88883  0.39774  0.37849  1.0000 -0.5109474369
O   O17       1.0  0.50891  0.11117  0.48966  1.0000 -0.5109474369
O   O18       1.0  0.49109  0.98075  0.60226  1.0000 -0.5109474369
O   O19       1.0  0.62151  0.01925  0.51034  1.0000 -0.5109474369
O   O20       1.0  0.37849  0.88883  0.39774  1.0000 -0.5011934938
O   O21       1.0  0.48966  0.50891  0.11117  1.0000 -0.5011934938
O   O22       1.0  0.60226  0.49109  0.98075  1.0000 -0.5109474369
O   O23       1.0  0.51034  0.62151  0.01925  1.0000 -0.5109474369
O   O24       1.0  0.39774  0.37849  0.88883  1.0000 -0.5109474369
O   O25       1.0  0.01116  0.14620  0.47376  1.0000 -0.4925708825
O   O26       1.0  0.67244  0.53740  0.52624  1.0000 -0.4925708825
O   O27       1.0  0.32756  0.85380  0.86496  1.0000 -0.5011934938
O   O28       1.0  0.98884  0.46260  0.13504  1.0000 -0.4925708825
O   O29       1.0  0.47376  0.01116  0.14620  1.0000 -0.4925708825
O   O30       1.0  0.52624  0.67244  0.53740  1.0000 -0.4925708825
O   O31       1.0  0.86496  0.32756  0.85380  1.0000 -0.4925708825
O   O32       1.0  0.13504  0.98884  0.46260  1.0000 -0.4925708825
O   O33       1.0  0.14620  0.47376  0.01116  1.0000 -0.4925708825
O   O34       1.0  0.53740  0.52624  0.67244  1.0000 -0.5011934938
O   O35       1.0  0.85380  0.86496  0.32756  1.0000 -0.4925708825
O   O36       1.0  0.46260  0.13504  0.98884  1.0000 -0.4925708825
O   O37       1.0  0.12543  0.14250  0.50413  1.0000 -0.5109474369
O   O38       1.0  0.63837  0.62130  0.49587  1.0000 -0.5109474369
O   O39       1.0  0.36163  0.85750  0.98293  1.0000 -0.5109474369
O   O40       1.0  0.87457  0.37870  0.01707  1.0000 -0.5109474369
O   O41       1.0  0.50413  0.12543  0.14250  1.0000 -0.5109474369
O   O42       1.0  0.49587  0.63837  0.62130  1.0000 -0.5109474369
O   O43       1.0  0.98293  0.36163  0.85750  1.0000 -0.5109474369
O   O44       1.0  0.01707  0.87457  0.37870  1.0000 -0.5109474369
O   O45       1.0  0.14250  0.50413  0.12543  1.0000 -0.5109474369
O   O46       1.0  0.62130  0.49587  0.63837  1.0000 -0.5109474369
O   O47       1.0  0.85750  0.98293  0.36163  1.0000 -0.5109474369
O   O48       1.0  0.37870  0.01707  0.87457  1.0000 -0.5109474369
O   O49       1.0  0.35970  0.36560  0.53690  1.0000 -0.4298297993
O   O50       1.0  0.82870  0.82280  0.46310  1.0000 -0.4298297993
O   O51       1.0  0.17130  0.63440  0.99410  1.0000 -0.4298297993
O   O52       1.0  0.64030  0.17720  0.00590  1.0000 -0.4298297993
O   O53       1.0  0.53690  0.35970  0.36560  1.0000 -0.4298297993
O   O54       1.0  0.46310  0.82870  0.82280  1.0000 -0.4298297993
O   O55       1.0  0.99410  0.17130  0.63440  1.0000 -0.4298297993
O   O56       1.0  0.00590  0.64030  0.17720  1.0000 -0.4247640493
O   O57       1.0  0.36560  0.53690  0.35970  1.0000 -0.4298297993
O   O58       1.0  0.82280  0.46310  0.82870  1.0000 -0.4298297993
O   O59       1.0  0.63440  0.99410  0.17130  1.0000 -0.4298297993
O   O60       1.0  0.17720  0.00590  0.64030  1.0000 -0.4298297993
O   O61       1.0  0.35440  0.47410  0.54810  1.0000 -0.4925708825
O   O62       1.0  0.92600  0.80630  0.45190  1.0000 -0.4925708825
O   O63       1.0  0.07400  0.52590  0.88030  1.0000 -0.4925708825
O   O64       1.0  0.64560  0.19370  0.11970  1.0000 -0.4925708825
O   O65       1.0  0.54810  0.35440  0.47410  1.0000 -0.4925708825
O   O66       1.0  0.45190  0.92600  0.80630  1.0000 -0.4925708825
O   O67       1.0  0.88030  0.07400  0.52590  1.0000 -0.4925708825
O   O68       1.0  0.11970  0.64560  0.19370  1.0000 -0.4925708825
O   O69       1.0  0.47410  0.54810  0.35440  1.0000 -0.4925708825
O   O70       1.0  0.80630  0.45190  0.92600  1.0000 -0.4925708825
O   O71       1.0  0.52590  0.88030  0.07400  1.0000 -0.4925708825
O   O72       1.0  0.19370  0.11970  0.64560  1.0000 -0.4925708825
O   O73       1.0  0.00000  0.00000  0.50826  1.0000 -0.9830636603
O   O74       1.0  0.49174  0.49174  0.49174  1.0000 -0.9830636603
O   O75       1.0  0.50826  0.00000  0.00000  1.0000 -0.9830636603
O   O76       1.0  0.00000  0.50826  0.00000  1.0000 -0.9855293455
