# DDEC6 charges by PACMAN v1.1 (https://github.com/mtap-research/PACMAN-charge/)
data_2012[ZnU][nan]3[ASR]1
_chemical_formula_sum              "U8 Zn4 P16 H36 C16 O60"
_cell_length_a       9.697
_cell_length_b       17.5578
_cell_length_c       17.9345
_cell_angle_alpha    90
_cell_angle_beta     90.327
_cell_angle_gamma    90

_symmetry_space_group_name_H-M    "P 1"
_symmetry_Int_Tables_number       1

loop_
  _symmetry_equiv_pos_as_xyz
  'x, y, z'

loop_
  _atom_site_type_symbol
  _atom_site_label
  _atom_site_symmetry_multiplicity
  _atom_site_fract_x
  _atom_site_fract_y
  _atom_site_fract_z
  _atom_site_occupancy
  _atom_site_charge
U   U1        1.0  0.60134  0.72452  0.78075  1.0000 2.1322464457
U   U2        1.0  0.39866  0.22452  0.71925  1.0000 2.1380185595
U   U3        1.0  0.39866  0.27548  0.21925  1.0000 2.1322464457
U   U4        1.0  0.60134  0.77548  0.28075  1.0000 2.1322464457
U   U5        1.0  0.09625  0.78980  0.56113  1.0000 2.1380185595
U   U6        1.0  0.90375  0.28980  0.93887  1.0000 2.1475430638
U   U7        1.0  0.90375  0.21020  0.43887  1.0000 2.1475430638
U   U8        1.0  0.09625  0.71020  0.06113  1.0000 2.1380185595
Zn  Zn1       1.0  0.76631  0.99250  0.55743  1.0000 1.0024253339
Zn  Zn2       1.0  0.23369  0.49250  0.94257  1.0000 1.0024253339
Zn  Zn3       1.0  0.23369  0.00750  0.44257  1.0000 1.0024253339
Zn  Zn4       1.0  0.76631  0.50750  0.05743  1.0000 1.0024253339
P   P1        1.0  0.72730  0.82878  0.61559  1.0000 1.2715403945
P   P2        1.0  0.27270  0.32878  0.88441  1.0000 1.2715403945
P   P3        1.0  0.27270  0.17122  0.38441  1.0000 1.2715403945
P   P4        1.0  0.72730  0.67122  0.11559  1.0000 1.2715403945
P   P5        1.0  0.22620  0.76554  0.75865  1.0000 1.2368229539
P   P6        1.0  0.77380  0.26554  0.74135  1.0000 1.2368229539
P   P7        1.0  0.77380  0.23446  0.24135  1.0000 1.2368229539
P   P8        1.0  0.22620  0.73446  0.25865  1.0000 1.2368229539
P   P9        1.0  0.79290  0.84915  0.45246  1.0000 1.2515323967
P   P10       1.0  0.20710  0.34915  0.04754  1.0000 1.2515323967
P   P11       1.0  0.20710  0.15085  0.54754  1.0000 1.2515323967
P   P12       1.0  0.79290  0.65085  0.95246  1.0000 1.2515323967
P   P13       1.0  0.29830  0.66450  0.88985  1.0000 1.2321641754
P   P14       1.0  0.70170  0.16450  0.61015  1.0000 1.2321641754
P   P15       1.0  0.70170  0.33550  0.11015  1.0000 1.2321641754
P   P16       1.0  0.29830  0.83550  0.38985  1.0000 1.2368229539
H   H1        1.0  0.10760  0.82740  0.82490  1.0000 0.3563145757
H   H2        1.0  0.89240  0.32740  0.67510  1.0000 0.3563145757
H   H3        1.0  0.89240  0.17260  0.17510  1.0000 0.3563145757
H   H4        1.0  0.10760  0.67260  0.32490  1.0000 0.3563145757
H   H5        1.0  0.03260  0.62690  0.84190  1.0000 0.318911171
H   H6        1.0  0.96740  0.12690  0.65810  1.0000 0.318911171
H   H7        1.0  0.96740  0.37310  0.15810  1.0000 0.318911171
H   H8        1.0  0.03260  0.87310  0.34190  1.0000 0.318911171
H   H9        1.0  0.50720  0.81770  0.47060  1.0000 0.318911171
H   H10       1.0  0.49280  0.31770  0.02940  1.0000 0.318911171
H   H11       1.0  0.49280  0.18230  0.52940  1.0000 0.318911171
H   H12       1.0  0.50720  0.68230  0.97060  1.0000 0.318911171
H   H13       1.0  0.64590  0.70350  0.46280  1.0000 0.1005841293
H   H14       1.0  0.35410  0.20350  0.03720  1.0000 0.1005841293
H   H15       1.0  0.35410  0.29650  0.53720  1.0000 0.1005841293
H   H16       1.0  0.64590  0.79650  0.96280  1.0000 0.1005841293
H   H17       1.0  0.76910  0.69780  0.51950  1.0000 0.1005841293
H   H18       1.0  0.23090  0.19780  0.98050  1.0000 0.1005841293
H   H19       1.0  0.23090  0.30220  0.48050  1.0000 0.1005841293
H   H20       1.0  0.76910  0.80220  0.01950  1.0000 0.1005841293
H   H21       1.0  0.61680  0.69500  0.54820  1.0000 0.1266659047
H   H22       1.0  0.38320  0.19500  0.95180  1.0000 0.1266659047
H   H23       1.0  0.38320  0.30500  0.45180  1.0000 0.1266659047
H   H24       1.0  0.61680  0.80500  0.04820  1.0000 0.1266659047
H   H25       1.0  0.15110  0.61170  0.70740  1.0000 0.1131057576
H   H26       1.0  0.84890  0.11170  0.79260  1.0000 0.1131057576
H   H27       1.0  0.84890  0.38830  0.29260  1.0000 0.1131057576
H   H28       1.0  0.15110  0.88830  0.20740  1.0000 0.1131057576
H   H29       1.0  0.30960  0.61500  0.72470  1.0000 0.0848786891
H   H30       1.0  0.69040  0.11500  0.77530  1.0000 0.0848786891
H   H31       1.0  0.69040  0.38500  0.27530  1.0000 0.0848786891
H   H32       1.0  0.30960  0.88500  0.22470  1.0000 0.0854832888
H   H33       1.0  0.21420  0.56030  0.77040  1.0000 0.1266659047
H   H34       1.0  0.78580  0.06030  0.72960  1.0000 0.1266659047
H   H35       1.0  0.78580  0.43970  0.22960  1.0000 0.1249033124
H   H36       1.0  0.21420  0.93970  0.27040  1.0000 0.1266659047
C   C1        1.0  0.67750  0.80420  0.52030  1.0000 -0.2413381363
C   C2        1.0  0.32250  0.30420  0.97970  1.0000 -0.2413381363
C   C3        1.0  0.32250  0.19580  0.47970  1.0000 -0.2413381363
C   C4        1.0  0.67750  0.69580  0.02030  1.0000 -0.2413381363
C   C5        1.0  0.67730  0.71690  0.51190  1.0000 -0.4552168339
C   C6        1.0  0.32270  0.21690  0.98810  1.0000 -0.4497838067
C   C7        1.0  0.32270  0.28310  0.48810  1.0000 -0.4497838067
C   C8        1.0  0.67730  0.78310  0.01190  1.0000 -0.4497838067
C   C9        1.0  0.19450  0.67300  0.80380  1.0000 -0.2413381363
C   C10       1.0  0.80550  0.17300  0.69620  1.0000 -0.2413381363
C   C11       1.0  0.80550  0.32700  0.19620  1.0000 -0.2451712429
C   C12       1.0  0.19450  0.82700  0.30380  1.0000 -0.2413381363
C   C13       1.0  0.21980  0.60890  0.74610  1.0000 -0.4497838067
C   C14       1.0  0.78020  0.10890  0.75390  1.0000 -0.4497838067
C   C15       1.0  0.78020  0.39110  0.25390  1.0000 -0.4497838067
C   C16       1.0  0.21980  0.89110  0.24610  1.0000 -0.4497838067
O   O1        1.0  0.63590  0.78300  0.66680  1.0000 -0.8413004623
O   O2        1.0  0.36410  0.28300  0.83320  1.0000 -0.8413004623
O   O3        1.0  0.36410  0.21700  0.33320  1.0000 -0.8335870593
O   O4        1.0  0.63590  0.71700  0.16680  1.0000 -0.8335870593
O   O5        1.0  0.43790  0.70260  0.87600  1.0000 -0.8413004623
O   O6        1.0  0.56210  0.20260  0.62400  1.0000 -0.8413004623
O   O7        1.0  0.56210  0.29740  0.12400  1.0000 -0.8413004623
O   O8        1.0  0.43790  0.79740  0.37600  1.0000 -0.8413004623
O   O9        1.0  0.37700  0.76870  0.73910  1.0000 -0.8413004623
O   O10       1.0  0.62300  0.26870  0.76090  1.0000 -0.8413004623
O   O11       1.0  0.62300  0.23130  0.26090  1.0000 -0.8413004623
O   O12       1.0  0.37700  0.73130  0.23910  1.0000 -0.8413004623
O   O13       1.0  0.73280  0.83390  0.37560  1.0000 -0.8593511919
O   O14       1.0  0.26720  0.33390  0.12440  1.0000 -0.8593511919
O   O15       1.0  0.26720  0.16610  0.62440  1.0000 -0.8593511919
O   O16       1.0  0.73280  0.66610  0.87560  1.0000 -0.8593511919
O   O17       1.0  0.87940  0.80650  0.62160  1.0000 -0.8705197661
O   O18       1.0  0.12060  0.30650  0.87840  1.0000 -0.8705197661
O   O19       1.0  0.12060  0.19350  0.37840  1.0000 -0.8705197661
O   O20       1.0  0.87940  0.69350  0.12160  1.0000 -0.8705197661
O   O21       1.0  0.21800  0.70600  0.95000  1.0000 -0.8593511919
O   O22       1.0  0.78200  0.20600  0.55000  1.0000 -0.8593511919
O   O23       1.0  0.78200  0.29400  0.05000  1.0000 -0.8593511919
O   O24       1.0  0.21800  0.79400  0.45000  1.0000 -0.8593511919
O   O25       1.0  0.93450  0.81070  0.46270  1.0000 -0.8413004623
O   O26       1.0  0.06550  0.31070  0.03730  1.0000 -0.8413004623
O   O27       1.0  0.06550  0.18930  0.53730  1.0000 -0.8413004623
O   O28       1.0  0.93450  0.68930  0.96270  1.0000 -0.8413004623
O   O29       1.0  0.13090  0.76900  0.69100  1.0000 -0.8593511919
O   O30       1.0  0.86910  0.26900  0.80900  1.0000 -0.8593511919
O   O31       1.0  0.86910  0.23100  0.30900  1.0000 -0.8593511919
O   O32       1.0  0.13090  0.73100  0.19100  1.0000 -0.8593511919
O   O33       1.0  0.19090  0.82740  0.81740  1.0000 -0.5934667676
O   O34       1.0  0.80910  0.32740  0.68260  1.0000 -0.5934667676
O   O35       1.0  0.80910  0.17260  0.18260  1.0000 -0.595537433
O   O36       1.0  0.19090  0.67260  0.31740  1.0000 -0.5934667676
O   O37       1.0  0.70330  0.91380  0.62770  1.0000 -0.7633487075
O   O38       1.0  0.29670  0.41380  0.87230  1.0000 -0.7658915608
O   O39       1.0  0.29670  0.08620  0.37230  1.0000 -0.7658915608
O   O40       1.0  0.70330  0.58620  0.12770  1.0000 -0.7633487075
O   O41       1.0  0.04970  0.66930  0.82540  1.0000 -0.4008132819
O   O42       1.0  0.95030  0.16930  0.67460  1.0000 -0.4008132819
O   O43       1.0  0.95030  0.33070  0.17460  1.0000 -0.4008132819
O   O44       1.0  0.04970  0.83070  0.32540  1.0000 -0.4008132819
O   O45       1.0  0.54180  0.83660  0.50810  1.0000 -0.4008132819
O   O46       1.0  0.45820  0.33660  0.99190  1.0000 -0.4008132819
O   O47       1.0  0.45820  0.16340  0.49190  1.0000 -0.4008132819
O   O48       1.0  0.54180  0.66340  0.00810  1.0000 -0.405000934
O   O49       1.0  0.80030  0.93330  0.46840  1.0000 -0.8038707464
O   O50       1.0  0.19970  0.43330  0.03160  1.0000 -0.8038707464
O   O51       1.0  0.19970  0.06670  0.53160  1.0000 -0.8053828567
O   O52       1.0  0.80030  0.56670  0.96840  1.0000 -0.8053828567
O   O53       1.0  0.31860  0.58060  0.90650  1.0000 -0.7872817158
O   O54       1.0  0.68140  0.08060  0.59350  1.0000 -0.7872817158
O   O55       1.0  0.68140  0.41940  0.09350  1.0000 -0.7872817158
O   O56       1.0  0.31860  0.91940  0.40650  1.0000 -0.7872817158
O   O57       1.0  0.55790  0.00540  0.48800  1.0000 0.0292133023
O   O58       1.0  0.44210  0.50540  0.01200  1.0000 0.0292133023
O   O59       1.0  0.44210  0.99460  0.51200  1.0000 0.0292133023
O   O60       1.0  0.55790  0.49460  0.98800  1.0000 0.0292133023
