# DDEC6 charges by PACMAN v1.1 (https://github.com/mtap-research/PACMAN-charge/)
data_2012[Cd][rtl]3[ASR]1
_chemical_formula_sum              "Cd10 H56 C120 Cl2 O48"
_cell_length_a       18.3226
_cell_length_b       19.9426
_cell_length_c       21.8982
_cell_angle_alpha    112.055
_cell_angle_beta     88.29
_cell_angle_gamma    94.914

_symmetry_space_group_name_H-M    "P 1"
_symmetry_Int_Tables_number       1

loop_
  _symmetry_equiv_pos_as_xyz
  'x, y, z'

loop_
  _atom_site_type_symbol
  _atom_site_label
  _atom_site_symmetry_multiplicity
  _atom_site_fract_x
  _atom_site_fract_y
  _atom_site_fract_z
  _atom_site_occupancy
  _atom_site_charge
Cd  Cd1       1.0  0.05835  0.33369  0.54864  1.0000 1.0127090347
Cd  Cd2       1.0  0.94165  0.66631  0.45136  1.0000 1.0127090347
Cd  Cd3       1.0  0.96293  0.17781  0.46781  1.0000 1.0393892658
Cd  Cd4       1.0  0.03707  0.82219  0.53219  1.0000 1.0393892658
Cd  Cd5       1.0  0.54242  0.17139  0.95460  1.0000 1.0304416252
Cd  Cd6       1.0  0.45758  0.82861  0.04540  1.0000 1.0304416252
Cd  Cd7       1.0  0.71950  0.14578  0.87422  1.0000 1.0393892658
Cd  Cd8       1.0  0.28050  0.85422  0.12578  1.0000 1.0393892658
Cd  Cd9       1.0  0.54427  0.67036  0.95676  1.0000 1.0304416252
Cd  Cd10      1.0  0.45573  0.32964  0.04324  1.0000 1.0304416252
H   H1        1.0  0.88810  0.41790  0.70050  1.0000 0.1387825612
H   H2        1.0  0.11190  0.58210  0.29950  1.0000 0.1387825612
H   H3        1.0  0.80110  0.45000  0.78260  1.0000 0.1214969641
H   H4        1.0  0.19890  0.55000  0.21740  1.0000 0.1214969641
H   H5        1.0  0.69230  0.25210  0.69770  1.0000 0.1214969641
H   H6        1.0  0.30770  0.74790  0.30230  1.0000 0.1214969641
H   H7        1.0  0.77610  0.22510  0.61260  1.0000 0.1387825612
H   H8        1.0  0.22390  0.77490  0.38740  1.0000 0.1387825612
H   H9        1.0  0.67890  0.27540  0.81580  1.0000 0.1214969641
H   H10       1.0  0.32110  0.72460  0.18420  1.0000 0.1214969641
H   H11       1.0  0.55390  0.42060  0.94600  1.0000 0.1497562696
H   H12       1.0  0.44610  0.57940  0.05400  1.0000 0.1497562696
H   H13       1.0  0.67760  0.47760  0.81470  1.0000 0.1214969641
H   H14       1.0  0.32240  0.52240  0.18530  1.0000 0.1214969641
H   H15       1.0  0.05040  0.08470  0.55640  1.0000 0.1497562696
H   H16       1.0  0.94960  0.91530  0.44360  1.0000 0.1497562696
H   H17       1.0  0.17760  0.02780  0.67320  1.0000 0.1214969641
H   H18       1.0  0.82240  0.97220  0.32680  1.0000 0.1214969641
H   H19       1.0  0.17590  0.23750  0.69600  1.0000 0.1214969641
H   H20       1.0  0.82410  0.76250  0.30400  1.0000 0.1214969641
H   H21       1.0  0.19260  0.24620  0.80940  1.0000 0.1214969641
H   H22       1.0  0.80740  0.75380  0.19060  1.0000 0.1214969641
H   H23       1.0  0.27750  0.27620  0.89530  1.0000 0.1387825612
H   H24       1.0  0.72250  0.72380  0.10470  1.0000 0.1387825612
H   H25       1.0  0.38260  0.10030  0.79170  1.0000 0.1387825612
H   H26       1.0  0.61740  0.89970  0.20830  1.0000 0.1387825612
H   H27       1.0  0.30140  0.07260  0.70580  1.0000 0.1214969641
H   H28       1.0  0.69860  0.92740  0.29420  1.0000 0.1214969641
H   H29       1.0  0.06210  0.58340  0.55280  1.0000 0.1497562696
H   H30       1.0  0.93790  0.41660  0.44720  1.0000 0.1497562696
H   H31       1.0  0.13140  0.76180  0.70820  1.0000 0.1265256015
H   H32       1.0  0.86860  0.23820  0.29180  1.0000 0.1265256015
H   H33       1.0  0.15780  0.56390  0.70700  1.0000 0.1214969641
H   H34       1.0  0.84220  0.43610  0.29300  1.0000 0.1214969641
H   H35       1.0  0.12170  0.78100  0.82590  1.0000 0.1214969641
H   H36       1.0  0.87830  0.21900  0.17410  1.0000 0.1214969641
H   H37       1.0  0.18140  0.83000  0.92720  1.0000 0.1265256015
H   H38       1.0  0.81860  0.17000  0.07280  1.0000 0.1265256015
H   H39       1.0  0.33020  0.68440  0.85890  1.0000 0.1387825612
H   H40       1.0  0.66980  0.31560  0.14110  1.0000 0.1387825612
H   H41       1.0  0.27220  0.63820  0.75850  1.0000 0.1214969641
H   H42       1.0  0.72780  0.36180  0.24150  1.0000 0.1214969641
H   H43       1.0  0.25600  0.28780  0.40410  1.0000 0.1387825612
H   H44       1.0  0.74400  0.71220  0.59590  1.0000 0.1387825612
H   H45       1.0  0.33480  0.25190  0.31570  1.0000 0.1214969641
H   H46       1.0  0.66520  0.74810  0.68430  1.0000 0.1214969641
H   H47       1.0  0.20040  0.07370  0.22670  1.0000 0.1214969641
H   H48       1.0  0.79960  0.92630  0.77330  1.0000 0.1214969641
H   H49       1.0  0.11980  0.11250  0.31370  1.0000 0.1387825612
H   H50       1.0  0.88020  0.88750  0.68630  1.0000 0.1387825612
H   H51       1.0  0.33830  0.23110  0.19160  1.0000 0.1265256015
H   H52       1.0  0.66170  0.76890  0.80840  1.0000 0.1265256015
H   H53       1.0  0.45570  0.07660  0.06230  1.0000 0.1497562696
H   H54       1.0  0.54430  0.92340  0.93770  1.0000 0.1497562696
H   H55       1.0  0.32700  0.03080  0.19640  1.0000 0.1214969641
H   H56       1.0  0.67300  0.96920  0.80360  1.0000 0.1214969641
C   C1        1.0  0.90090  0.29690  0.59760  1.0000 0.5985003394
C   C2        1.0  0.09910  0.70310  0.40240  1.0000 0.5985003394
C   C3        1.0  0.84230  0.31660  0.64900  1.0000 -0.0215984616
C   C4        1.0  0.15770  0.68340  0.35100  1.0000 -0.0215984616
C   C5        1.0  0.84840  0.38450  0.69990  1.0000 -0.0798121147
C   C6        1.0  0.15160  0.61550  0.30010  1.0000 -0.0798121147
C   C7        1.0  0.79710  0.40340  0.74940  1.0000 -0.1397815195
C   C8        1.0  0.20290  0.59660  0.25060  1.0000 -0.1397815195
C   C9        1.0  0.73910  0.35370  0.75080  1.0000 0.0894506258
C   C10       1.0  0.26090  0.64630  0.24920  1.0000 0.0894506258
C   C11       1.0  0.73160  0.28600  0.69860  1.0000 -0.1397815195
C   C12       1.0  0.26840  0.71400  0.30140  1.0000 -0.1397815195
C   C13       1.0  0.78250  0.26970  0.64840  1.0000 -0.0798121147
C   C14       1.0  0.21750  0.73030  0.35160  1.0000 -0.0798121147
C   C15       1.0  0.68650  0.37230  0.80590  1.0000 0.0628711042
C   C16       1.0  0.31350  0.62770  0.19410  1.0000 0.0628711042
C   C17       1.0  0.66250  0.32230  0.83340  1.0000 -0.1397815195
C   C18       1.0  0.33750  0.67770  0.16660  1.0000 -0.1397815195
C   C19       1.0  0.61450  0.33990  0.88680  1.0000 -0.0215984616
C   C20       1.0  0.38550  0.66010  0.11320  1.0000 -0.0215984616
C   C21       1.0  0.58800  0.40880  0.91140  1.0000 -0.0993877909
C   C22       1.0  0.41200  0.59120  0.08860  1.0000 -0.0993877909
C   C23       1.0  0.61200  0.45950  0.88480  1.0000 0.0076845209
C   C24       1.0  0.38800  0.54050  0.11520  1.0000 0.0076845209
C   C25       1.0  0.66130  0.44260  0.83230  1.0000 -0.1397815195
C   C26       1.0  0.33870  0.55740  0.16770  1.0000 -0.1397815195
C   C27       1.0  0.58670  0.53500  0.91220  1.0000 0.540220701
C   C28       1.0  0.41330  0.46500  0.08780  1.0000 0.540220701
C   C29       1.0  0.08720  0.22670  0.59870  1.0000 0.5723876489
C   C30       1.0  0.91280  0.77330  0.40130  1.0000 0.5723876489
C   C31       1.0  0.11020  0.16970  0.62260  1.0000 0.0076845209
C   C32       1.0  0.88980  0.83030  0.37740  1.0000 0.0076845209
C   C33       1.0  0.08480  0.09760  0.59080  1.0000 -0.0993877909
C   C34       1.0  0.91520  0.90240  0.40920  1.0000 -0.0993877909
C   C35       1.0  0.10970  0.04500  0.60920  1.0000 0.0076845209
C   C36       1.0  0.89030  0.95500  0.39080  1.0000 0.0076845209
C   C37       1.0  0.16040  0.06400  0.66080  1.0000 -0.1397815195
C   C38       1.0  0.83960  0.93600  0.33920  1.0000 -0.1397815195
C   C39       1.0  0.18550  0.13630  0.69380  1.0000 0.0652965868
C   C40       1.0  0.81450  0.86370  0.30620  1.0000 0.0652965868
C   C41       1.0  0.15950  0.18840  0.67400  1.0000 -0.1397815195
C   C42       1.0  0.84050  0.81160  0.32600  1.0000 -0.1397815195
C   C43       1.0  0.23860  0.15660  0.74920  1.0000 0.0894506258
C   C44       1.0  0.76140  0.84340  0.25080  1.0000 0.0894506258
C   C45       1.0  0.23140  0.21690  0.80540  1.0000 -0.1397815195
C   C46       1.0  0.76860  0.78310  0.19460  1.0000 -0.1397815195
C   C47       1.0  0.28210  0.23460  0.85690  1.0000 -0.0744159388
C   C48       1.0  0.71790  0.76540  0.14310  1.0000 -0.0798121147
C   C49       1.0  0.33890  0.19110  0.85140  1.0000 -0.0295442015
C   C50       1.0  0.66110  0.80890  0.14860  1.0000 -0.0295442015
C   C51       1.0  0.34480  0.13050  0.79530  1.0000 -0.0798121147
C   C52       1.0  0.65520  0.86950  0.20470  1.0000 -0.0798121147
C   C53       1.0  0.29590  0.11370  0.74440  1.0000 -0.1397815195
C   C54       1.0  0.70410  0.88630  0.25560  1.0000 -0.1397815195
C   C55       1.0  0.39270  0.21130  0.90700  1.0000 0.5985003394
C   C56       1.0  0.60730  0.78870  0.09300  1.0000 0.5985003394
C   C57       1.0  0.09190  0.48050  0.59460  1.0000 0.540220701
C   C58       1.0  0.90810  0.51950  0.40540  1.0000 0.540220701
C   C59       1.0  0.10820  0.56240  0.62500  1.0000 0.0076845209
C   C60       1.0  0.89180  0.43760  0.37500  1.0000 0.0039787629
C   C61       1.0  0.08500  0.60480  0.59430  1.0000 -0.0922152808
C   C62       1.0  0.91500  0.39520  0.40570  1.0000 -0.0922152808
C   C63       1.0  0.09530  0.67980  0.62450  1.0000 -0.0023786213
C   C64       1.0  0.90470  0.32020  0.37550  1.0000 -0.0023786213
C   C65       1.0  0.06940  0.72520  0.59040  1.0000 0.5723876489
C   C66       1.0  0.93060  0.27480  0.40960  1.0000 0.5723876489
C   C67       1.0  0.12730  0.71110  0.68670  1.0000 -0.1397815195
C   C68       1.0  0.87270  0.28890  0.31330  1.0000 -0.1397815195
C   C69       1.0  0.15310  0.66880  0.71710  1.0000 0.0628711042
C   C70       1.0  0.84690  0.33120  0.28290  1.0000 0.0628711042
C   C71       1.0  0.14210  0.59370  0.68620  1.0000 -0.1397815195
C   C72       1.0  0.85790  0.40630  0.31380  1.0000 -0.1397815195
C   C73       1.0  0.19090  0.70320  0.78230  1.0000 0.0838668664
C   C74       1.0  0.80910  0.29680  0.21770  1.0000 0.0838668664
C   C75       1.0  0.16420  0.76130  0.83250  1.0000 -0.1397815195
C   C76       1.0  0.83580  0.23870  0.16750  1.0000 -0.1397815195
C   C77       1.0  0.20030  0.79070  0.89300  1.0000 -0.0798121147
C   C78       1.0  0.79970  0.20930  0.10700  1.0000 -0.0798121147
C   C79       1.0  0.26340  0.76340  0.90380  1.0000 -0.0295442015
C   C80       1.0  0.73660  0.23660  0.09620  1.0000 -0.0295442015
C   C81       1.0  0.28830  0.70520  0.85280  1.0000 -0.0798121147
C   C82       1.0  0.71170  0.29480  0.14720  1.0000 -0.0798121147
C   C83       1.0  0.25280  0.67690  0.79290  1.0000 -0.1397815195
C   C84       1.0  0.74720  0.32310  0.20710  1.0000 -0.1397815195
C   C85       1.0  0.30170  0.79470  0.96890  1.0000 0.5985003394
C   C86       1.0  0.69830  0.20530  0.03110  1.0000 0.5985003394
C   C87       1.0  0.12270  0.22870  0.42060  1.0000 0.5924548638
C   C88       1.0  0.87730  0.77130  0.57940  1.0000 0.5924548638
C   C89       1.0  0.17840  0.20480  0.36610  1.0000 -0.0115132156
C   C90       1.0  0.82160  0.79520  0.63390  1.0000 -0.0115132156
C   C91       1.0  0.24390  0.24520  0.36740  1.0000 -0.0798121147
C   C92       1.0  0.75610  0.75480  0.63260  1.0000 -0.0798121147
C   C93       1.0  0.29110  0.22330  0.31520  1.0000 -0.1397815195
C   C94       1.0  0.70890  0.77670  0.68480  1.0000 -0.1397815195
C   C95       1.0  0.27510  0.15880  0.26110  1.0000 0.0894506258
C   C96       1.0  0.72490  0.84120  0.73890  1.0000 0.0894506258
C   C97       1.0  0.21150  0.11800  0.26200  1.0000 -0.1397815195
C   C98       1.0  0.78850  0.88200  0.73800  1.0000 -0.1397815195
C   C99       1.0  0.16340  0.14110  0.31410  1.0000 -0.0798121147
C   C100      1.0  0.83660  0.85890  0.68590  1.0000 -0.0798121147
C   C101      1.0  0.32590  0.13560  0.20370  1.0000 0.0652965868
C   C102      1.0  0.67410  0.86440  0.79630  1.0000 0.0652965868
C   C103      1.0  0.35250  0.18330  0.17470  1.0000 -0.1301560271
C   C104      1.0  0.64750  0.81670  0.82530  1.0000 -0.1301560271
C   C105      1.0  0.40020  0.16230  0.12050  1.0000 -0.0215984616
C   C106      1.0  0.59980  0.83770  0.87950  1.0000 -0.0215984616
C   C107      1.0  0.42220  0.09150  0.09730  1.0000 -0.0922152808
C   C108      1.0  0.57780  0.90850  0.90270  1.0000 -0.0922152808
C   C109      1.0  0.39470  0.04370  0.12580  1.0000 -0.0115132156
C   C110      1.0  0.60530  0.95630  0.87420  1.0000 -0.0115132156
C   C111      1.0  0.34610  0.06440  0.17820  1.0000 -0.1397815195
C   C112      1.0  0.65390  0.93560  0.82180  1.0000 -0.1397815195
C   C113      1.0  0.41920  0.96710  0.10100  1.0000 0.5786538852
C   C114      1.0  0.58080  0.03290  0.89900  1.0000 0.5786538852
C   C115      1.0  0.42620  0.21320  0.08870  1.0000 0.5786538852
C   C116      1.0  0.57380  0.78680  0.91130  1.0000 0.5786538852
C   C117      1.0  0.59270  0.28480  0.91590  1.0000 0.5985003394
C   C118      1.0  0.40730  0.71520  0.08410  1.0000 0.5985003394
C   C119      1.0  0.08140  0.96640  0.57720  1.0000 0.540220701
C   C120      1.0  0.91860  0.03360  0.42280  1.0000 0.540220701
Cl  Cl1       1.0  0.73298  0.10952  0.75476  1.0000 -0.5696304011
Cl  Cl2       1.0  0.26702  0.89048  0.24524  1.0000 -0.5696304011
O   O1        1.0  0.89030  0.23410  0.55110  1.0000 -0.5409303474
O   O2        1.0  0.10970  0.76590  0.44890  1.0000 -0.5409303474
O   O3        1.0  0.95410  0.34210  0.60390  1.0000 -0.5080037922
O   O4        1.0  0.04590  0.65790  0.39610  1.0000 -0.5080037922
O   O5        1.0  0.62330  0.58280  0.89700  1.0000 -0.5080037922
O   O6        1.0  0.37670  0.41720  0.10300  1.0000 -0.5080037922
O   O7        1.0  0.53290  0.54820  0.94700  1.0000 -0.492017554
O   O8        1.0  0.46710  0.45180  0.05300  1.0000 -0.492017554
O   O9        1.0  0.54950  0.30160  0.96420  1.0000 -0.5505584049
O   O10       1.0  0.45050  0.69840  0.03580  1.0000 -0.5505584049
O   O11       1.0  0.61660  0.22410  0.89160  1.0000 -0.5409303474
O   O12       1.0  0.38340  0.77590  0.10840  1.0000 -0.5409303474
O   O13       1.0  0.12300  0.44110  0.61840  1.0000 -0.4994570098
O   O14       1.0  0.87700  0.55890  0.38160  1.0000 -0.4994570098
O   O15       1.0  0.04990  0.45470  0.54830  1.0000 -0.4446556138
O   O16       1.0  0.95010  0.54530  0.45170  1.0000 -0.4446556138
O   O17       1.0  0.03290  0.69600  0.53890  1.0000 -0.5303218233
O   O18       1.0  0.96710  0.30400  0.46110  1.0000 -0.5303218233
O   O19       1.0  0.08770  0.79310  0.61340  1.0000 -0.4994570098
O   O20       1.0  0.91230  0.20690  0.38660  1.0000 -0.4994570098
O   O21       1.0  0.27050  0.83020  0.01800  1.0000 -0.5409303474
O   O22       1.0  0.72950  0.16980  0.98200  1.0000 -0.5409303474
O   O23       1.0  0.36960  0.77960  0.96630  1.0000 -0.5505584049
O   O24       1.0  0.63040  0.22040  0.03370  1.0000 -0.5505584049
O   O25       1.0  0.11370  0.28940  0.62170  1.0000 -0.4466704743
O   O26       1.0  0.88630  0.71060  0.37830  1.0000 -0.4466704743
O   O27       1.0  0.04170  0.20590  0.55400  1.0000 -0.5080037922
O   O28       1.0  0.95830  0.79410  0.44600  1.0000 -0.5080037922
O   O29       1.0  0.01780  0.95090  0.55620  1.0000 -0.4775760142
O   O30       1.0  0.98220  0.04910  0.44380  1.0000 -0.4775760142
O   O31       1.0  0.12420  0.91830  0.57070  1.0000 -0.4994570098
O   O32       1.0  0.87580  0.08170  0.42930  1.0000 -0.4994570098
O   O33       1.0  0.39130  0.27320  0.95130  1.0000 -0.5303218233
O   O34       1.0  0.60870  0.72680  0.04870  1.0000 -0.5303218233
O   O35       1.0  0.43630  0.16310  0.90500  1.0000 -0.5574708748
O   O36       1.0  0.56370  0.83690  0.09500  1.0000 -0.5574708748
O   O37       1.0  0.13310  0.29240  0.46350  1.0000 -0.5225584375
O   O38       1.0  0.86690  0.70760  0.53650  1.0000 -0.5225584375
O   O39       1.0  0.07130  0.18270  0.41800  1.0000 -0.5303218233
O   O40       1.0  0.92870  0.81730  0.58200  1.0000 -0.5303218233
O   O41       1.0  0.38850  0.92320  0.12470  1.0000 -0.5696304011
O   O42       1.0  0.61150  0.07680  0.87530  1.0000 -0.5696304011
O   O43       1.0  0.46720  0.95020  0.05800  1.0000 -0.4775760142
O   O44       1.0  0.53280  0.04980  0.94200  1.0000 -0.4748428631
O   O45       1.0  0.48070  0.19850  0.05150  1.0000 -0.5574708748
O   O46       1.0  0.51930  0.80150  0.94850  1.0000 -0.5574708748
O   O47       1.0  0.39320  0.26860  0.10010  1.0000 -0.4994570098
O   O48       1.0  0.60680  0.73140  0.89990  1.0000 -0.5080037922
