# DDEC6 charges by PACMAN v1.1 (https://github.com/mtap-research/PACMAN-charge/)
data_2012[Zn][mog]3[ASR]1
_chemical_formula_sum              "Zn8 P8 H88 C104 N16 O32"
_cell_length_a       9.2671
_cell_length_b       17.1198
_cell_length_c       24.8416
_cell_angle_alpha    90
_cell_angle_beta     90
_cell_angle_gamma    90

_symmetry_space_group_name_H-M    "P 1"
_symmetry_Int_Tables_number       1

loop_
  _symmetry_equiv_pos_as_xyz
  'x, y, z'

loop_
  _atom_site_type_symbol
  _atom_site_label
  _atom_site_symmetry_multiplicity
  _atom_site_fract_x
  _atom_site_fract_y
  _atom_site_fract_z
  _atom_site_occupancy
  _atom_site_charge
Zn  Zn1       1.0  0.18146  0.19998  0.24912  1.0000 0.8218048506
Zn  Zn2       1.0  0.81854  0.80002  0.24912  1.0000 0.8218048506
Zn  Zn3       1.0  0.31854  0.69998  0.25088  1.0000 0.8218048506
Zn  Zn4       1.0  0.68146  0.30002  0.25088  1.0000 0.8218048506
Zn  Zn5       1.0  0.81854  0.80002  0.75088  1.0000 0.8218048506
Zn  Zn6       1.0  0.18146  0.19998  0.75088  1.0000 0.8218048506
Zn  Zn7       1.0  0.68146  0.30002  0.74912  1.0000 0.8218048506
Zn  Zn8       1.0  0.31854  0.69998  0.74912  1.0000 0.8218048506
P   P1        1.0  0.84496  0.14213  0.24568  1.0000 1.4303896717
P   P2        1.0  0.15504  0.85787  0.24568  1.0000 1.4303896717
P   P3        1.0  0.65504  0.64213  0.25432  1.0000 1.4303896717
P   P4        1.0  0.34496  0.35787  0.25432  1.0000 1.4303896717
P   P5        1.0  0.15504  0.85787  0.75432  1.0000 1.4303896717
P   P6        1.0  0.84496  0.14213  0.75432  1.0000 1.4303896717
P   P7        1.0  0.34496  0.35787  0.74568  1.0000 1.4303896717
P   P8        1.0  0.65504  0.64213  0.74568  1.0000 1.4303896717
H   H1        1.0  0.32660  0.09140  0.50000  1.0000 0.1180749291
H   H2        1.0  0.67340  0.90860  0.50000  1.0000 0.1180749291
H   H3        1.0  0.17340  0.59140  0.00000  1.0000 0.1104263597
H   H4        1.0  0.82660  0.40860  0.00000  1.0000 0.1104263597
H   H5        1.0  0.17370  0.05920  0.42600  1.0000 0.1180749291
H   H6        1.0  0.82630  0.94080  0.42600  1.0000 0.1180749291
H   H7        1.0  0.32630  0.55920  0.07400  1.0000 0.1180749291
H   H8        1.0  0.67370  0.44080  0.07400  1.0000 0.1180749291
H   H9        1.0  0.82630  0.94080  0.57400  1.0000 0.1180749291
H   H10       1.0  0.17370  0.05920  0.57400  1.0000 0.1180749291
H   H11       1.0  0.67370  0.44080  0.92600  1.0000 0.1180749291
H   H12       1.0  0.32630  0.55920  0.92600  1.0000 0.1180749291
H   H13       1.0  0.57990  0.09060  0.36170  1.0000 0.1180749291
H   H14       1.0  0.42010  0.90940  0.36170  1.0000 0.1180749291
H   H15       1.0  0.92010  0.59060  0.13830  1.0000 0.1180749291
H   H16       1.0  0.07990  0.40940  0.13830  1.0000 0.1180749291
H   H17       1.0  0.42010  0.90940  0.63830  1.0000 0.1180749291
H   H18       1.0  0.57990  0.09060  0.63830  1.0000 0.1180749291
H   H19       1.0  0.07990  0.40940  0.86170  1.0000 0.1180749291
H   H20       1.0  0.92010  0.59060  0.86170  1.0000 0.1180749291
H   H21       1.0  0.46410  0.15660  0.28870  1.0000 0.1104263597
H   H22       1.0  0.53590  0.84340  0.28870  1.0000 0.1104263597
H   H23       1.0  0.03590  0.65660  0.21130  1.0000 0.1104263597
H   H24       1.0  0.96410  0.34340  0.21130  1.0000 0.1104263597
H   H25       1.0  0.53590  0.84340  0.71130  1.0000 0.1104263597
H   H26       1.0  0.46410  0.15660  0.71130  1.0000 0.1104263597
H   H27       1.0  0.96410  0.34340  0.78870  1.0000 0.1104263597
H   H28       1.0  0.03590  0.65660  0.78870  1.0000 0.1104263597
H   H29       1.0  0.07960  0.11920  0.34840  1.0000 0.1006889634
H   H30       1.0  0.92040  0.88080  0.34840  1.0000 0.1006889634
H   H31       1.0  0.42040  0.61920  0.15160  1.0000 0.1006889634
H   H32       1.0  0.57960  0.38080  0.15160  1.0000 0.1006889634
H   H33       1.0  0.92040  0.88080  0.65160  1.0000 0.1006889634
H   H34       1.0  0.07960  0.11920  0.65160  1.0000 0.1006889634
H   H35       1.0  0.57960  0.38080  0.84840  1.0000 0.1006889634
H   H36       1.0  0.42040  0.61920  0.84840  1.0000 0.1006889634
H   H37       1.0  0.17900  0.04910  0.20150  1.0000 0.1104263597
H   H38       1.0  0.82100  0.95090  0.20150  1.0000 0.1104263597
H   H39       1.0  0.32100  0.54910  0.29850  1.0000 0.1104263597
H   H40       1.0  0.67900  0.45090  0.29850  1.0000 0.1104263597
H   H41       1.0  0.82100  0.95090  0.79850  1.0000 0.1104263597
H   H42       1.0  0.17900  0.04910  0.79850  1.0000 0.1104263597
H   H43       1.0  0.67900  0.45090  0.70150  1.0000 0.1104263597
H   H44       1.0  0.32100  0.54910  0.70150  1.0000 0.1104263597
H   H45       1.0  0.30720  0.97670  0.12770  1.0000 0.1253167532
H   H46       1.0  0.69280  0.02330  0.12770  1.0000 0.1253167532
H   H47       1.0  0.19280  0.47670  0.37230  1.0000 0.1253167532
H   H48       1.0  0.80720  0.52330  0.37230  1.0000 0.1253167532
H   H49       1.0  0.69280  0.02330  0.87230  1.0000 0.1253167532
H   H50       1.0  0.30720  0.97670  0.87230  1.0000 0.1253167532
H   H51       1.0  0.80720  0.52330  0.62770  1.0000 0.1253167532
H   H52       1.0  0.19280  0.47670  0.62770  1.0000 0.1253167532
H   H53       1.0  0.49220  0.18040  0.08500  1.0000 0.1253167532
H   H54       1.0  0.50780  0.81960  0.08500  1.0000 0.1253167532
H   H55       1.0  0.00780  0.68040  0.41500  1.0000 0.1253167532
H   H56       1.0  0.99220  0.31960  0.41500  1.0000 0.1253167532
H   H57       1.0  0.50780  0.81960  0.91500  1.0000 0.1253167532
H   H58       1.0  0.49220  0.18040  0.91500  1.0000 0.1253167532
H   H59       1.0  0.99220  0.31960  0.58500  1.0000 0.1253167532
H   H60       1.0  0.00780  0.68040  0.58500  1.0000 0.1253167532
H   H61       1.0  0.39540  0.23490  0.16470  1.0000 0.1006889634
H   H62       1.0  0.60460  0.76510  0.16470  1.0000 0.1006889634
H   H63       1.0  0.10460  0.73490  0.33530  1.0000 0.1006889634
H   H64       1.0  0.89540  0.26510  0.33530  1.0000 0.1006889634
H   H65       1.0  0.60460  0.76510  0.83530  1.0000 0.1006889634
H   H66       1.0  0.39540  0.23490  0.83530  1.0000 0.1006889634
H   H67       1.0  0.89540  0.26510  0.66470  1.0000 0.1006889634
H   H68       1.0  0.10460  0.73490  0.66470  1.0000 0.1006889634
H   H69       1.0  0.83950  0.09150  0.31730  1.0000 0.3476573371
H   H70       1.0  0.16050  0.90850  0.31730  1.0000 0.3476573371
H   H71       1.0  0.66050  0.59150  0.18270  1.0000 0.3476573371
H   H72       1.0  0.33950  0.40850  0.18270  1.0000 0.3476573371
H   H73       1.0  0.16050  0.90850  0.68270  1.0000 0.3476573371
H   H74       1.0  0.83950  0.09150  0.68270  1.0000 0.3476573371
H   H75       1.0  0.33950  0.40850  0.81730  1.0000 0.3476573371
H   H76       1.0  0.66050  0.59150  0.81730  1.0000 0.3476573371
H   H77       1.0  0.36420  0.11380  0.00000  1.0000 0.1180749291
H   H78       1.0  0.63580  0.88620  0.00000  1.0000 0.1180749291
H   H79       1.0  0.13580  0.61380  0.50000  1.0000 0.1180749291
H   H80       1.0  0.86420  0.38620  0.50000  1.0000 0.1180749291
H   H81       1.0  0.87910  0.13130  0.16020  1.0000 0.3943914615
H   H82       1.0  0.12090  0.86870  0.16020  1.0000 0.3943914615
H   H83       1.0  0.62090  0.63130  0.33980  1.0000 0.3943914615
H   H84       1.0  0.37910  0.36870  0.33980  1.0000 0.3943914615
H   H85       1.0  0.12090  0.86870  0.83980  1.0000 0.3943914615
H   H86       1.0  0.87910  0.13130  0.83980  1.0000 0.3943914615
H   H87       1.0  0.37910  0.36870  0.66020  1.0000 0.3943914615
H   H88       1.0  0.62090  0.63130  0.66020  1.0000 0.3943914615
C   C1        1.0  0.18030  0.11500  0.35272  1.0000 0.0705895864
C   C2        1.0  0.81970  0.88500  0.35272  1.0000 0.0705895864
C   C3        1.0  0.31970  0.61500  0.14728  1.0000 0.0705895864
C   C4        1.0  0.68030  0.38500  0.14728  1.0000 0.0705895864
C   C5        1.0  0.81970  0.88500  0.64728  1.0000 0.0705895864
C   C6        1.0  0.18030  0.11500  0.64728  1.0000 0.0705895864
C   C7        1.0  0.68030  0.38500  0.85272  1.0000 0.0705895864
C   C8        1.0  0.31970  0.61500  0.85272  1.0000 0.0705895864
C   C9        1.0  0.23430  0.07510  0.39655  1.0000 -0.2216713883
C   C10       1.0  0.76570  0.92490  0.39655  1.0000 -0.2216713883
C   C11       1.0  0.26570  0.57510  0.10345  1.0000 -0.2216713883
C   C12       1.0  0.73430  0.42490  0.10345  1.0000 -0.2216713883
C   C13       1.0  0.76570  0.92490  0.60345  1.0000 -0.2216713883
C   C14       1.0  0.23430  0.07510  0.60345  1.0000 -0.2216713883
C   C15       1.0  0.73430  0.42490  0.89655  1.0000 -0.2216713883
C   C16       1.0  0.26570  0.57510  0.89655  1.0000 -0.2216713883
C   C17       1.0  0.38310  0.06461  0.40120  1.0000 0.1104263597
C   C18       1.0  0.61690  0.93539  0.40120  1.0000 0.1104263597
C   C19       1.0  0.11690  0.56461  0.09880  1.0000 0.1104263597
C   C20       1.0  0.88310  0.43539  0.09880  1.0000 0.1104263597
C   C21       1.0  0.61690  0.93539  0.59880  1.0000 0.1104263597
C   C22       1.0  0.38310  0.06461  0.59880  1.0000 0.1104263597
C   C23       1.0  0.88310  0.43539  0.90120  1.0000 0.1104263597
C   C24       1.0  0.11690  0.56461  0.90120  1.0000 0.1104263597
C   C25       1.0  0.46960  0.09200  0.35976  1.0000 -0.189517849
C   C26       1.0  0.53040  0.90800  0.35976  1.0000 -0.189517849
C   C27       1.0  0.03040  0.59200  0.14024  1.0000 -0.189517849
C   C28       1.0  0.96960  0.40800  0.14024  1.0000 -0.189517849
C   C29       1.0  0.53040  0.90800  0.64024  1.0000 -0.189517849
C   C30       1.0  0.46960  0.09200  0.64024  1.0000 -0.189517849
C   C31       1.0  0.96960  0.40800  0.85976  1.0000 -0.189517849
C   C32       1.0  0.03040  0.59200  0.85976  1.0000 -0.189517849
C   C33       1.0  0.40840  0.13080  0.31696  1.0000 0.0705895864
C   C34       1.0  0.59160  0.86920  0.31696  1.0000 0.0705895864
C   C35       1.0  0.09160  0.63080  0.18304  1.0000 0.0705895864
C   C36       1.0  0.90840  0.36920  0.18304  1.0000 0.0705895864
C   C37       1.0  0.59160  0.86920  0.68304  1.0000 0.0705895864
C   C38       1.0  0.40840  0.13080  0.68304  1.0000 0.0705895864
C   C39       1.0  0.90840  0.36920  0.81696  1.0000 0.0705895864
C   C40       1.0  0.09160  0.63080  0.81696  1.0000 0.0705895864
C   C41       1.0  0.44430  0.02808  0.45067  1.0000 0.0037746902
C   C42       1.0  0.55570  0.97192  0.45067  1.0000 0.0037746902
C   C43       1.0  0.05570  0.52808  0.04933  1.0000 0.0037746902
C   C44       1.0  0.94430  0.47192  0.04933  1.0000 0.0037746902
C   C45       1.0  0.55570  0.97192  0.54933  1.0000 0.0037746902
C   C46       1.0  0.44430  0.02808  0.54933  1.0000 0.0037746902
C   C47       1.0  0.94430  0.47192  0.95067  1.0000 0.0037746902
C   C48       1.0  0.05570  0.52808  0.95067  1.0000 0.0037746902
C   C49       1.0  0.39080  0.05330  0.50000  1.0000 -0.181995198
C   C50       1.0  0.60920  0.94670  0.50000  1.0000 -0.181995198
C   C51       1.0  0.10920  0.55330  0.00000  1.0000 -0.181995198
C   C52       1.0  0.89080  0.44670  0.00000  1.0000 -0.181995198
C   C53       1.0  0.25020  0.07240  0.17506  1.0000 0.0780895717
C   C54       1.0  0.74980  0.92760  0.17506  1.0000 0.0780895717
C   C55       1.0  0.24980  0.57240  0.32494  1.0000 0.0780895717
C   C56       1.0  0.75020  0.42760  0.32494  1.0000 0.0780895717
C   C57       1.0  0.74980  0.92760  0.82494  1.0000 0.0780895717
C   C58       1.0  0.25020  0.07240  0.82494  1.0000 0.0780895717
C   C59       1.0  0.75020  0.42760  0.67506  1.0000 0.0780895717
C   C60       1.0  0.24980  0.57240  0.67506  1.0000 0.0780895717
C   C61       1.0  0.31150  0.03400  0.13242  1.0000 -0.181995198
C   C62       1.0  0.68850  0.96600  0.13242  1.0000 -0.181995198
C   C63       1.0  0.18850  0.53400  0.36758  1.0000 -0.181995198
C   C64       1.0  0.81150  0.46600  0.36758  1.0000 -0.181995198
C   C65       1.0  0.68850  0.96600  0.86758  1.0000 -0.181995198
C   C66       1.0  0.31150  0.03400  0.86758  1.0000 -0.181995198
C   C67       1.0  0.81150  0.46600  0.63242  1.0000 -0.181995198
C   C68       1.0  0.18850  0.53400  0.63242  1.0000 -0.181995198
C   C69       1.0  0.40410  0.07252  0.09881  1.0000 0.1104263597
C   C70       1.0  0.59590  0.92748  0.09881  1.0000 0.1104263597
C   C71       1.0  0.09590  0.57252  0.40119  1.0000 0.1104263597
C   C72       1.0  0.90410  0.42748  0.40119  1.0000 0.1104263597
C   C73       1.0  0.59590  0.92748  0.90119  1.0000 0.1104263597
C   C74       1.0  0.40410  0.07252  0.90119  1.0000 0.1104263597
C   C75       1.0  0.90410  0.42748  0.59881  1.0000 0.1104263597
C   C76       1.0  0.09590  0.57252  0.59881  1.0000 0.1104263597
C   C77       1.0  0.43650  0.14990  0.11092  1.0000 -0.2216713883
C   C78       1.0  0.56350  0.85010  0.11092  1.0000 -0.2216713883
C   C79       1.0  0.06350  0.64990  0.38908  1.0000 -0.2216713883
C   C80       1.0  0.93650  0.35010  0.38908  1.0000 -0.2216713883
C   C81       1.0  0.56350  0.85010  0.88908  1.0000 -0.2216713883
C   C82       1.0  0.43650  0.14990  0.88908  1.0000 -0.2216713883
C   C83       1.0  0.93650  0.35010  0.61092  1.0000 -0.2216713883
C   C84       1.0  0.06350  0.64990  0.61092  1.0000 -0.2216713883
C   C85       1.0  0.37120  0.18480  0.15425  1.0000 0.0780895717
C   C86       1.0  0.62880  0.81520  0.15425  1.0000 0.0780895717
C   C87       1.0  0.12880  0.68480  0.34575  1.0000 0.0780895717
C   C88       1.0  0.87120  0.31520  0.34575  1.0000 0.0780895717
C   C89       1.0  0.62880  0.81520  0.84575  1.0000 0.0780895717
C   C90       1.0  0.37120  0.18480  0.84575  1.0000 0.0780895717
C   C91       1.0  0.87120  0.31520  0.65425  1.0000 0.0780895717
C   C92       1.0  0.12880  0.68480  0.65425  1.0000 0.0780895717
C   C93       1.0  0.46100  0.03498  0.04895  1.0000 0.0100163076
C   C94       1.0  0.53900  0.96502  0.04895  1.0000 0.0100163076
C   C95       1.0  0.03900  0.53498  0.45105  1.0000 0.0100163076
C   C96       1.0  0.96100  0.46502  0.45105  1.0000 0.0100163076
C   C97       1.0  0.53900  0.96502  0.95105  1.0000 0.0100163076
C   C98       1.0  0.46100  0.03498  0.95105  1.0000 0.0100163076
C   C99       1.0  0.96100  0.46502  0.54895  1.0000 0.0100163076
C   C100      1.0  0.03900  0.53498  0.54895  1.0000 0.0100163076
C   C101      1.0  0.42240  0.06830  0.00000  1.0000 -0.181995198
C   C102      1.0  0.57760  0.93170  0.00000  1.0000 -0.181995198
C   C103      1.0  0.07760  0.56830  0.50000  1.0000 -0.181995198
C   C104      1.0  0.92240  0.43170  0.50000  1.0000 -0.181995198
N   N1        1.0  0.26490  0.14324  0.31314  1.0000 -0.2588053036
N   N2        1.0  0.73510  0.85676  0.31314  1.0000 -0.2588053036
N   N3        1.0  0.23510  0.64324  0.18686  1.0000 -0.2588053036
N   N4        1.0  0.76490  0.35676  0.18686  1.0000 -0.2588053036
N   N5        1.0  0.73510  0.85676  0.68686  1.0000 -0.2588053036
N   N6        1.0  0.26490  0.14324  0.68686  1.0000 -0.2588053036
N   N7        1.0  0.76490  0.35676  0.81314  1.0000 -0.2588053036
N   N8        1.0  0.23510  0.64324  0.81314  1.0000 -0.2588053036
N   N9        1.0  0.27780  0.14707  0.18615  1.0000 -0.2588053036
N   N10       1.0  0.72220  0.85293  0.18615  1.0000 -0.2588053036
N   N11       1.0  0.22220  0.64707  0.31385  1.0000 -0.2588053036
N   N12       1.0  0.77780  0.35293  0.31385  1.0000 -0.2588053036
N   N13       1.0  0.72220  0.85293  0.81385  1.0000 -0.2588053036
N   N14       1.0  0.27780  0.14707  0.81385  1.0000 -0.2588053036
N   N15       1.0  0.77780  0.35293  0.68615  1.0000 -0.2588053036
N   N16       1.0  0.22220  0.64707  0.68615  1.0000 -0.2588053036
O   O1        1.0  0.97660  0.19137  0.25523  1.0000 -0.8376627274
O   O2        1.0  0.02340  0.80863  0.25523  1.0000 -0.8376627274
O   O3        1.0  0.52340  0.69137  0.24477  1.0000 -0.8376627274
O   O4        1.0  0.47660  0.30863  0.24477  1.0000 -0.8376627274
O   O5        1.0  0.02340  0.80863  0.74477  1.0000 -0.8376627274
O   O6        1.0  0.97660  0.19137  0.74477  1.0000 -0.8376627274
O   O7        1.0  0.47660  0.30863  0.75523  1.0000 -0.8376627274
O   O8        1.0  0.52340  0.69137  0.75523  1.0000 -0.8376627274
O   O9        1.0  0.83830  0.07109  0.28521  1.0000 -0.68204026
O   O10       1.0  0.16170  0.92891  0.28521  1.0000 -0.68204026
O   O11       1.0  0.66170  0.57109  0.21479  1.0000 -0.68204026
O   O12       1.0  0.33830  0.42891  0.21479  1.0000 -0.68204026
O   O13       1.0  0.16170  0.92891  0.71479  1.0000 -0.68204026
O   O14       1.0  0.83830  0.07109  0.71479  1.0000 -0.68204026
O   O15       1.0  0.33830  0.42891  0.78521  1.0000 -0.68204026
O   O16       1.0  0.66170  0.57109  0.78521  1.0000 -0.68204026
O   O17       1.0  0.85470  0.09978  0.19075  1.0000 -0.7112727917
O   O18       1.0  0.14530  0.90022  0.19075  1.0000 -0.7112727917
O   O19       1.0  0.64530  0.59978  0.30925  1.0000 -0.7112727917
O   O20       1.0  0.35470  0.40022  0.30925  1.0000 -0.7112727917
O   O21       1.0  0.14530  0.90022  0.80925  1.0000 -0.7112727917
O   O22       1.0  0.85470  0.09978  0.80925  1.0000 -0.7112727917
O   O23       1.0  0.35470  0.40022  0.69075  1.0000 -0.7112727917
O   O24       1.0  0.64530  0.59978  0.69075  1.0000 -0.7112727917
O   O25       1.0  0.71010  0.18986  0.25091  1.0000 -0.8063251234
O   O26       1.0  0.28990  0.81014  0.25091  1.0000 -0.8063251234
O   O27       1.0  0.78990  0.68986  0.24909  1.0000 -0.8063251234
O   O28       1.0  0.21010  0.31014  0.24909  1.0000 -0.8049636044
O   O29       1.0  0.28990  0.81014  0.74909  1.0000 -0.8063251234
O   O30       1.0  0.71010  0.18986  0.74909  1.0000 -0.8063251234
O   O31       1.0  0.21010  0.31014  0.75091  1.0000 -0.8049636044
O   O32       1.0  0.78990  0.68986  0.75091  1.0000 -0.8063251234
