# DDEC6 charges by PACMAN v1.1 (https://github.com/mtap-research/PACMAN-charge/)
data_2012[Cu][ith]3[ASR]1
_chemical_formula_sum              "Cu12 H168 C276 N12 O48"
_cell_length_a       27.449
_cell_length_b       27.449
_cell_length_c       27.449
_cell_angle_alpha    90
_cell_angle_beta     90
_cell_angle_gamma    90

_symmetry_space_group_name_H-M    "P 1"
_symmetry_Int_Tables_number       1

loop_
  _symmetry_equiv_pos_as_xyz
  'x, y, z'

loop_
  _atom_site_type_symbol
  _atom_site_label
  _atom_site_symmetry_multiplicity
  _atom_site_fract_x
  _atom_site_fract_y
  _atom_site_fract_z
  _atom_site_occupancy
  _atom_site_charge
Cu  Cu1       1.0  0.00000  0.50000  0.70112  1.0000 0.79071693
Cu  Cu2       1.0  0.00000  0.50000  0.29888  1.0000 0.79071693
Cu  Cu3       1.0  0.70112  0.00000  0.50000  1.0000 0.79071693
Cu  Cu4       1.0  0.29888  0.00000  0.50000  1.0000 0.79071693
Cu  Cu5       1.0  0.50000  0.70113  0.00000  1.0000 0.79071693
Cu  Cu6       1.0  0.50000  0.29887  0.00000  1.0000 0.79071693
Cu  Cu7       1.0  0.00000  0.50000  0.79888  1.0000 0.79071693
Cu  Cu8       1.0  0.00000  0.50000  0.20112  1.0000 0.79071693
Cu  Cu9       1.0  0.50000  0.20112  0.00000  1.0000 0.79071693
Cu  Cu10      1.0  0.50000  0.79888  0.00000  1.0000 0.79071693
Cu  Cu11      1.0  0.20113  0.00000  0.50000  1.0000 0.79071693
Cu  Cu12      1.0  0.79887  0.00000  0.50000  1.0000 0.79071693
H   H1        1.0  0.10278  0.38863  0.82844  1.0000 0.1094224692
H   H2        1.0  0.16516  0.32531  0.82837  1.0000 0.102501737
H   H3        1.0  0.89722  0.61137  0.82844  1.0000 0.1094224692
H   H4        1.0  0.83484  0.67469  0.82837  1.0000 0.1094224692
H   H5        1.0  0.89722  0.38863  0.17156  1.0000 0.1094224692
H   H6        1.0  0.83484  0.32531  0.17163  1.0000 0.102501737
H   H7        1.0  0.10278  0.61137  0.17156  1.0000 0.1094224692
H   H8        1.0  0.16516  0.67469  0.17163  1.0000 0.102501737
H   H9        1.0  0.82957  0.10334  0.38848  1.0000 0.1094224692
H   H10       1.0  0.82900  0.16542  0.32486  1.0000 0.102501737
H   H11       1.0  0.82957  0.89666  0.61152  1.0000 0.1094224692
H   H12       1.0  0.82900  0.83458  0.67514  1.0000 0.102501737
H   H13       1.0  0.17043  0.89666  0.38848  1.0000 0.1094224692
H   H14       1.0  0.17100  0.83458  0.32486  1.0000 0.102501737
H   H15       1.0  0.17043  0.10334  0.61152  1.0000 0.1094224692
H   H16       1.0  0.17100  0.16542  0.67514  1.0000 0.102501737
H   H17       1.0  0.38879  0.82731  0.10256  1.0000 0.1094224692
H   H18       1.0  0.32574  0.82775  0.16519  1.0000 0.102501737
H   H19       1.0  0.57414  0.62455  0.02107  1.0000 0.102501737
H   H20       1.0  0.57536  0.53524  0.02307  1.0000 0.1171330673
H   H21       1.0  0.61121  0.82731  0.89744  1.0000 0.1094224692
H   H22       1.0  0.67426  0.82775  0.83481  1.0000 0.102501737
H   H23       1.0  0.42586  0.62455  0.97893  1.0000 0.102501737
H   H24       1.0  0.42464  0.53524  0.97693  1.0000 0.1171330673
H   H25       1.0  0.38879  0.17269  0.89744  1.0000 0.1094224692
H   H26       1.0  0.32574  0.17225  0.83481  1.0000 0.102501737
H   H27       1.0  0.57414  0.37545  0.97893  1.0000 0.102501737
H   H28       1.0  0.57536  0.46476  0.97693  1.0000 0.1171330673
H   H29       1.0  0.61121  0.17269  0.10256  1.0000 0.1094224692
H   H30       1.0  0.67426  0.17225  0.16519  1.0000 0.102501737
H   H31       1.0  0.42586  0.37545  0.02107  1.0000 0.102501737
H   H32       1.0  0.42464  0.46476  0.02307  1.0000 0.1171330673
H   H33       1.0  0.88863  0.60278  0.67156  1.0000 0.1094224692
H   H34       1.0  0.82531  0.66516  0.67163  1.0000 0.1094224692
H   H35       1.0  0.11137  0.39722  0.67156  1.0000 0.1094224692
H   H36       1.0  0.17469  0.33484  0.67163  1.0000 0.102501737
H   H37       1.0  0.88863  0.39722  0.32844  1.0000 0.1094224692
H   H38       1.0  0.82531  0.33484  0.32837  1.0000 0.102501737
H   H39       1.0  0.11137  0.60278  0.32844  1.0000 0.1094224692
H   H40       1.0  0.17469  0.66516  0.32837  1.0000 0.102501737
H   H41       1.0  0.60334  0.32957  0.11152  1.0000 0.1094224692
H   H42       1.0  0.66542  0.32900  0.17514  1.0000 0.102501737
H   H43       1.0  0.39666  0.32957  0.88848  1.0000 0.1094224692
H   H44       1.0  0.33458  0.32900  0.82486  1.0000 0.102501737
H   H45       1.0  0.39666  0.67043  0.11152  1.0000 0.1094224692
H   H46       1.0  0.33458  0.67100  0.17514  1.0000 0.102501737
H   H47       1.0  0.60334  0.67043  0.88848  1.0000 0.1094224692
H   H48       1.0  0.66542  0.67100  0.82486  1.0000 0.102501737
H   H49       1.0  0.32731  0.88879  0.39744  1.0000 0.1094224692
H   H50       1.0  0.32775  0.82574  0.33481  1.0000 0.102501737
H   H51       1.0  0.12455  0.07414  0.47893  1.0000 0.102501737
H   H52       1.0  0.03524  0.07536  0.47693  1.0000 0.1171330673
H   H53       1.0  0.32731  0.11121  0.60256  1.0000 0.1094224692
H   H54       1.0  0.32775  0.17426  0.66519  1.0000 0.102501737
H   H55       1.0  0.12455  0.92586  0.52107  1.0000 0.102501737
H   H56       1.0  0.03524  0.92464  0.52307  1.0000 0.1171330673
H   H57       1.0  0.67269  0.88879  0.60256  1.0000 0.1094224692
H   H58       1.0  0.67225  0.82574  0.66519  1.0000 0.102501737
H   H59       1.0  0.87545  0.07414  0.52107  1.0000 0.102501737
H   H60       1.0  0.96476  0.07536  0.52307  1.0000 0.1171330673
H   H61       1.0  0.67269  0.11121  0.39744  1.0000 0.1094224692
H   H62       1.0  0.67225  0.17426  0.33481  1.0000 0.102501737
H   H63       1.0  0.87545  0.92586  0.47893  1.0000 0.102501737
H   H64       1.0  0.96476  0.92464  0.47693  1.0000 0.1171330673
H   H65       1.0  0.89687  0.61125  0.17155  1.0000 0.1094224692
H   H66       1.0  0.83454  0.67461  0.17161  1.0000 0.102501737
H   H67       1.0  0.97993  0.42557  0.37547  1.0000 0.102501737
H   H68       1.0  0.97768  0.42439  0.46468  1.0000 0.1171330673
H   H69       1.0  0.10313  0.38875  0.17155  1.0000 0.1094224692
H   H70       1.0  0.16546  0.32539  0.17161  1.0000 0.102501737
H   H71       1.0  0.02007  0.57443  0.37547  1.0000 0.102501737
H   H72       1.0  0.02232  0.57561  0.46468  1.0000 0.1171330673
H   H73       1.0  0.10313  0.61125  0.82845  1.0000 0.1094224692
H   H74       1.0  0.16546  0.67461  0.82839  1.0000 0.102501737
H   H75       1.0  0.02007  0.42557  0.62453  1.0000 0.102501737
H   H76       1.0  0.02232  0.42439  0.53532  1.0000 0.1171330673
H   H77       1.0  0.89687  0.38875  0.82845  1.0000 0.1094224692
H   H78       1.0  0.83454  0.32539  0.82839  1.0000 0.102501737
H   H79       1.0  0.97993  0.57443  0.62453  1.0000 0.102501737
H   H80       1.0  0.97768  0.57561  0.53532  1.0000 0.1171330673
H   H81       1.0  0.17268  0.89746  0.61111  1.0000 0.1094224692
H   H82       1.0  0.17225  0.83484  0.67416  1.0000 0.102501737
H   H83       1.0  0.37545  0.97893  0.42586  1.0000 0.102501737
H   H84       1.0  0.46476  0.97693  0.42464  1.0000 0.1171330673
H   H85       1.0  0.17268  0.10254  0.38889  1.0000 0.1094224692
H   H86       1.0  0.17225  0.16516  0.32584  1.0000 0.102501737
H   H87       1.0  0.37545  0.02107  0.57414  1.0000 0.102501737
H   H88       1.0  0.46476  0.02307  0.57536  1.0000 0.1171330673
H   H89       1.0  0.82732  0.10254  0.61111  1.0000 0.1094224692
H   H90       1.0  0.82775  0.16516  0.67416  1.0000 0.102501737
H   H91       1.0  0.62455  0.02107  0.42586  1.0000 0.102501737
H   H92       1.0  0.53524  0.02307  0.42464  1.0000 0.1171330673
H   H93       1.0  0.82732  0.89746  0.38889  1.0000 0.1094224692
H   H94       1.0  0.82775  0.83484  0.32584  1.0000 0.102501737
H   H95       1.0  0.62455  0.97893  0.57414  1.0000 0.102501737
H   H96       1.0  0.53524  0.97693  0.57536  1.0000 0.1171330673
H   H97       1.0  0.61140  0.17042  0.89667  1.0000 0.1094224692
H   H98       1.0  0.67502  0.17098  0.83459  1.0000 0.102501737
H   H99       1.0  0.38860  0.17042  0.10333  1.0000 0.1094224692
H   H100      1.0  0.32498  0.17098  0.16541  1.0000 0.102501737
H   H101      1.0  0.61140  0.82958  0.10333  1.0000 0.1094224692
H   H102      1.0  0.67502  0.82902  0.16541  1.0000 0.102501737
H   H103      1.0  0.38860  0.82958  0.89667  1.0000 0.1094224692
H   H104      1.0  0.32498  0.82902  0.83459  1.0000 0.102501737
H   H105      1.0  0.11125  0.39687  0.32845  1.0000 0.1094224692
H   H106      1.0  0.17461  0.33454  0.32839  1.0000 0.102501737
H   H107      1.0  0.92557  0.47993  0.12453  1.0000 0.102501737
H   H108      1.0  0.92439  0.47768  0.03532  1.0000 0.1171330673
H   H109      1.0  0.88875  0.60313  0.32845  1.0000 0.1094224692
H   H110      1.0  0.82539  0.66546  0.32839  1.0000 0.102501737
H   H111      1.0  0.07443  0.52007  0.12453  1.0000 0.102501737
H   H112      1.0  0.07561  0.52232  0.03532  1.0000 0.1171330673
H   H113      1.0  0.11125  0.60313  0.67155  1.0000 0.1094224692
H   H114      1.0  0.17461  0.66546  0.67161  1.0000 0.102501737
H   H115      1.0  0.92557  0.52007  0.87547  1.0000 0.102501737
H   H116      1.0  0.92439  0.52232  0.96468  1.0000 0.1171330673
H   H117      1.0  0.88875  0.39687  0.67155  1.0000 0.1094224692
H   H118      1.0  0.82539  0.33454  0.67161  1.0000 0.102501737
H   H119      1.0  0.07443  0.47993  0.87547  1.0000 0.102501737
H   H120      1.0  0.07561  0.47768  0.96468  1.0000 0.1171330673
H   H121      1.0  0.39746  0.67268  0.88889  1.0000 0.1094224692
H   H122      1.0  0.33484  0.67225  0.82584  1.0000 0.102501737
H   H123      1.0  0.47893  0.87545  0.07414  1.0000 0.102501737
H   H124      1.0  0.47693  0.96476  0.07536  1.0000 0.1171330673
H   H125      1.0  0.60254  0.67268  0.11111  1.0000 0.1094224692
H   H126      1.0  0.66516  0.67225  0.17416  1.0000 0.102501737
H   H127      1.0  0.52107  0.87545  0.92586  1.0000 0.102501737
H   H128      1.0  0.52307  0.96476  0.92464  1.0000 0.1171330673
H   H129      1.0  0.60254  0.32732  0.88889  1.0000 0.1094224692
H   H130      1.0  0.66516  0.32775  0.82584  1.0000 0.102501737
H   H131      1.0  0.52107  0.12455  0.07414  1.0000 0.102501737
H   H132      1.0  0.52307  0.03524  0.07536  1.0000 0.1171330673
H   H133      1.0  0.39746  0.32732  0.11111  1.0000 0.1094224692
H   H134      1.0  0.33484  0.32775  0.17416  1.0000 0.102501737
H   H135      1.0  0.47893  0.12455  0.92586  1.0000 0.102501737
H   H136      1.0  0.47693  0.03524  0.92464  1.0000 0.1171330673
H   H137      1.0  0.67042  0.11140  0.60333  1.0000 0.1094224692
H   H138      1.0  0.67098  0.17502  0.66541  1.0000 0.1094224692
H   H139      1.0  0.67042  0.88860  0.39667  1.0000 0.1094224692
H   H140      1.0  0.67098  0.82498  0.33459  1.0000 0.102501737
H   H141      1.0  0.32958  0.11140  0.39667  1.0000 0.1094224692
H   H142      1.0  0.32902  0.17502  0.33459  1.0000 0.102501737
H   H143      1.0  0.32958  0.88860  0.60333  1.0000 0.1094224692
H   H144      1.0  0.32902  0.82498  0.66541  1.0000 0.102501737
H   H145      1.0  0.25006  0.31430  0.81369  1.0000 0.102501737
H   H146      1.0  0.74994  0.68570  0.81369  1.0000 0.102501737
H   H147      1.0  0.74994  0.31430  0.18631  1.0000 0.102501737
H   H148      1.0  0.25006  0.68570  0.18631  1.0000 0.102501737
H   H149      1.0  0.81430  0.24994  0.31369  1.0000 0.102501737
H   H150      1.0  0.81430  0.75006  0.68631  1.0000 0.102501737
H   H151      1.0  0.18570  0.75006  0.31369  1.0000 0.102501737
H   H152      1.0  0.18570  0.24994  0.68631  1.0000 0.102501737
H   H153      1.0  0.31382  0.81382  0.25000  1.0000 0.102501737
H   H154      1.0  0.68618  0.81382  0.75000  1.0000 0.102501737
H   H155      1.0  0.31382  0.18618  0.75000  1.0000 0.102501737
H   H156      1.0  0.68618  0.18618  0.25000  1.0000 0.102501737
H   H157      1.0  0.75004  0.68644  0.18582  1.0000 0.102501737
H   H158      1.0  0.24996  0.31356  0.18582  1.0000 0.102501737
H   H159      1.0  0.24996  0.68644  0.81418  1.0000 0.102501737
H   H160      1.0  0.75004  0.31356  0.81418  1.0000 0.102501737
H   H161      1.0  0.18644  0.74996  0.68582  1.0000 0.102501737
H   H162      1.0  0.18644  0.25004  0.31418  1.0000 0.102501737
H   H163      1.0  0.81356  0.25004  0.68582  1.0000 0.102501737
H   H164      1.0  0.81356  0.74996  0.31418  1.0000 0.102501737
H   H165      1.0  0.68593  0.18593  0.75000  1.0000 0.102501737
H   H166      1.0  0.31407  0.18593  0.25000  1.0000 0.102501737
H   H167      1.0  0.68593  0.81407  0.25000  1.0000 0.102501737
H   H168      1.0  0.31407  0.81407  0.75000  1.0000 0.102501737
C   C1        1.0  0.11815  0.37719  0.79395  1.0000 -0.0917948422
C   C2        1.0  0.15415  0.34109  0.79394  1.0000 -0.1440633684
C   C3        1.0  0.88185  0.62281  0.79395  1.0000 -0.0917948422
C   C4        1.0  0.84585  0.65891  0.79394  1.0000 -0.1440633684
C   C5        1.0  0.88185  0.37719  0.20605  1.0000 -0.0917948422
C   C6        1.0  0.84585  0.34109  0.20606  1.0000 -0.1440633684
C   C7        1.0  0.11815  0.62281  0.20605  1.0000 -0.0917948422
C   C8        1.0  0.15415  0.65891  0.20606  1.0000 -0.1440633684
C   C9        1.0  0.79497  0.11851  0.37708  1.0000 -0.0917948422
C   C10       1.0  0.79466  0.15433  0.34078  1.0000 -0.1440633684
C   C11       1.0  0.79497  0.88149  0.62292  1.0000 -0.0917948422
C   C12       1.0  0.79466  0.84567  0.65922  1.0000 -0.1440633684
C   C13       1.0  0.20503  0.88149  0.37708  1.0000 -0.0917948422
C   C14       1.0  0.20534  0.84567  0.34078  1.0000 -0.1440633684
C   C15       1.0  0.20503  0.11851  0.62292  1.0000 -0.0917948422
C   C16       1.0  0.20534  0.15433  0.65922  1.0000 -0.1440633684
C   C17       1.0  0.37725  0.79291  0.11806  1.0000 -0.0917948422
C   C18       1.0  0.34130  0.79320  0.15424  1.0000 -0.1440633684
C   C19       1.0  0.54146  0.60458  0.01184  1.0000 0.102501737
C   C20       1.0  0.54217  0.55363  0.01239  1.0000 -0.1812445236
C   C21       1.0  0.62275  0.79291  0.88194  1.0000 -0.0917948422
C   C22       1.0  0.65870  0.79320  0.84576  1.0000 -0.1440633684
C   C23       1.0  0.45854  0.60458  0.98816  1.0000 0.102501737
C   C24       1.0  0.45783  0.55363  0.98761  1.0000 -0.1812445236
C   C25       1.0  0.37725  0.20709  0.88194  1.0000 -0.0917948422
C   C26       1.0  0.34130  0.20680  0.84576  1.0000 -0.1440633684
C   C27       1.0  0.54146  0.39542  0.98816  1.0000 0.102501737
C   C28       1.0  0.54217  0.44637  0.98761  1.0000 -0.1812445236
C   C29       1.0  0.62275  0.20709  0.11806  1.0000 -0.0917948422
C   C30       1.0  0.65870  0.20680  0.15424  1.0000 -0.1440633684
C   C31       1.0  0.45854  0.39542  0.01184  1.0000 0.102501737
C   C32       1.0  0.45783  0.44637  0.01239  1.0000 -0.1812445236
C   C33       1.0  0.87719  0.61815  0.70605  1.0000 -0.0917948422
C   C34       1.0  0.84109  0.65415  0.70606  1.0000 -0.1440633684
C   C35       1.0  0.12281  0.38185  0.70605  1.0000 -0.0917948422
C   C36       1.0  0.15891  0.34585  0.70606  1.0000 -0.1440633684
C   C37       1.0  0.87719  0.38185  0.29395  1.0000 -0.0917948422
C   C38       1.0  0.84109  0.34585  0.29394  1.0000 -0.1440633684
C   C39       1.0  0.12281  0.61815  0.29395  1.0000 -0.0917948422
C   C40       1.0  0.15891  0.65415  0.29394  1.0000 -0.1440633684
C   C41       1.0  0.61851  0.29497  0.12292  1.0000 -0.0917948422
C   C42       1.0  0.65433  0.29466  0.15922  1.0000 -0.1440633684
C   C43       1.0  0.38149  0.29497  0.87708  1.0000 -0.0917948422
C   C44       1.0  0.34567  0.29466  0.84078  1.0000 -0.1440633684
C   C45       1.0  0.38149  0.70503  0.12292  1.0000 -0.0917948422
C   C46       1.0  0.34567  0.70534  0.15922  1.0000 -0.1440633684
C   C47       1.0  0.61851  0.70503  0.87708  1.0000 -0.0917948422
C   C48       1.0  0.65433  0.70534  0.84078  1.0000 -0.1440633684
C   C49       1.0  0.29291  0.87725  0.38194  1.0000 -0.0917948422
C   C50       1.0  0.29320  0.84130  0.34576  1.0000 -0.1440633684
C   C51       1.0  0.10458  0.04146  0.48816  1.0000 0.102501737
C   C52       1.0  0.05363  0.04217  0.48761  1.0000 -0.1812445236
C   C53       1.0  0.29291  0.12275  0.61806  1.0000 -0.0917948422
C   C54       1.0  0.29320  0.15870  0.65424  1.0000 -0.1440633684
C   C55       1.0  0.10458  0.95854  0.51184  1.0000 0.102501737
C   C56       1.0  0.05363  0.95783  0.51239  1.0000 -0.1812445236
C   C57       1.0  0.70709  0.87725  0.61806  1.0000 -0.0917948422
C   C58       1.0  0.70680  0.84130  0.65424  1.0000 -0.1440633684
C   C59       1.0  0.89542  0.04146  0.51184  1.0000 0.102501737
C   C60       1.0  0.94637  0.04217  0.51239  1.0000 -0.1812445236
C   C61       1.0  0.70709  0.12275  0.38194  1.0000 -0.0917948422
C   C62       1.0  0.70680  0.15870  0.34576  1.0000 -0.1440633684
C   C63       1.0  0.89542  0.95854  0.48816  1.0000 0.102501737
C   C64       1.0  0.94637  0.95783  0.48761  1.0000 -0.1812445236
C   C65       1.0  0.88160  0.62278  0.20605  1.0000 -0.0917948422
C   C66       1.0  0.84560  0.65892  0.20606  1.0000 -0.1440633684
C   C67       1.0  0.98870  0.45839  0.39542  1.0000 0.102501737
C   C68       1.0  0.98806  0.45770  0.44634  1.0000 -0.1812445236
C   C69       1.0  0.11840  0.37722  0.20605  1.0000 -0.0917948422
C   C70       1.0  0.15440  0.34108  0.20606  1.0000 -0.1440633684
C   C71       1.0  0.01130  0.54161  0.39541  1.0000 0.102501737
C   C72       1.0  0.01194  0.54230  0.44634  1.0000 -0.1812445236
C   C73       1.0  0.11840  0.62278  0.79395  1.0000 -0.0917948422
C   C74       1.0  0.15440  0.65892  0.79394  1.0000 -0.1440633684
C   C75       1.0  0.01130  0.45839  0.60458  1.0000 0.102501737
C   C76       1.0  0.01194  0.45770  0.55366  1.0000 -0.1812445236
C   C77       1.0  0.88160  0.37722  0.79395  1.0000 -0.0917948422
C   C78       1.0  0.84560  0.34108  0.79394  1.0000 -0.1440633684
C   C79       1.0  0.98870  0.54161  0.60459  1.0000 0.102501737
C   C80       1.0  0.98806  0.54230  0.55366  1.0000 -0.1812445236
C   C81       1.0  0.20709  0.88199  0.62267  1.0000 -0.0917948422
C   C82       1.0  0.20680  0.84582  0.65861  1.0000 -0.1440633684
C   C83       1.0  0.39542  0.98816  0.45854  1.0000 0.102501737
C   C84       1.0  0.44637  0.98760  0.45783  1.0000 -0.1812445236
C   C85       1.0  0.20709  0.11801  0.37733  1.0000 -0.0917948422
C   C86       1.0  0.20680  0.15418  0.34139  1.0000 -0.1440633684
C   C87       1.0  0.39542  0.01184  0.54146  1.0000 0.102501737
C   C88       1.0  0.44637  0.01240  0.54217  1.0000 -0.1812445236
C   C89       1.0  0.79291  0.11801  0.62267  1.0000 -0.0917948422
C   C90       1.0  0.79320  0.15418  0.65861  1.0000 -0.1440633684
C   C91       1.0  0.60458  0.01184  0.45854  1.0000 0.102501737
C   C92       1.0  0.55363  0.01240  0.45783  1.0000 -0.1812445236
C   C93       1.0  0.79291  0.88199  0.37733  1.0000 -0.0917948422
C   C94       1.0  0.79320  0.84582  0.34139  1.0000 -0.1440633684
C   C95       1.0  0.60458  0.98816  0.54146  1.0000 0.102501737
C   C96       1.0  0.55363  0.98760  0.54217  1.0000 -0.1812445236
C   C97       1.0  0.62282  0.20501  0.88153  1.0000 -0.0917948422
C   C98       1.0  0.65912  0.20532  0.84571  1.0000 -0.1440633684
C   C99       1.0  0.37718  0.20501  0.11847  1.0000 -0.0917948422
C   C100      1.0  0.34088  0.20532  0.15429  1.0000 -0.1440633684
C   C101      1.0  0.62282  0.79499  0.11847  1.0000 -0.0917948422
C   C102      1.0  0.65912  0.79468  0.15429  1.0000 -0.1440633684
C   C103      1.0  0.37718  0.79499  0.88153  1.0000 -0.0917948422
C   C104      1.0  0.34088  0.79468  0.84571  1.0000 -0.1440633684
C   C105      1.0  0.12278  0.38160  0.29395  1.0000 -0.0917948422
C   C106      1.0  0.15892  0.34560  0.29394  1.0000 -0.1440633684
C   C107      1.0  0.95839  0.48870  0.10458  1.0000 0.102501737
C   C108      1.0  0.95770  0.48806  0.05366  1.0000 -0.1812445236
C   C109      1.0  0.87722  0.61840  0.29395  1.0000 -0.0917948422
C   C110      1.0  0.84108  0.65440  0.29394  1.0000 -0.1440633684
C   C111      1.0  0.04161  0.51130  0.10459  1.0000 0.102501737
C   C112      1.0  0.04230  0.51194  0.05366  1.0000 -0.1812445236
C   C113      1.0  0.12278  0.61840  0.70605  1.0000 -0.0917948422
C   C114      1.0  0.15892  0.65440  0.70606  1.0000 -0.1440633684
C   C115      1.0  0.95839  0.51130  0.89541  1.0000 0.102501737
C   C116      1.0  0.95770  0.51194  0.94634  1.0000 -0.1812445236
C   C117      1.0  0.87722  0.38160  0.70605  1.0000 -0.0917948422
C   C118      1.0  0.84108  0.34560  0.70606  1.0000 -0.1440633684
C   C119      1.0  0.04161  0.48870  0.89542  1.0000 0.102501737
C   C120      1.0  0.04230  0.48806  0.94634  1.0000 -0.1812445236
C   C121      1.0  0.38199  0.70709  0.87733  1.0000 -0.0917948422
C   C122      1.0  0.34582  0.70680  0.84139  1.0000 -0.1440633684
C   C123      1.0  0.48816  0.89542  0.04146  1.0000 0.102501737
C   C124      1.0  0.48760  0.94637  0.04217  1.0000 -0.1812445236
C   C125      1.0  0.61801  0.70709  0.12267  1.0000 -0.0917948422
C   C126      1.0  0.65418  0.70680  0.15861  1.0000 -0.1440633684
C   C127      1.0  0.51184  0.89542  0.95854  1.0000 0.102501737
C   C128      1.0  0.51240  0.94637  0.95783  1.0000 -0.1812445236
C   C129      1.0  0.61801  0.29291  0.87733  1.0000 -0.0917948422
C   C130      1.0  0.65418  0.29320  0.84139  1.0000 -0.1440633684
C   C131      1.0  0.51184  0.10458  0.04146  1.0000 0.102501737
C   C132      1.0  0.51240  0.05363  0.04217  1.0000 -0.1812445236
C   C133      1.0  0.38199  0.29291  0.12267  1.0000 -0.0917948422
C   C134      1.0  0.34582  0.29320  0.15861  1.0000 -0.1440633684
C   C135      1.0  0.48816  0.10458  0.95854  1.0000 0.102501737
C   C136      1.0  0.48760  0.05363  0.95783  1.0000 -0.1812445236
C   C137      1.0  0.70501  0.12282  0.61847  1.0000 -0.0917948422
C   C138      1.0  0.70532  0.15912  0.65429  1.0000 -0.1440633684
C   C139      1.0  0.70501  0.87718  0.38153  1.0000 -0.0917948422
C   C140      1.0  0.70532  0.84088  0.34571  1.0000 -0.1440633684
C   C141      1.0  0.29499  0.12282  0.38153  1.0000 -0.0917948422
C   C142      1.0  0.29468  0.15912  0.34571  1.0000 -0.1440633684
C   C143      1.0  0.29499  0.87718  0.61847  1.0000 -0.0917948422
C   C144      1.0  0.29468  0.84088  0.65429  1.0000 -0.1440633684
C   C145      1.0  0.00000  0.50000  0.52725  1.0000 0.1094224692
C   C146      1.0  0.00000  0.50000  0.47275  1.0000 0.1094224692
C   C147      1.0  0.52724  0.00000  0.50000  1.0000 0.1094224692
C   C148      1.0  0.47276  0.00000  0.50000  1.0000 0.1094224692
C   C149      1.0  0.50000  0.52724  0.00000  1.0000 0.1094224692
C   C150      1.0  0.50000  0.47276  0.00000  1.0000 0.1094224692
C   C151      1.0  0.00000  0.50000  0.97275  1.0000 0.1094224692
C   C152      1.0  0.00000  0.50000  0.02725  1.0000 0.102501737
C   C153      1.0  0.50000  0.02724  0.00000  1.0000 0.1094224692
C   C154      1.0  0.50000  0.97276  0.00000  1.0000 0.1094224692
C   C155      1.0  0.02724  0.00000  0.50000  1.0000 0.1094224692
C   C156      1.0  0.97276  0.00000  0.50000  1.0000 0.1094224692
C   C157      1.0  0.06377  0.43623  0.75000  1.0000 0.580172324
C   C158      1.0  0.10201  0.39799  0.75000  1.0000 -0.0463116343
C   C159      1.0  0.17503  0.32497  0.75000  1.0000 0.0774452885
C   C160      1.0  0.21345  0.28655  0.75000  1.0000 0.0774452885
C   C161      1.0  0.93623  0.56377  0.75000  1.0000 0.580172324
C   C162      1.0  0.89799  0.60201  0.75000  1.0000 -0.0463116343
C   C163      1.0  0.82497  0.67503  0.75000  1.0000 0.0774452885
C   C164      1.0  0.78655  0.71345  0.75000  1.0000 0.0774452885
C   C165      1.0  0.93623  0.43623  0.25000  1.0000 0.580172324
C   C166      1.0  0.89799  0.39799  0.25000  1.0000 -0.0463116343
C   C167      1.0  0.82497  0.32497  0.25000  1.0000 0.0774452885
C   C168      1.0  0.78655  0.28655  0.25000  1.0000 0.0774452885
C   C169      1.0  0.06377  0.56377  0.25000  1.0000 0.580172324
C   C170      1.0  0.10201  0.60201  0.25000  1.0000 -0.0463116343
C   C171      1.0  0.17503  0.67503  0.25000  1.0000 0.0774452885
C   C172      1.0  0.21345  0.71345  0.25000  1.0000 0.0774452885
C   C173      1.0  0.75140  0.06406  0.43646  1.0000 0.580172324
C   C174      1.0  0.75119  0.10226  0.39811  1.0000 -0.0463116343
C   C175      1.0  0.75058  0.17498  0.32468  1.0000 0.0774452885
C   C176      1.0  0.75031  0.21351  0.28630  1.0000 0.0774452885
C   C177      1.0  0.75140  0.93594  0.56354  1.0000 0.580172324
C   C178      1.0  0.75119  0.89774  0.60189  1.0000 -0.0463116343
C   C179      1.0  0.75058  0.82502  0.67532  1.0000 0.0774452885
C   C180      1.0  0.75031  0.78649  0.71370  1.0000 0.0774452885
C   C181      1.0  0.24860  0.93594  0.43646  1.0000 0.580172324
C   C182      1.0  0.24881  0.89774  0.39811  1.0000 -0.0463116343
C   C183      1.0  0.24942  0.82502  0.32468  1.0000 0.0774452885
C   C184      1.0  0.24969  0.78649  0.28630  1.0000 0.0774452885
C   C185      1.0  0.24860  0.06406  0.56354  1.0000 0.580172324
C   C186      1.0  0.24881  0.10226  0.60189  1.0000 -0.0463116343
C   C187      1.0  0.24942  0.17498  0.67532  1.0000 0.0774452885
C   C188      1.0  0.24969  0.21351  0.71370  1.0000 0.0774452885
C   C189      1.0  0.43594  0.74860  0.06354  1.0000 0.580172324
C   C190      1.0  0.39774  0.74881  0.10189  1.0000 -0.0463116343
C   C191      1.0  0.32502  0.74942  0.17532  1.0000 0.0774452885
C   C192      1.0  0.28649  0.74969  0.21370  1.0000 0.0774452885
C   C193      1.0  0.56406  0.74860  0.93646  1.0000 0.580172324
C   C194      1.0  0.60226  0.74881  0.89811  1.0000 -0.0463116343
C   C195      1.0  0.67498  0.74942  0.82468  1.0000 0.0774452885
C   C196      1.0  0.71351  0.74969  0.78630  1.0000 0.0774452885
C   C197      1.0  0.43594  0.25140  0.93646  1.0000 0.580172324
C   C198      1.0  0.39774  0.25119  0.89811  1.0000 -0.0463116343
C   C199      1.0  0.32502  0.25058  0.82468  1.0000 0.0774452885
C   C200      1.0  0.28649  0.25031  0.78630  1.0000 0.0774452885
C   C201      1.0  0.56406  0.25140  0.06354  1.0000 0.580172324
C   C202      1.0  0.60226  0.25119  0.10189  1.0000 -0.0463116343
C   C203      1.0  0.67498  0.25058  0.17532  1.0000 0.0774452885
C   C204      1.0  0.71351  0.25031  0.21370  1.0000 0.0774452885
C   C205      1.0  0.93619  0.56381  0.25000  1.0000 0.580172324
C   C206      1.0  0.89790  0.60210  0.25000  1.0000 -0.0463116343
C   C207      1.0  0.82480  0.67520  0.25000  1.0000 0.0774452885
C   C208      1.0  0.78633  0.71367  0.25000  1.0000 0.0774452885
C   C209      1.0  0.06381  0.43619  0.25000  1.0000 0.580172324
C   C210      1.0  0.10210  0.39790  0.25000  1.0000 -0.0463116343
C   C211      1.0  0.17520  0.32480  0.25000  1.0000 0.0774452885
C   C212      1.0  0.21367  0.28633  0.25000  1.0000 0.0774452885
C   C213      1.0  0.06381  0.56381  0.75000  1.0000 0.580172324
C   C214      1.0  0.10210  0.60210  0.75000  1.0000 -0.0463116343
C   C215      1.0  0.17520  0.67520  0.75000  1.0000 0.0774452885
C   C216      1.0  0.21367  0.71367  0.75000  1.0000 0.0774452885
C   C217      1.0  0.93619  0.43619  0.75000  1.0000 0.580172324
C   C218      1.0  0.89790  0.39790  0.75000  1.0000 -0.0463116343
C   C219      1.0  0.82480  0.32480  0.75000  1.0000 0.0774452885
C   C220      1.0  0.78633  0.28633  0.75000  1.0000 0.0774452885
C   C221      1.0  0.25141  0.93649  0.56403  1.0000 0.580172324
C   C222      1.0  0.25119  0.89816  0.60221  1.0000 -0.0463116343
C   C223      1.0  0.25059  0.82477  0.67490  1.0000 0.0774452885
C   C224      1.0  0.25032  0.78642  0.71340  1.0000 0.0774452885
C   C225      1.0  0.25141  0.06351  0.43597  1.0000 0.580172324
C   C226      1.0  0.25119  0.10184  0.39779  1.0000 -0.0463116343
C   C227      1.0  0.25059  0.17523  0.32510  1.0000 0.0774452885
C   C228      1.0  0.25032  0.21358  0.28660  1.0000 0.0774452885
C   C229      1.0  0.74859  0.06351  0.56403  1.0000 0.580172324
C   C230      1.0  0.74881  0.10184  0.60221  1.0000 -0.0463116343
C   C231      1.0  0.74941  0.17523  0.67490  1.0000 0.0774452885
C   C232      1.0  0.74968  0.21358  0.71340  1.0000 0.0774452885
C   C233      1.0  0.74859  0.93649  0.43597  1.0000 0.580172324
C   C234      1.0  0.74881  0.89816  0.39779  1.0000 -0.0463116343
C   C235      1.0  0.74941  0.82477  0.32510  1.0000 0.0774452885
C   C236      1.0  0.74968  0.78642  0.28660  1.0000 0.0774452885
C   C237      1.0  0.56351  0.24859  0.93597  1.0000 0.580172324
C   C238      1.0  0.60184  0.24881  0.89779  1.0000 -0.0463116343
C   C239      1.0  0.67523  0.24941  0.82510  1.0000 0.0774452885
C   C240      1.0  0.71358  0.24968  0.78660  1.0000 0.0774452885
C   C241      1.0  0.43649  0.24859  0.06403  1.0000 0.580172324
C   C242      1.0  0.39816  0.24881  0.10221  1.0000 -0.0463116343
C   C243      1.0  0.32477  0.24941  0.17490  1.0000 0.0774452885
C   C244      1.0  0.28642  0.24968  0.21340  1.0000 0.0774452885
C   C245      1.0  0.56351  0.75141  0.06403  1.0000 0.580172324
C   C246      1.0  0.60184  0.75119  0.10221  1.0000 -0.0463116343
C   C247      1.0  0.67523  0.75059  0.17490  1.0000 0.0774452885
C   C248      1.0  0.71358  0.75032  0.21340  1.0000 0.0774452885
C   C249      1.0  0.43649  0.75141  0.93597  1.0000 0.580172324
C   C250      1.0  0.39816  0.75119  0.89779  1.0000 -0.0463116343
C   C251      1.0  0.32477  0.75059  0.82510  1.0000 0.0774452885
C   C252      1.0  0.28642  0.75032  0.78660  1.0000 0.0774452885
C   C253      1.0  0.25001  0.28631  0.78590  1.0000 -0.2000750359
C   C254      1.0  0.74999  0.71369  0.78590  1.0000 -0.2000750359
C   C255      1.0  0.74999  0.28631  0.21410  1.0000 -0.2000750359
C   C256      1.0  0.25001  0.71369  0.21410  1.0000 -0.2000750359
C   C257      1.0  0.78631  0.24999  0.28590  1.0000 -0.2000750359
C   C258      1.0  0.78631  0.75001  0.71410  1.0000 -0.2000750359
C   C259      1.0  0.21369  0.75001  0.28590  1.0000 -0.2000750359
C   C260      1.0  0.21369  0.24999  0.71410  1.0000 -0.2000750359
C   C261      1.0  0.28594  0.78594  0.25000  1.0000 -0.2000750359
C   C262      1.0  0.71406  0.78594  0.75000  1.0000 -0.2000750359
C   C263      1.0  0.28594  0.21406  0.75000  1.0000 -0.2000750359
C   C264      1.0  0.71406  0.21406  0.25000  1.0000 -0.2000750359
C   C265      1.0  0.75000  0.71422  0.21381  1.0000 -0.2000750359
C   C266      1.0  0.25000  0.28578  0.21381  1.0000 -0.2000750359
C   C267      1.0  0.25000  0.71422  0.78619  1.0000 -0.2000750359
C   C268      1.0  0.75000  0.28578  0.78619  1.0000 -0.2000750359
C   C269      1.0  0.21422  0.75000  0.71381  1.0000 -0.2000750359
C   C270      1.0  0.21422  0.25000  0.28619  1.0000 -0.2000750359
C   C271      1.0  0.78578  0.25000  0.71381  1.0000 -0.2000750359
C   C272      1.0  0.78578  0.75000  0.28619  1.0000 -0.2000750359
C   C273      1.0  0.71382  0.21382  0.75000  1.0000 -0.2000750359
C   C274      1.0  0.28618  0.21382  0.25000  1.0000 -0.2000750359
C   C275      1.0  0.71382  0.78618  0.25000  1.0000 -0.2000750359
C   C276      1.0  0.28618  0.78618  0.75000  1.0000 -0.2000750359
N   N1        1.0  0.00000  0.50000  0.62908  1.0000 -0.2162929438
N   N2        1.0  0.00000  0.50000  0.37092  1.0000 -0.2162929438
N   N3        1.0  0.62907  0.00000  0.50000  1.0000 -0.2144670548
N   N4        1.0  0.37093  0.00000  0.50000  1.0000 -0.2144670548
N   N5        1.0  0.50000  0.62907  0.00000  1.0000 -0.2162929438
N   N6        1.0  0.50000  0.37093  0.00000  1.0000 -0.2144670548
N   N7        1.0  0.00000  0.50000  0.87092  1.0000 -0.2162929438
N   N8        1.0  0.00000  0.50000  0.12908  1.0000 -0.2162929438
N   N9        1.0  0.50000  0.12907  0.00000  1.0000 -0.2144670548
N   N10       1.0  0.50000  0.87093  0.00000  1.0000 -0.2162929438
N   N11       1.0  0.12907  0.00000  0.50000  1.0000 -0.2144670548
N   N12       1.0  0.87093  0.00000  0.50000  1.0000 -0.2144670548
O   O1        1.0  0.04804  0.45306  0.70989  1.0000 -0.5108951746
O   O2        1.0  0.95196  0.54694  0.70989  1.0000 -0.5108951746
O   O3        1.0  0.95196  0.45306  0.29011  1.0000 -0.5108951746
O   O4        1.0  0.04804  0.54694  0.29011  1.0000 -0.5108951746
O   O5        1.0  0.71125  0.04783  0.45287  1.0000 -0.5189472573
O   O6        1.0  0.71125  0.95217  0.54713  1.0000 -0.5189472573
O   O7        1.0  0.28875  0.95217  0.45287  1.0000 -0.5189472573
O   O8        1.0  0.28875  0.04783  0.54713  1.0000 -0.5189472573
O   O9        1.0  0.45231  0.70841  0.04740  1.0000 -0.5108951746
O   O10       1.0  0.54769  0.70841  0.95260  1.0000 -0.5108951746
O   O11       1.0  0.45231  0.29159  0.95260  1.0000 -0.5108951746
O   O12       1.0  0.54769  0.29159  0.04740  1.0000 -0.5108951746
O   O13       1.0  0.95306  0.54804  0.79011  1.0000 -0.5108951746
O   O14       1.0  0.04694  0.45196  0.79011  1.0000 -0.5108951746
O   O15       1.0  0.95306  0.45196  0.20989  1.0000 -0.5108951746
O   O16       1.0  0.04694  0.54804  0.20989  1.0000 -0.5108951746
O   O17       1.0  0.54783  0.21125  0.04713  1.0000 -0.5189472573
O   O18       1.0  0.45217  0.21125  0.95287  1.0000 -0.5189472573
O   O19       1.0  0.45217  0.78875  0.04713  1.0000 -0.5189472573
O   O20       1.0  0.54783  0.78875  0.95287  1.0000 -0.5189472573
O   O21       1.0  0.20841  0.95231  0.45260  1.0000 -0.5108951746
O   O22       1.0  0.20841  0.04769  0.54740  1.0000 -0.5108951746
O   O23       1.0  0.79159  0.95231  0.54740  1.0000 -0.5108951746
O   O24       1.0  0.79159  0.04769  0.45260  1.0000 -0.5108951746
O   O25       1.0  0.95280  0.54785  0.29020  1.0000 -0.5108951746
O   O26       1.0  0.04720  0.45215  0.29020  1.0000 -0.5108951746
O   O27       1.0  0.04720  0.54785  0.70980  1.0000 -0.5108951746
O   O28       1.0  0.95280  0.45215  0.70980  1.0000 -0.5108951746
O   O29       1.0  0.29159  0.95263  0.54768  1.0000 -0.5108951746
O   O30       1.0  0.29159  0.04737  0.45232  1.0000 -0.5108951746
O   O31       1.0  0.70841  0.04737  0.54768  1.0000 -0.5108951746
O   O32       1.0  0.70841  0.95263  0.45232  1.0000 -0.5108951746
O   O33       1.0  0.54711  0.28874  0.95220  1.0000 -0.5189472573
O   O34       1.0  0.45289  0.28874  0.04780  1.0000 -0.5189472573
O   O35       1.0  0.54711  0.71126  0.04780  1.0000 -0.5189472573
O   O36       1.0  0.45289  0.71126  0.95220  1.0000 -0.5189472573
O   O37       1.0  0.04785  0.45280  0.20980  1.0000 -0.5108951746
O   O38       1.0  0.95215  0.54720  0.20980  1.0000 -0.5108951746
O   O39       1.0  0.04785  0.54720  0.79020  1.0000 -0.5108951746
O   O40       1.0  0.95215  0.45280  0.79020  1.0000 -0.5108951746
O   O41       1.0  0.45263  0.79159  0.95232  1.0000 -0.5108951746
O   O42       1.0  0.54737  0.79159  0.04768  1.0000 -0.5108951746
O   O43       1.0  0.54737  0.20841  0.95232  1.0000 -0.5108951746
O   O44       1.0  0.45263  0.20841  0.04768  1.0000 -0.5108951746
O   O45       1.0  0.78874  0.04711  0.54780  1.0000 -0.5189472573
O   O46       1.0  0.78874  0.95289  0.45220  1.0000 -0.5189472573
O   O47       1.0  0.21126  0.04711  0.45220  1.0000 -0.5189472573
O   O48       1.0  0.21126  0.95289  0.54780  1.0000 -0.5189472573
