# DDEC6 charges by PACMAN v1.1 (https://github.com/mtap-research/PACMAN-charge/)
data_2012[Co][nan]3[ASR]13
_chemical_formula_sum              "Co18 H144 C180 N12 O66"
_cell_length_a       24.65
_cell_length_b       24.65
_cell_length_c       19.73
_cell_angle_alpha    90
_cell_angle_beta     90
_cell_angle_gamma    120

_symmetry_space_group_name_H-M    "P 1"
_symmetry_Int_Tables_number       1

loop_
  _symmetry_equiv_pos_as_xyz
  'x, y, z'

loop_
  _atom_site_type_symbol
  _atom_site_label
  _atom_site_symmetry_multiplicity
  _atom_site_fract_x
  _atom_site_fract_y
  _atom_site_fract_z
  _atom_site_occupancy
  _atom_site_charge
Co  Co1       1.0  0.19635  0.16006  0.94529  1.0000 1.0482164084
Co  Co2       1.0  0.03629  0.19635  0.11196  1.0000 1.0482164084
Co  Co3       1.0  0.83994  0.03629  0.27862  1.0000 1.0482164084
Co  Co4       1.0  0.80365  0.83994  0.44529  1.0000 1.0482164084
Co  Co5       1.0  0.96371  0.80365  0.61196  1.0000 1.0482164084
Co  Co6       1.0  0.16006  0.96371  0.77862  1.0000 1.0482164084
Co  Co7       1.0  0.21398  0.10932  0.78856  1.0000 1.080876714
Co  Co8       1.0  0.10466  0.21398  0.95523  1.0000 1.080876714
Co  Co9       1.0  0.89068  0.10466  0.12189  1.0000 1.080876714
Co  Co10      1.0  0.78602  0.89068  0.28856  1.0000 1.080876714
Co  Co11      1.0  0.89534  0.78602  0.45523  1.0000 1.080876714
Co  Co12      1.0  0.10932  0.89534  0.62189  1.0000 1.080876714
Co  Co13      1.0  0.33207  0.24343  0.88504  1.0000 0.9580555021
Co  Co14      1.0  0.08864  0.33207  0.05171  1.0000 0.9580555021
Co  Co15      1.0  0.75657  0.08864  0.21837  1.0000 0.9580555021
Co  Co16      1.0  0.66793  0.75657  0.38504  1.0000 0.9580555021
Co  Co17      1.0  0.91136  0.66793  0.55171  1.0000 0.9580555021
Co  Co18      1.0  0.24343  0.91136  0.71837  1.0000 0.9580555021
H   H1        1.0  0.25610  0.12730  0.89080  1.0000 0.3837531069
H   H2        1.0  0.12880  0.25610  0.05747  1.0000 0.3837531069
H   H3        1.0  0.87270  0.12880  0.22413  1.0000 0.3837531069
H   H4        1.0  0.74390  0.87270  0.39080  1.0000 0.3837531069
H   H5        1.0  0.87120  0.74390  0.55747  1.0000 0.3837531069
H   H6        1.0  0.12730  0.87120  0.72413  1.0000 0.3837531069
H   H7        1.0  0.01780  0.09940  0.81330  1.0000 0.1669181148
H   H8        1.0  0.91840  0.01780  0.97997  1.0000 0.1669181148
H   H9        1.0  0.90060  0.91840  0.14663  1.0000 0.1669181148
H   H10       1.0  0.98220  0.90060  0.31330  1.0000 0.1669181148
H   H11       1.0  0.08160  0.98220  0.47997  1.0000 0.1669181148
H   H12       1.0  0.09940  0.08160  0.64663  1.0000 0.1669181148
H   H13       1.0  0.05420  0.14440  0.75070  1.0000 0.1580408389
H   H14       1.0  0.90980  0.05420  0.91737  1.0000 0.152545662
H   H15       1.0  0.85560  0.90980  0.08403  1.0000 0.1580408389
H   H16       1.0  0.94580  0.85560  0.25070  1.0000 0.1580408389
H   H17       1.0  0.09020  0.94580  0.41737  1.0000 0.1580408389
H   H18       1.0  0.14440  0.09020  0.58403  1.0000 0.1580408389
H   H19       1.0  0.04750  0.17360  0.82050  1.0000 0.152545662
H   H20       1.0  0.87390  0.04750  0.98717  1.0000 0.152545662
H   H21       1.0  0.82640  0.87390  0.15383  1.0000 0.152545662
H   H22       1.0  0.95250  0.82640  0.32050  1.0000 0.152545662
H   H23       1.0  0.12610  0.95250  0.48717  1.0000 0.152545662
H   H24       1.0  0.17360  0.12610  0.65383  1.0000 0.152545662
H   H25       1.0  0.09270  0.04180  0.07390  1.0000 0.1580408389
H   H26       1.0  0.05090  0.09270  0.24057  1.0000 0.1580408389
H   H27       1.0  0.95820  0.05090  0.40723  1.0000 0.1580408389
H   H28       1.0  0.90730  0.95820  0.57390  1.0000 0.1580408389
H   H29       1.0  0.94910  0.90730  0.74057  1.0000 0.1580408389
H   H30       1.0  0.04180  0.94910  0.90723  1.0000 0.1580408389
H   H31       1.0  0.12540  0.08110  0.14110  1.0000 0.152545662
H   H32       1.0  0.04430  0.12540  0.30777  1.0000 0.152545662
H   H33       1.0  0.91890  0.04430  0.47443  1.0000 0.152545662
H   H34       1.0  0.87460  0.91890  0.64110  1.0000 0.152545662
H   H35       1.0  0.95570  0.87460  0.80777  1.0000 0.152545662
H   H36       1.0  0.08110  0.95570  0.97443  1.0000 0.152545662
H   H37       1.0  0.16600  0.09220  0.07380  1.0000 0.152545662
H   H38       1.0  0.07380  0.16600  0.24047  1.0000 0.152545662
H   H39       1.0  0.90780  0.07380  0.40713  1.0000 0.152545662
H   H40       1.0  0.83400  0.90780  0.57380  1.0000 0.152545662
H   H41       1.0  0.92620  0.83400  0.74047  1.0000 0.152545662
H   H42       1.0  0.09220  0.92620  0.90713  1.0000 0.152545662
H   H43       1.0  0.28440  0.39520  0.91800  1.0000 0.1580408389
H   H44       1.0  0.88920  0.28440  0.08467  1.0000 0.1580408389
H   H45       1.0  0.60480  0.88920  0.25133  1.0000 0.1580408389
H   H46       1.0  0.71560  0.60480  0.41800  1.0000 0.1580408389
H   H47       1.0  0.11080  0.71560  0.58467  1.0000 0.1580408389
H   H48       1.0  0.39520  0.11080  0.75133  1.0000 0.1580408389
H   H49       1.0  0.31690  0.36600  0.87200  1.0000 0.143645295
H   H50       1.0  0.95090  0.31690  0.03867  1.0000 0.143645295
H   H51       1.0  0.63400  0.95090  0.20533  1.0000 0.143645295
H   H52       1.0  0.68310  0.63400  0.37200  1.0000 0.143645295
H   H53       1.0  0.04910  0.68310  0.53867  1.0000 0.143645295
H   H54       1.0  0.36600  0.04910  0.70533  1.0000 0.143645295
H   H55       1.0  0.33420  0.37930  0.95070  1.0000 0.130324309
H   H56       1.0  0.95490  0.33420  0.11737  1.0000 0.130324309
H   H57       1.0  0.62070  0.95490  0.28403  1.0000 0.130324309
H   H58       1.0  0.66580  0.62070  0.45070  1.0000 0.130324309
H   H59       1.0  0.04510  0.66580  0.61737  1.0000 0.130324309
H   H60       1.0  0.37930  0.04510  0.78403  1.0000 0.130324309
H   H61       1.0  0.42900  0.21840  0.05110  1.0000 0.1201672795
H   H62       1.0  0.21060  0.42900  0.21777  1.0000 0.1201672795
H   H63       1.0  0.78160  0.21060  0.38443  1.0000 0.1201672795
H   H64       1.0  0.57100  0.78160  0.55110  1.0000 0.1201672795
H   H65       1.0  0.78940  0.57100  0.71777  1.0000 0.1201672795
H   H66       1.0  0.21840  0.78940  0.88443  1.0000 0.1201672795
H   H67       1.0  0.47230  0.18860  0.13700  1.0000 0.1201672795
H   H68       1.0  0.28370  0.47230  0.30367  1.0000 0.1201672795
H   H69       1.0  0.81140  0.28370  0.47033  1.0000 0.1201672795
H   H70       1.0  0.52770  0.81140  0.63700  1.0000 0.1201672795
H   H71       1.0  0.71630  0.52770  0.80367  1.0000 0.1201672795
H   H72       1.0  0.18860  0.71630  0.97033  1.0000 0.1201672795
H   H73       1.0  0.29980  0.06560  0.20590  1.0000 0.1201672795
H   H74       1.0  0.23420  0.29980  0.37257  1.0000 0.1201672795
H   H75       1.0  0.93440  0.23420  0.53923  1.0000 0.1201672795
H   H76       1.0  0.70020  0.93440  0.70590  1.0000 0.1201672795
H   H77       1.0  0.76580  0.70020  0.87257  1.0000 0.1201672795
H   H78       1.0  0.06560  0.76580  0.03923  1.0000 0.1201672795
H   H79       1.0  0.25700  0.09730  0.12030  1.0000 0.130324309
H   H80       1.0  0.15970  0.25700  0.28697  1.0000 0.130324309
H   H81       1.0  0.90270  0.15970  0.45363  1.0000 0.130324309
H   H82       1.0  0.74300  0.90270  0.62030  1.0000 0.130324309
H   H83       1.0  0.84030  0.74300  0.78697  1.0000 0.130324309
H   H84       1.0  0.09730  0.84030  0.95363  1.0000 0.130324309
H   H85       1.0  0.49740  0.11950  0.18130  1.0000 0.1201672795
H   H86       1.0  0.37790  0.49740  0.34797  1.0000 0.1201672795
H   H87       1.0  0.88050  0.37790  0.51463  1.0000 0.1201672795
H   H88       1.0  0.50260  0.88050  0.68130  1.0000 0.1201672795
H   H89       1.0  0.62210  0.50260  0.84797  1.0000 0.1201672795
H   H90       1.0  0.11950  0.62210  0.01463  1.0000 0.1201672795
H   H91       1.0  0.47930  0.04280  0.36690  1.0000 0.1201672795
H   H92       1.0  0.43650  0.47930  0.53357  1.0000 0.1201672795
H   H93       1.0  0.95720  0.43650  0.70023  1.0000 0.1201672795
H   H94       1.0  0.52070  0.95720  0.86690  1.0000 0.1201672795
H   H95       1.0  0.56350  0.52070  0.03357  1.0000 0.1201672795
H   H96       1.0  0.04280  0.56350  0.20023  1.0000 0.1201672795
H   H97       1.0  0.43510  0.05230  0.46770  1.0000 0.1201672795
H   H98       1.0  0.38280  0.43510  0.63437  1.0000 0.1201672795
H   H99       1.0  0.94770  0.38280  0.80103  1.0000 0.1201672795
H   H100      1.0  0.56490  0.94770  0.96770  1.0000 0.1201672795
H   H101      1.0  0.61720  0.56490  0.13437  1.0000 0.1201672795
H   H102      1.0  0.05230  0.61720  0.30103  1.0000 0.1201672795
H   H103      1.0  0.37110  0.01070  0.56120  1.0000 0.1201672795
H   H104      1.0  0.36040  0.37110  0.72787  1.0000 0.1201672795
H   H105      1.0  0.98930  0.36040  0.89453  1.0000 0.1201672795
H   H106      1.0  0.62890  0.98930  0.06120  1.0000 0.1201672795
H   H107      1.0  0.63960  0.62890  0.22787  1.0000 0.1201672795
H   H108      1.0  0.01070  0.63960  0.39453  1.0000 0.1201672795
H   H109      1.0  0.21830  0.95460  0.44220  1.0000 0.130324309
H   H110      1.0  0.26370  0.21830  0.60887  1.0000 0.130324309
H   H111      1.0  0.04540  0.26370  0.77553  1.0000 0.130324309
H   H112      1.0  0.78170  0.04540  0.94220  1.0000 0.130324309
H   H113      1.0  0.73630  0.78170  0.10887  1.0000 0.130324309
H   H114      1.0  0.95460  0.73630  0.27553  1.0000 0.130324309
H   H115      1.0  0.28260  0.99720  0.34780  1.0000 0.1201672795
H   H116      1.0  0.28540  0.28260  0.51447  1.0000 0.1201672795
H   H117      1.0  0.00280  0.28540  0.68113  1.0000 0.1201672795
H   H118      1.0  0.71740  0.00280  0.84780  1.0000 0.1201672795
H   H119      1.0  0.71460  0.71740  0.01447  1.0000 0.1201672795
H   H120      1.0  0.99720  0.71460  0.18113  1.0000 0.1201672795
H   H121      1.0  0.55450  0.08070  0.15750  1.0000 0.130324309
H   H122      1.0  0.47380  0.55450  0.32417  1.0000 0.130324309
H   H123      1.0  0.91930  0.47380  0.49083  1.0000 0.130324309
H   H124      1.0  0.44550  0.91930  0.65750  1.0000 0.130324309
H   H125      1.0  0.52620  0.44550  0.82417  1.0000 0.130324309
H   H126      1.0  0.08070  0.52620  0.99083  1.0000 0.130324309
H   H127      1.0  0.64980  0.08360  0.14080  1.0000 0.1112369892
H   H128      1.0  0.56620  0.64980  0.30747  1.0000 0.1112369892
H   H129      1.0  0.91640  0.56620  0.47413  1.0000 0.1112369892
H   H130      1.0  0.35020  0.91640  0.64080  1.0000 0.1112369892
H   H131      1.0  0.43380  0.35020  0.80747  1.0000 0.1112369892
H   H132      1.0  0.08360  0.43380  0.97413  1.0000 0.1112369892
H   H133      1.0  0.67360  0.08160  0.33720  1.0000 0.1201672795
H   H134      1.0  0.59200  0.67360  0.50387  1.0000 0.1201672795
H   H135      1.0  0.91840  0.59200  0.67053  1.0000 0.1201672795
H   H136      1.0  0.32640  0.91840  0.83720  1.0000 0.1201672795
H   H137      1.0  0.40800  0.32640  0.00387  1.0000 0.1201672795
H   H138      1.0  0.08160  0.40800  0.17053  1.0000 0.1201672795
H   H139      1.0  0.58030  0.07840  0.35930  1.0000 0.130324309
H   H140      1.0  0.50190  0.58030  0.52597  1.0000 0.130324309
H   H141      1.0  0.92160  0.50190  0.69263  1.0000 0.130324309
H   H142      1.0  0.41970  0.92160  0.85930  1.0000 0.130324309
H   H143      1.0  0.49810  0.41970  0.02597  1.0000 0.130324309
H   H144      1.0  0.07840  0.49810  0.19263  1.0000 0.130324309
C   C1        1.0  0.11323  0.14592  0.82482  1.0000 0.7118538677
C   C2        1.0  0.96731  0.11323  0.99149  1.0000 0.7118538677
C   C3        1.0  0.85408  0.96731  0.15815  1.0000 0.7118538677
C   C4        1.0  0.88677  0.85408  0.32482  1.0000 0.7118538677
C   C5        1.0  0.03269  0.88677  0.49149  1.0000 0.7118538677
C   C6        1.0  0.14592  0.03269  0.65815  1.0000 0.7118538677
C   C7        1.0  0.05293  0.14034  0.80018  1.0000 -0.5766906282
C   C8        1.0  0.91259  0.05293  0.96685  1.0000 -0.5766906282
C   C9        1.0  0.85966  0.91259  0.13351  1.0000 -0.5766906282
C   C10       1.0  0.94707  0.85966  0.30018  1.0000 -0.5766906282
C   C11       1.0  0.08741  0.94707  0.46685  1.0000 -0.5766906282
C   C12       1.0  0.14034  0.08741  0.63351  1.0000 -0.5766906282
C   C13       1.0  0.11060  0.13266  0.06917  1.0000 0.7218851307
C   C14       1.0  0.97794  0.11060  0.23584  1.0000 0.7218851307
C   C15       1.0  0.86734  0.97794  0.40250  1.0000 0.7218851307
C   C16       1.0  0.88940  0.86734  0.56917  1.0000 0.7218851307
C   C17       1.0  0.02206  0.88940  0.73584  1.0000 0.7218851307
C   C18       1.0  0.13266  0.02206  0.90250  1.0000 0.7218851307
C   C19       1.0  0.12492  0.08253  0.09147  1.0000 -0.587703689
C   C20       1.0  0.04239  0.12492  0.25814  1.0000 -0.587703689
C   C21       1.0  0.91747  0.04239  0.42480  1.0000 -0.587703689
C   C22       1.0  0.87508  0.91747  0.59147  1.0000 -0.587703689
C   C23       1.0  0.95761  0.87508  0.75814  1.0000 -0.587703689
C   C24       1.0  0.08253  0.95761  0.92480  1.0000 -0.587703689
C   C25       1.0  0.24808  0.30056  0.93425  1.0000 0.7218851307
C   C26       1.0  0.94752  0.24808  0.10092  1.0000 0.7218851307
C   C27       1.0  0.69944  0.94752  0.26758  1.0000 0.7218851307
C   C28       1.0  0.75192  0.69944  0.43425  1.0000 0.7218851307
C   C29       1.0  0.05248  0.75192  0.60092  1.0000 0.7218851307
C   C30       1.0  0.30056  0.05248  0.76758  1.0000 0.7218851307
C   C31       1.0  0.30052  0.36605  0.91719  1.0000 -0.5720967591
C   C32       1.0  0.93447  0.30052  0.08386  1.0000 -0.5720967591
C   C33       1.0  0.63395  0.93447  0.25052  1.0000 -0.5720967591
C   C34       1.0  0.69948  0.63395  0.41719  1.0000 -0.5720967591
C   C35       1.0  0.06553  0.69948  0.58386  1.0000 -0.5720967591
C   C36       1.0  0.36605  0.06553  0.75052  1.0000 -0.5720967591
C   C37       1.0  0.31011  0.17704  0.01866  1.0000 0.5899070312
C   C38       1.0  0.13307  0.31011  0.18533  1.0000 0.5899070312
C   C39       1.0  0.82296  0.13307  0.35199  1.0000 0.5899070312
C   C40       1.0  0.68989  0.82296  0.51866  1.0000 0.5899070312
C   C41       1.0  0.86693  0.68989  0.68533  1.0000 0.5899070312
C   C42       1.0  0.17704  0.86693  0.85199  1.0000 0.5899070312
C   C43       1.0  0.33866  0.15984  0.07620  1.0000 -0.0274319143
C   C44       1.0  0.17882  0.33866  0.24287  1.0000 -0.0274319143
C   C45       1.0  0.84016  0.17882  0.40953  1.0000 -0.0274319143
C   C46       1.0  0.66134  0.84016  0.57620  1.0000 -0.0274319143
C   C47       1.0  0.82118  0.66134  0.74287  1.0000 -0.0274319143
C   C48       1.0  0.15984  0.82118  0.90953  1.0000 -0.0274319143
C   C49       1.0  0.40239  0.18689  0.08228  1.0000 -0.1001997597
C   C50       1.0  0.21550  0.40239  0.24895  1.0000 -0.1001997597
C   C51       1.0  0.81311  0.21550  0.41561  1.0000 -0.1001997597
C   C52       1.0  0.59761  0.81311  0.58228  1.0000 -0.1001997597
C   C53       1.0  0.78450  0.59761  0.74895  1.0000 -0.1001997597
C   C54       1.0  0.18689  0.78450  0.91561  1.0000 -0.1001997597
C   C55       1.0  0.42804  0.16886  0.13297  1.0000 -0.1553824783
C   C56       1.0  0.25918  0.42804  0.29964  1.0000 -0.1553824783
C   C57       1.0  0.83114  0.25918  0.46630  1.0000 -0.1553824783
C   C58       1.0  0.57196  0.83114  0.63297  1.0000 -0.1553824783
C   C59       1.0  0.74082  0.57196  0.79964  1.0000 -0.1553824783
C   C60       1.0  0.16886  0.74082  0.96630  1.0000 -0.1553824783
C   C61       1.0  0.39041  0.12219  0.17844  1.0000 0.0521128926
C   C62       1.0  0.26822  0.39041  0.34511  1.0000 0.0521128926
C   C63       1.0  0.87781  0.26822  0.51177  1.0000 0.0521128926
C   C64       1.0  0.60959  0.87781  0.67844  1.0000 0.0521128926
C   C65       1.0  0.73178  0.60959  0.84511  1.0000 0.0521128926
C   C66       1.0  0.12219  0.73178  0.01177  1.0000 0.0521128926
C   C67       1.0  0.32646  0.09637  0.17402  1.0000 -0.1318375695
C   C68       1.0  0.23009  0.32646  0.34069  1.0000 -0.1318375695
C   C69       1.0  0.90363  0.23009  0.50735  1.0000 -0.1318375695
C   C70       1.0  0.67354  0.90363  0.67402  1.0000 -0.1318375695
C   C71       1.0  0.76991  0.67354  0.84069  1.0000 -0.1318375695
C   C72       1.0  0.09637  0.76991  0.00735  1.0000 -0.1318375695
C   C73       1.0  0.30116  0.11536  0.12304  1.0000 -0.1001997597
C   C74       1.0  0.18580  0.30116  0.28971  1.0000 -0.1001997597
C   C75       1.0  0.88464  0.18580  0.45637  1.0000 -0.1001997597
C   C76       1.0  0.69884  0.88464  0.62304  1.0000 -0.1001997597
C   C77       1.0  0.81420  0.69884  0.78971  1.0000 -0.1001997597
C   C78       1.0  0.11536  0.81420  0.95637  1.0000 -0.1001997597
C   C79       1.0  0.41748  0.10040  0.23219  1.0000 0.2195258523
C   C80       1.0  0.31708  0.41748  0.39886  1.0000 0.2195258523
C   C81       1.0  0.89960  0.31708  0.56552  1.0000 0.2195258523
C   C82       1.0  0.58252  0.89960  0.73219  1.0000 0.2195258523
C   C83       1.0  0.68292  0.58252  0.89886  1.0000 0.2195258523
C   C84       1.0  0.10040  0.68292  0.06552  1.0000 0.2195258523
C   C85       1.0  0.47450  0.10263  0.22197  1.0000 -0.2487545732
C   C86       1.0  0.37187  0.47450  0.38864  1.0000 -0.2487545732
C   C87       1.0  0.89737  0.37187  0.55530  1.0000 -0.2487545732
C   C88       1.0  0.52550  0.89737  0.72197  1.0000 -0.2487545732
C   C89       1.0  0.62813  0.52550  0.88864  1.0000 -0.2487545732
C   C90       1.0  0.10263  0.62813  0.05530  1.0000 -0.2487545732
C   C91       1.0  0.49740  0.07980  0.27211  1.0000 0.097871574
C   C92       1.0  0.41760  0.49740  0.43878  1.0000 0.097871574
C   C93       1.0  0.92020  0.41760  0.60544  1.0000 0.097871574
C   C94       1.0  0.50260  0.92020  0.77211  1.0000 0.097871574
C   C95       1.0  0.58240  0.50260  0.93878  1.0000 0.097871574
C   C96       1.0  0.07980  0.58240  0.10544  1.0000 0.097871574
C   C97       1.0  0.46365  0.05677  0.33095  1.0000 -0.2487545732
C   C98       1.0  0.40688  0.46365  0.49762  1.0000 -0.2487545732
C   C99       1.0  0.94323  0.40688  0.66428  1.0000 -0.2487545732
C   C100      1.0  0.53635  0.94323  0.83095  1.0000 -0.2487545732
C   C101      1.0  0.59312  0.53635  0.99762  1.0000 -0.2487545732
C   C102      1.0  0.05677  0.59312  0.16428  1.0000 -0.2487545732
C   C103      1.0  0.40541  0.05419  0.33707  1.0000 0.2195258523
C   C104      1.0  0.35122  0.40541  0.50374  1.0000 0.2195258523
C   C105      1.0  0.94581  0.35122  0.67040  1.0000 0.2195258523
C   C106      1.0  0.59459  0.94581  0.83707  1.0000 0.2195258523
C   C107      1.0  0.64878  0.59459  0.00374  1.0000 0.2195258523
C   C108      1.0  0.05419  0.64878  0.17040  1.0000 0.2195258523
C   C109      1.0  0.36571  0.02809  0.39802  1.0000 0.0439929611
C   C110      1.0  0.33762  0.36571  0.56469  1.0000 0.0439929611
C   C111      1.0  0.97191  0.33762  0.73135  1.0000 0.0439929611
C   C112      1.0  0.63429  0.97191  0.89802  1.0000 0.0439929611
C   C113      1.0  0.66238  0.63429  0.06469  1.0000 0.0439929611
C   C114      1.0  0.02809  0.66238  0.23135  1.0000 0.0439929611
C   C115      1.0  0.39094  0.03222  0.46234  1.0000 -0.1494331897
C   C116      1.0  0.35872  0.39094  0.62901  1.0000 -0.1494331897
C   C117      1.0  0.96778  0.35872  0.79567  1.0000 -0.1494331897
C   C118      1.0  0.60906  0.96778  0.96234  1.0000 -0.1494331897
C   C119      1.0  0.64128  0.60906  0.12901  1.0000 -0.1494331897
C   C120      1.0  0.03222  0.64128  0.29567  1.0000 -0.1494331897
C   C121      1.0  0.35306  0.00779  0.51788  1.0000 -0.1158021232
C   C122      1.0  0.34527  0.35306  0.68455  1.0000 -0.1158021232
C   C123      1.0  0.99221  0.34527  0.85121  1.0000 -0.1158021232
C   C124      1.0  0.64694  0.99221  0.01788  1.0000 -0.1158021232
C   C125      1.0  0.65473  0.64694  0.18455  1.0000 -0.1158021232
C   C126      1.0  0.00779  0.65473  0.35121  1.0000 -0.1158021232
C   C127      1.0  0.28779  0.97845  0.51115  1.0000 -0.0159714638
C   C128      1.0  0.30934  0.28779  0.67782  1.0000 -0.0159714638
C   C129      1.0  0.02155  0.30934  0.84448  1.0000 -0.0159714638
C   C130      1.0  0.71221  0.02155  0.01115  1.0000 -0.0159714638
C   C131      1.0  0.69066  0.71221  0.17782  1.0000 -0.0159714638
C   C132      1.0  0.97845  0.69066  0.34448  1.0000 -0.0159714638
C   C133      1.0  0.26252  0.97462  0.44734  1.0000 -0.1001997597
C   C134      1.0  0.28790  0.26252  0.61401  1.0000 -0.1001997597
C   C135      1.0  0.02538  0.28790  0.78067  1.0000 -0.1001997597
C   C136      1.0  0.73748  0.02538  0.94734  1.0000 -0.1001997597
C   C137      1.0  0.71210  0.73748  0.11401  1.0000 -0.1001997597
C   C138      1.0  0.97462  0.71210  0.28067  1.0000 -0.1001997597
C   C139      1.0  0.30062  0.99952  0.39103  1.0000 -0.1318375695
C   C140      1.0  0.30110  0.30062  0.55770  1.0000 -0.1318375695
C   C141      1.0  0.00048  0.30110  0.72436  1.0000 -0.1318375695
C   C142      1.0  0.69938  0.00048  0.89103  1.0000 -0.1318375695
C   C143      1.0  0.69890  0.69938  0.05770  1.0000 -0.1318375695
C   C144      1.0  0.99952  0.69890  0.22436  1.0000 -0.1318375695
C   C145      1.0  0.24618  0.95234  0.57306  1.0000 0.5899070312
C   C146      1.0  0.29384  0.24618  0.73973  1.0000 0.5899070312
C   C147      1.0  0.04766  0.29384  0.90639  1.0000 0.5899070312
C   C148      1.0  0.75382  0.04766  0.07306  1.0000 0.5899070312
C   C149      1.0  0.70616  0.75382  0.23973  1.0000 0.5899070312
C   C150      1.0  0.95234  0.70616  0.40639  1.0000 0.5899070312
C   C151      1.0  0.55697  0.08046  0.26055  1.0000 0.1112369892
C   C152      1.0  0.47651  0.55697  0.42722  1.0000 0.1112369892
C   C153      1.0  0.91954  0.47651  0.59388  1.0000 0.1112369892
C   C154      1.0  0.44303  0.91954  0.76055  1.0000 0.1112369892
C   C155      1.0  0.52349  0.44303  0.92722  1.0000 0.1112369892
C   C156      1.0  0.08046  0.52349  0.09388  1.0000 0.1112369892
C   C157      1.0  0.57841  0.08116  0.19544  1.0000 -0.2008245925
C   C158      1.0  0.49725  0.57841  0.36211  1.0000 -0.2008245925
C   C159      1.0  0.91884  0.49725  0.52877  1.0000 -0.2008245925
C   C160      1.0  0.42159  0.91884  0.69544  1.0000 -0.2008245925
C   C161      1.0  0.50275  0.42159  0.86211  1.0000 -0.2008245925
C   C162      1.0  0.08116  0.50275  0.02877  1.0000 -0.2008245925
C   C163      1.0  0.63536  0.08259  0.18572  1.0000 0.097871574
C   C164      1.0  0.55277  0.63536  0.35239  1.0000 0.097871574
C   C165      1.0  0.91741  0.55277  0.51905  1.0000 0.097871574
C   C166      1.0  0.36464  0.91741  0.68572  1.0000 0.097871574
C   C167      1.0  0.44723  0.36464  0.85239  1.0000 0.097871574
C   C168      1.0  0.08259  0.44723  0.01905  1.0000 0.097871574
C   C169      1.0  0.64897  0.08136  0.30014  1.0000 0.0913898557
C   C170      1.0  0.56761  0.64897  0.46681  1.0000 0.0913898557
C   C171      1.0  0.91864  0.56761  0.63347  1.0000 0.0913898557
C   C172      1.0  0.35103  0.91864  0.80014  1.0000 0.0913898557
C   C173      1.0  0.43239  0.35103  0.96681  1.0000 0.0913898557
C   C174      1.0  0.08136  0.43239  0.13347  1.0000 0.0913898557
C   C175      1.0  0.59352  0.07983  0.31373  1.0000 -0.2008245925
C   C176      1.0  0.51369  0.59352  0.48040  1.0000 -0.2008245925
C   C177      1.0  0.92017  0.51369  0.64706  1.0000 -0.2008245925
C   C178      1.0  0.40648  0.92017  0.81373  1.0000 -0.2008245925
C   C179      1.0  0.48631  0.40648  0.98040  1.0000 -0.2008245925
C   C180      1.0  0.07983  0.48631  0.14706  1.0000 -0.2008245925
N   N1        1.0  0.38367  0.07673  0.28852  1.0000 -0.3287382017
N   N2        1.0  0.30694  0.38367  0.45519  1.0000 -0.3287382017
N   N3        1.0  0.92327  0.30694  0.62185  1.0000 -0.3287382017
N   N4        1.0  0.61633  0.92327  0.78852  1.0000 -0.3287382017
N   N5        1.0  0.69306  0.61633  0.95519  1.0000 -0.3287382017
N   N6        1.0  0.07673  0.69306  0.12185  1.0000 -0.3287382017
N   N7        1.0  0.66987  0.08257  0.23747  1.0000 -0.2487545732
N   N8        1.0  0.58730  0.66987  0.40414  1.0000 -0.2487545732
N   N9        1.0  0.91743  0.58730  0.57080  1.0000 -0.2487545732
N   N10       1.0  0.33013  0.91743  0.73747  1.0000 -0.2487545732
N   N11       1.0  0.41270  0.33013  0.90414  1.0000 -0.2487545732
N   N12       1.0  0.08257  0.41270  0.07080  1.0000 -0.2487545732
O   O1        1.0  0.25434  0.15796  0.87331  1.0000 -0.8844975671
O   O2        1.0  0.09638  0.25434  0.03998  1.0000 -0.8844975671
O   O3        1.0  0.84204  0.09638  0.20664  1.0000 -0.8844975671
O   O4        1.0  0.74566  0.84204  0.37331  1.0000 -0.8844975671
O   O5        1.0  0.90362  0.74566  0.53998  1.0000 -0.8844975671
O   O6        1.0  0.15796  0.90362  0.70664  1.0000 -0.8844975671
O   O7        1.0  0.13724  0.12136  0.78994  1.0000 -0.5596083211
O   O8        1.0  0.01588  0.13724  0.95661  1.0000 -0.5596083211
O   O9        1.0  0.87864  0.01588  0.12327  1.0000 -0.5596083211
O   O10       1.0  0.86276  0.87864  0.28994  1.0000 -0.5596083211
O   O11       1.0  0.98412  0.86276  0.45661  1.0000 -0.5596083211
O   O12       1.0  0.12136  0.98412  0.62327  1.0000 -0.5596083211
O   O13       1.0  0.13493  0.17355  0.88108  1.0000 -0.5996733149
O   O14       1.0  0.96138  0.13493  0.04775  1.0000 -0.5996733149
O   O15       1.0  0.82645  0.96138  0.21441  1.0000 -0.5996733149
O   O16       1.0  0.86507  0.82645  0.38108  1.0000 -0.5996733149
O   O17       1.0  0.03862  0.86507  0.54775  1.0000 -0.5996733149
O   O18       1.0  0.17355  0.03862  0.71441  1.0000 -0.5996733149
O   O19       1.0  0.13760  0.16536  0.01670  1.0000 -0.6277299365
O   O20       1.0  0.97224  0.13760  0.18337  1.0000 -0.6277299365
O   O21       1.0  0.83464  0.97224  0.35003  1.0000 -0.6277299365
O   O22       1.0  0.86240  0.83464  0.51670  1.0000 -0.6277299365
O   O23       1.0  0.02776  0.86240  0.68337  1.0000 -0.6277299365
O   O24       1.0  0.16536  0.02776  0.85003  1.0000 -0.6277299365
O   O25       1.0  0.07167  0.13825  0.10415  1.0000 -0.5596083211
O   O26       1.0  0.93342  0.07167  0.27082  1.0000 -0.5596083211
O   O27       1.0  0.86175  0.93342  0.43748  1.0000 -0.5596083211
O   O28       1.0  0.92833  0.86175  0.60415  1.0000 -0.5596083211
O   O29       1.0  0.06658  0.92833  0.77082  1.0000 -0.5596083211
O   O30       1.0  0.13825  0.06658  0.93748  1.0000 -0.5596083211
O   O31       1.0  0.19530  0.29355  0.94638  1.0000 -0.5472993295
O   O32       1.0  0.90175  0.19530  0.11305  1.0000 -0.5472993295
O   O33       1.0  0.70645  0.90175  0.27971  1.0000 -0.5472993295
O   O34       1.0  0.80470  0.70645  0.44638  1.0000 -0.5472993295
O   O35       1.0  0.09825  0.80470  0.61305  1.0000 -0.5472993295
O   O36       1.0  0.29355  0.09825  0.77971  1.0000 -0.5472993295
O   O37       1.0  0.26087  0.25721  0.93430  1.0000 -0.5996733149
O   O38       1.0  0.00366  0.26087  0.10097  1.0000 -0.5996733149
O   O39       1.0  0.74279  0.00366  0.26763  1.0000 -0.5996733149
O   O40       1.0  0.73913  0.74279  0.43430  1.0000 -0.5996733149
O   O41       1.0  0.99634  0.73913  0.60097  1.0000 -0.5996733149
O   O42       1.0  0.25721  0.99634  0.76763  1.0000 -0.5996733149
O   O43       1.0  0.34860  0.21496  0.97573  1.0000 -0.5766906282
O   O44       1.0  0.13364  0.34860  0.14240  1.0000 -0.5766906282
O   O45       1.0  0.78504  0.13364  0.30906  1.0000 -0.5766906282
O   O46       1.0  0.65140  0.78504  0.47573  1.0000 -0.5766906282
O   O47       1.0  0.86636  0.65140  0.64240  1.0000 -0.5766906282
O   O48       1.0  0.21496  0.86636  0.80906  1.0000 -0.5766906282
O   O49       1.0  0.25208  0.15289  0.01775  1.0000 -0.5334142983
O   O50       1.0  0.09919  0.25208  0.18442  1.0000 -0.5334142983
O   O51       1.0  0.84711  0.09919  0.35108  1.0000 -0.5334142983
O   O52       1.0  0.74792  0.84711  0.51775  1.0000 -0.5334142983
O   O53       1.0  0.90081  0.74792  0.68442  1.0000 -0.5334142983
O   O54       1.0  0.15289  0.90081  0.85108  1.0000 -0.5334142983
O   O55       1.0  0.27315  0.95731  0.62857  1.0000 -0.5596083211
O   O56       1.0  0.31584  0.27315  0.79524  1.0000 -0.5596083211
O   O57       1.0  0.04269  0.31584  0.96190  1.0000 -0.5596083211
O   O58       1.0  0.72685  0.04269  0.12857  1.0000 -0.5596083211
O   O59       1.0  0.68416  0.72685  0.29524  1.0000 -0.5596083211
O   O60       1.0  0.95731  0.68416  0.46190  1.0000 -0.5596083211
O   O61       1.0  0.18849  0.92577  0.56234  1.0000 -0.5363974512
O   O62       1.0  0.26272  0.18849  0.72901  1.0000 -0.5363974512
O   O63       1.0  0.07423  0.26272  0.89567  1.0000 -0.5363974512
O   O64       1.0  0.81151  0.07423  0.06234  1.0000 -0.5363974512
O   O65       1.0  0.73728  0.81151  0.22901  1.0000 -0.5363974512
O   O66       1.0  0.92577  0.73728  0.39567  1.0000 -0.5363974512
