# DDEC6 charges by PACMAN v1.1 (https://github.com/mtap-research/PACMAN-charge/)
data_2012[Cd][uoc]3[ASR]2
_chemical_formula_sum              "Cd8 H160 C208 N16 O48"
_cell_length_a       22.5663
_cell_length_b       22.5663
_cell_length_c       13.8877
_cell_angle_alpha    90
_cell_angle_beta     90
_cell_angle_gamma    90

_symmetry_space_group_name_H-M    "P 1"
_symmetry_Int_Tables_number       1

loop_
  _symmetry_equiv_pos_as_xyz
  'x, y, z'

loop_
  _atom_site_type_symbol
  _atom_site_label
  _atom_site_symmetry_multiplicity
  _atom_site_fract_x
  _atom_site_fract_y
  _atom_site_fract_z
  _atom_site_occupancy
  _atom_site_charge
Cd  Cd1       1.0  0.97999  0.78406  0.06257  1.0000 0.8264613304
Cd  Cd2       1.0  0.02001  0.21594  0.56257  1.0000 0.8264613304
Cd  Cd3       1.0  0.28406  0.52001  0.31257  1.0000 0.8264613304
Cd  Cd4       1.0  0.71594  0.47999  0.81257  1.0000 0.8264613304
Cd  Cd5       1.0  0.47999  0.71594  0.18743  1.0000 0.8264613304
Cd  Cd6       1.0  0.52001  0.28406  0.68743  1.0000 0.8264613304
Cd  Cd7       1.0  0.78406  0.97999  0.93743  1.0000 0.8264613304
Cd  Cd8       1.0  0.21594  0.02001  0.43743  1.0000 0.8264613304
H   H1        1.0  0.02880  0.80370  0.40920  1.0000 0.1185521118
H   H2        1.0  0.97120  0.19630  0.90920  1.0000 0.1185521118
H   H3        1.0  0.30370  0.47120  0.65920  1.0000 0.1185521118
H   H4        1.0  0.69630  0.52880  0.15920  1.0000 0.1185521118
H   H5        1.0  0.52880  0.69630  0.84080  1.0000 0.1185521118
H   H6        1.0  0.47120  0.30370  0.34080  1.0000 0.1185521118
H   H7        1.0  0.80370  0.02880  0.59080  1.0000 0.1185521118
H   H8        1.0  0.19630  0.97120  0.09080  1.0000 0.1185521118
H   H9        1.0  0.05700  0.77030  0.56200  1.0000 0.1373695512
H   H10       1.0  0.94300  0.22970  0.06200  1.0000 0.1373695512
H   H11       1.0  0.27030  0.44300  0.81200  1.0000 0.1373695512
H   H12       1.0  0.72970  0.55700  0.31200  1.0000 0.1373695512
H   H13       1.0  0.55700  0.72970  0.68800  1.0000 0.1373695512
H   H14       1.0  0.44300  0.27030  0.18800  1.0000 0.1373695512
H   H15       1.0  0.77030  0.05700  0.43800  1.0000 0.1373695512
H   H16       1.0  0.22970  0.94300  0.93800  1.0000 0.1373695512
H   H17       1.0  0.06000  0.60210  0.46350  1.0000 0.1185521118
H   H18       1.0  0.94000  0.39790  0.96350  1.0000 0.1185521118
H   H19       1.0  0.10210  0.44000  0.71350  1.0000 0.1185521118
H   H20       1.0  0.89790  0.56000  0.21350  1.0000 0.1185521118
H   H21       1.0  0.56000  0.89790  0.78650  1.0000 0.1185521118
H   H22       1.0  0.44000  0.10210  0.28650  1.0000 0.1185521118
H   H23       1.0  0.60210  0.06000  0.53650  1.0000 0.1185521118
H   H24       1.0  0.39790  0.94000  0.03650  1.0000 0.1185521118
H   H25       1.0  0.03380  0.63550  0.31080  1.0000 0.1185521118
H   H26       1.0  0.96620  0.36450  0.81080  1.0000 0.1185521118
H   H27       1.0  0.13550  0.46620  0.56080  1.0000 0.1185521118
H   H28       1.0  0.86450  0.53380  0.06080  1.0000 0.1185521118
H   H29       1.0  0.53380  0.86450  0.93920  1.0000 0.1185521118
H   H30       1.0  0.46620  0.13550  0.43920  1.0000 0.1185521118
H   H31       1.0  0.63550  0.03380  0.68920  1.0000 0.1185521118
H   H32       1.0  0.36450  0.96620  0.18920  1.0000 0.1185521118
H   H33       1.0  0.03660  0.58810  0.62170  1.0000 0.0967106842
H   H34       1.0  0.96340  0.41190  0.12170  1.0000 0.0967106842
H   H35       1.0  0.08810  0.46340  0.87170  1.0000 0.0967106842
H   H36       1.0  0.91190  0.53660  0.37170  1.0000 0.0967106842
H   H37       1.0  0.53660  0.91190  0.62830  1.0000 0.0967106842
H   H38       1.0  0.46340  0.08810  0.12830  1.0000 0.0967106842
H   H39       1.0  0.58810  0.03660  0.37830  1.0000 0.0967106842
H   H40       1.0  0.41190  0.96340  0.87830  1.0000 0.0967106842
H   H41       1.0  0.10670  0.58480  0.60280  1.0000 0.1114996601
H   H42       1.0  0.89330  0.41520  0.10280  1.0000 0.1114996601
H   H43       1.0  0.08480  0.39330  0.85280  1.0000 0.1114996601
H   H44       1.0  0.91520  0.60670  0.35280  1.0000 0.1114996601
H   H45       1.0  0.60670  0.91520  0.64720  1.0000 0.1114996601
H   H46       1.0  0.39330  0.08480  0.14720  1.0000 0.1114996601
H   H47       1.0  0.58480  0.10670  0.39720  1.0000 0.1114996601
H   H48       1.0  0.41520  0.89330  0.89720  1.0000 0.1114996601
H   H49       1.0  0.07170  0.55760  0.76670  1.0000 0.0967106842
H   H50       1.0  0.92830  0.44240  0.26670  1.0000 0.0967106842
H   H51       1.0  0.05760  0.42830  0.01670  1.0000 0.0967106842
H   H52       1.0  0.94240  0.57170  0.51670  1.0000 0.0967106842
H   H53       1.0  0.57170  0.94240  0.48330  1.0000 0.0967106842
H   H54       1.0  0.42830  0.05760  0.98330  1.0000 0.0967106842
H   H55       1.0  0.55760  0.07170  0.23330  1.0000 0.0967106842
H   H56       1.0  0.44240  0.92830  0.73330  1.0000 0.0967106842
H   H57       1.0  0.06370  0.62760  0.78290  1.0000 0.1114996601
H   H58       1.0  0.93630  0.37240  0.28290  1.0000 0.1114996601
H   H59       1.0  0.12760  0.43630  0.03290  1.0000 0.1114996601
H   H60       1.0  0.87240  0.56370  0.53290  1.0000 0.1114996601
H   H61       1.0  0.56370  0.87240  0.46710  1.0000 0.1114996601
H   H62       1.0  0.43630  0.12760  0.96710  1.0000 0.1114996601
H   H63       1.0  0.62760  0.06370  0.21710  1.0000 0.1114996601
H   H64       1.0  0.37240  0.93630  0.71710  1.0000 0.1114996601
H   H65       1.0  0.25380  0.58960  0.81150  1.0000 0.1373695512
H   H66       1.0  0.74620  0.41040  0.31150  1.0000 0.1373695512
H   H67       1.0  0.08960  0.24620  0.06150  1.0000 0.1373695512
H   H68       1.0  0.91040  0.75380  0.56150  1.0000 0.1373695512
H   H69       1.0  0.75380  0.91040  0.43850  1.0000 0.1373695512
H   H70       1.0  0.24620  0.08960  0.93850  1.0000 0.1373695512
H   H71       1.0  0.58960  0.25380  0.18850  1.0000 0.1373695512
H   H72       1.0  0.41040  0.74620  0.68850  1.0000 0.1373695512
H   H73       1.0  0.29350  0.56370  0.96010  1.0000 0.1185521118
H   H74       1.0  0.70650  0.43630  0.46010  1.0000 0.1185521118
H   H75       1.0  0.06370  0.20650  0.21010  1.0000 0.1185521118
H   H76       1.0  0.93630  0.79350  0.71010  1.0000 0.1185521118
H   H77       1.0  0.79350  0.93630  0.28990  1.0000 0.1185521118
H   H78       1.0  0.20650  0.06370  0.78990  1.0000 0.1185521118
H   H79       1.0  0.56370  0.29350  0.03990  1.0000 0.1185521118
H   H80       1.0  0.43630  0.70650  0.53990  1.0000 0.1185521118
H   H81       1.0  0.12980  0.55940  0.07420  1.0000 0.1185521118
H   H82       1.0  0.87020  0.44060  0.57420  1.0000 0.1185521118
H   H83       1.0  0.05940  0.37020  0.32420  1.0000 0.1185521118
H   H84       1.0  0.94060  0.62980  0.82420  1.0000 0.1185521118
H   H85       1.0  0.62980  0.94060  0.17580  1.0000 0.1185521118
H   H86       1.0  0.37020  0.05940  0.67580  1.0000 0.1185521118
H   H87       1.0  0.55940  0.12980  0.92580  1.0000 0.1185521118
H   H88       1.0  0.44060  0.87020  0.42580  1.0000 0.1185521118
H   H89       1.0  0.08890  0.58550  0.92580  1.0000 0.1185521118
H   H90       1.0  0.91110  0.41450  0.42580  1.0000 0.1185521118
H   H91       1.0  0.08550  0.41110  0.17580  1.0000 0.1185521118
H   H92       1.0  0.91450  0.58890  0.67580  1.0000 0.1185521118
H   H93       1.0  0.58890  0.91450  0.32420  1.0000 0.1185521118
H   H94       1.0  0.41110  0.08550  0.82420  1.0000 0.1185521118
H   H95       1.0  0.58550  0.08890  0.07420  1.0000 0.1185521118
H   H96       1.0  0.41450  0.91110  0.57420  1.0000 0.1185521118
H   H97       1.0  0.08700  0.71190  0.97040  1.0000 0.1185521118
H   H98       1.0  0.91300  0.28810  0.47040  1.0000 0.1185521118
H   H99       1.0  0.21190  0.41300  0.22040  1.0000 0.1185521118
H   H100      1.0  0.78810  0.58700  0.72040  1.0000 0.1185521118
H   H101      1.0  0.58700  0.78810  0.27960  1.0000 0.1185521118
H   H102      1.0  0.41300  0.21190  0.77960  1.0000 0.1185521118
H   H103      1.0  0.71190  0.08700  0.02960  1.0000 0.1185521118
H   H104      1.0  0.28810  0.91300  0.52960  1.0000 0.1185521118
H   H105      1.0  0.19370  0.84720  0.14920  1.0000 0.1309757038
H   H106      1.0  0.80630  0.15280  0.64920  1.0000 0.1309757038
H   H107      1.0  0.34720  0.30630  0.39920  1.0000 0.1309757038
H   H108      1.0  0.65280  0.69370  0.89920  1.0000 0.1309757038
H   H109      1.0  0.69370  0.65280  0.10080  1.0000 0.1309757038
H   H110      1.0  0.30630  0.34720  0.60080  1.0000 0.1309757038
H   H111      1.0  0.84720  0.19370  0.85080  1.0000 0.1309757038
H   H112      1.0  0.15280  0.80630  0.35080  1.0000 0.1309757038
H   H113      1.0  0.18710  0.69540  0.99590  1.0000 0.1309757038
H   H114      1.0  0.81290  0.30460  0.49590  1.0000 0.1309757038
H   H115      1.0  0.19540  0.31290  0.24590  1.0000 0.1309757038
H   H116      1.0  0.80460  0.68710  0.74590  1.0000 0.1309757038
H   H117      1.0  0.68710  0.80460  0.25410  1.0000 0.1309757038
H   H118      1.0  0.31290  0.19540  0.75410  1.0000 0.1309757038
H   H119      1.0  0.69540  0.18710  0.00410  1.0000 0.1309757038
H   H120      1.0  0.30460  0.81290  0.50410  1.0000 0.1309757038
H   H121      1.0  0.09380  0.86070  0.11710  1.0000 0.1114996601
H   H122      1.0  0.90620  0.13930  0.61710  1.0000 0.1114996601
H   H123      1.0  0.36070  0.40620  0.36710  1.0000 0.1114996601
H   H124      1.0  0.63930  0.59380  0.86710  1.0000 0.1114996601
H   H125      1.0  0.59380  0.63930  0.13290  1.0000 0.1114996601
H   H126      1.0  0.40620  0.36070  0.63290  1.0000 0.1114996601
H   H127      1.0  0.86070  0.09380  0.88290  1.0000 0.1114996601
H   H128      1.0  0.13930  0.90620  0.38290  1.0000 0.1114996601
H   H129      1.0  0.29220  0.84250  0.11450  1.0000 0.1185521118
H   H130      1.0  0.70780  0.15750  0.61450  1.0000 0.1185521118
H   H131      1.0  0.34250  0.20780  0.36450  1.0000 0.1185521118
H   H132      1.0  0.65750  0.79220  0.86450  1.0000 0.1185521118
H   H133      1.0  0.79220  0.65750  0.13550  1.0000 0.1185521118
H   H134      1.0  0.20780  0.34250  0.63550  1.0000 0.1185521118
H   H135      1.0  0.84250  0.29220  0.88550  1.0000 0.1185521118
H   H136      1.0  0.15750  0.70780  0.38550  1.0000 0.1185521118
H   H137      1.0  0.38890  0.81990  0.15370  1.0000 0.1185521118
H   H138      1.0  0.61110  0.18010  0.65370  1.0000 0.1185521118
H   H139      1.0  0.31990  0.11110  0.40370  1.0000 0.1185521118
H   H140      1.0  0.68010  0.88890  0.90370  1.0000 0.1185521118
H   H141      1.0  0.88890  0.68010  0.09630  1.0000 0.1185521118
H   H142      1.0  0.11110  0.31990  0.59630  1.0000 0.1185521118
H   H143      1.0  0.81990  0.38890  0.84630  1.0000 0.1185521118
H   H144      1.0  0.18010  0.61110  0.34630  1.0000 0.1185521118
H   H145      1.0  0.35720  0.64920  0.14000  1.0000 0.1185521118
H   H146      1.0  0.64280  0.35080  0.64000  1.0000 0.1185521118
H   H147      1.0  0.14920  0.14280  0.39000  1.0000 0.1185521118
H   H148      1.0  0.85080  0.85720  0.89000  1.0000 0.1185521118
H   H149      1.0  0.85720  0.85080  0.11000  1.0000 0.1185521118
H   H150      1.0  0.14280  0.14920  0.61000  1.0000 0.1185521118
H   H151      1.0  0.64920  0.35720  0.86000  1.0000 0.1185521118
H   H152      1.0  0.35080  0.64280  0.36000  1.0000 0.1185521118
H   H153      1.0  0.25900  0.66720  0.10080  1.0000 0.1309757038
H   H154      1.0  0.74100  0.33280  0.60080  1.0000 0.1309757038
H   H155      1.0  0.16720  0.24100  0.35080  1.0000 0.1309757038
H   H156      1.0  0.83280  0.75900  0.85080  1.0000 0.1309757038
H   H157      1.0  0.75900  0.83280  0.14920  1.0000 0.1309757038
H   H158      1.0  0.24100  0.16720  0.64920  1.0000 0.1309757038
H   H159      1.0  0.66720  0.25900  0.89920  1.0000 0.1309757038
H   H160      1.0  0.33280  0.74100  0.39920  1.0000 0.1309757038
C   C1        1.0  0.00866  0.74328  0.24600  1.0000 0.5407312219
C   C2        1.0  0.99134  0.25672  0.74600  1.0000 0.5407312219
C   C3        1.0  0.24328  0.49134  0.49600  1.0000 0.5407312219
C   C4        1.0  0.75672  0.50866  0.99600  1.0000 0.5407312219
C   C5        1.0  0.50866  0.75672  0.00400  1.0000 0.5407312219
C   C6        1.0  0.49134  0.24328  0.50400  1.0000 0.5407312219
C   C7        1.0  0.74328  0.00866  0.75400  1.0000 0.5407312219
C   C8        1.0  0.25672  0.99134  0.25400  1.0000 0.5407312219
C   C9        1.0  0.02752  0.72255  0.34440  1.0000 -0.0457555126
C   C10       1.0  0.97248  0.27745  0.84440  1.0000 -0.0457555126
C   C11       1.0  0.22255  0.47248  0.59440  1.0000 -0.0457555126
C   C12       1.0  0.77745  0.52752  0.09440  1.0000 -0.0457555126
C   C13       1.0  0.52752  0.77745  0.90560  1.0000 -0.0457555126
C   C14       1.0  0.47248  0.22255  0.40560  1.0000 -0.0457555126
C   C15       1.0  0.72255  0.02752  0.65560  1.0000 -0.0457555126
C   C16       1.0  0.27745  0.97248  0.15560  1.0000 -0.0457555126
C   C17       1.0  0.03510  0.76260  0.41990  1.0000 -0.0986065437
C   C18       1.0  0.96490  0.23740  0.91990  1.0000 -0.0986065437
C   C19       1.0  0.26260  0.46490  0.66990  1.0000 -0.0986065437
C   C20       1.0  0.73740  0.53510  0.16990  1.0000 -0.0986065437
C   C21       1.0  0.53510  0.73740  0.83010  1.0000 -0.0986065437
C   C22       1.0  0.46490  0.26260  0.33010  1.0000 -0.0986065437
C   C23       1.0  0.76260  0.03510  0.58010  1.0000 -0.0986065437
C   C24       1.0  0.23740  0.96490  0.08010  1.0000 -0.0986065437
C   C25       1.0  0.05190  0.74280  0.51090  1.0000 -0.2209938872
C   C26       1.0  0.94810  0.25720  0.01090  1.0000 -0.2209938872
C   C27       1.0  0.24280  0.44810  0.76090  1.0000 -0.2209938872
C   C28       1.0  0.75720  0.55190  0.26090  1.0000 -0.2209938872
C   C29       1.0  0.55190  0.75720  0.73910  1.0000 -0.2209938872
C   C30       1.0  0.44810  0.24280  0.23910  1.0000 -0.2209938872
C   C31       1.0  0.74280  0.05190  0.48910  1.0000 -0.2209938872
C   C32       1.0  0.25720  0.94810  0.98910  1.0000 -0.2209938872
C   C33       1.0  0.06104  0.68340  0.52670  1.0000 0.2412079652
C   C34       1.0  0.93896  0.31660  0.02670  1.0000 0.2412079652
C   C35       1.0  0.18340  0.43896  0.77670  1.0000 0.2412079652
C   C36       1.0  0.81660  0.56104  0.27670  1.0000 0.2412079652
C   C37       1.0  0.56104  0.81660  0.72330  1.0000 0.2412079652
C   C38       1.0  0.43896  0.18340  0.22330  1.0000 0.2412079652
C   C39       1.0  0.68340  0.06104  0.47330  1.0000 0.2412079652
C   C40       1.0  0.31660  0.93896  0.97330  1.0000 0.2412079652
C   C41       1.0  0.05387  0.64325  0.45240  1.0000 -0.2481946475
C   C42       1.0  0.94613  0.35675  0.95240  1.0000 -0.2481946475
C   C43       1.0  0.14325  0.44613  0.70240  1.0000 -0.2481946475
C   C44       1.0  0.85675  0.55387  0.20240  1.0000 -0.2481946475
C   C45       1.0  0.55387  0.85675  0.79760  1.0000 -0.2481946475
C   C46       1.0  0.44613  0.14325  0.29760  1.0000 -0.2481946475
C   C47       1.0  0.64325  0.05387  0.54760  1.0000 -0.2481946475
C   C48       1.0  0.35675  0.94613  0.04760  1.0000 -0.2481946475
C   C49       1.0  0.03781  0.66321  0.36200  1.0000 -0.0986065437
C   C50       1.0  0.96219  0.33679  0.86200  1.0000 -0.0986065437
C   C51       1.0  0.16321  0.46219  0.61200  1.0000 -0.0986065437
C   C52       1.0  0.83679  0.53781  0.11200  1.0000 -0.0986065437
C   C53       1.0  0.53781  0.83679  0.88800  1.0000 -0.0986065437
C   C54       1.0  0.46219  0.16321  0.38800  1.0000 -0.0986065437
C   C55       1.0  0.66321  0.03781  0.63800  1.0000 -0.0986065437
C   C56       1.0  0.33679  0.96219  0.13800  1.0000 -0.0986065437
C   C57       1.0  0.07530  0.60530  0.63990  1.0000 -0.0593744785
C   C58       1.0  0.92470  0.39470  0.13990  1.0000 -0.0593744785
C   C59       1.0  0.10530  0.42470  0.88990  1.0000 -0.0593744785
C   C60       1.0  0.89470  0.57530  0.38990  1.0000 -0.0593744785
C   C61       1.0  0.57530  0.89470  0.61010  1.0000 -0.0593744785
C   C62       1.0  0.42470  0.10530  0.11010  1.0000 -0.0593744785
C   C63       1.0  0.60530  0.07530  0.36010  1.0000 -0.0593744785
C   C64       1.0  0.39470  0.92470  0.86010  1.0000 -0.0593744785
C   C65       1.0  0.08580  0.59720  0.74610  1.0000 -0.0593744785
C   C66       1.0  0.91420  0.40280  0.24610  1.0000 -0.0593744785
C   C67       1.0  0.09720  0.41420  0.99610  1.0000 -0.0593744785
C   C68       1.0  0.90280  0.58580  0.49610  1.0000 -0.0593744785
C   C69       1.0  0.58580  0.90280  0.50390  1.0000 -0.0593744785
C   C70       1.0  0.41420  0.09720  0.00390  1.0000 -0.0593744785
C   C71       1.0  0.59720  0.08580  0.25390  1.0000 -0.0593744785
C   C72       1.0  0.40280  0.91420  0.75390  1.0000 -0.0593744785
C   C73       1.0  0.16720  0.58860  0.85420  1.0000 0.2412079652
C   C74       1.0  0.83280  0.41140  0.35420  1.0000 0.2412079652
C   C75       1.0  0.08860  0.33280  0.10420  1.0000 0.2412079652
C   C76       1.0  0.91140  0.66720  0.60420  1.0000 0.2412079652
C   C77       1.0  0.66720  0.91140  0.39580  1.0000 0.2412079652
C   C78       1.0  0.33280  0.08860  0.89580  1.0000 0.2412079652
C   C79       1.0  0.58860  0.16720  0.14580  1.0000 0.2412079652
C   C80       1.0  0.41140  0.83280  0.64580  1.0000 0.2412079652
C   C81       1.0  0.22830  0.58300  0.86490  1.0000 -0.2120884168
C   C82       1.0  0.77170  0.41700  0.36490  1.0000 -0.2120884168
C   C83       1.0  0.08300  0.27170  0.11490  1.0000 -0.2120884168
C   C84       1.0  0.91700  0.72830  0.61490  1.0000 -0.2120884168
C   C85       1.0  0.72830  0.91700  0.38510  1.0000 -0.2120884168
C   C86       1.0  0.27170  0.08300  0.88510  1.0000 -0.2120884168
C   C87       1.0  0.58300  0.22830  0.13510  1.0000 -0.2120884168
C   C88       1.0  0.41700  0.77170  0.63510  1.0000 -0.2120884168
C   C89       1.0  0.25178  0.56793  0.95340  1.0000 -0.0986065437
C   C90       1.0  0.74822  0.43207  0.45340  1.0000 -0.0986065437
C   C91       1.0  0.06793  0.24822  0.20340  1.0000 -0.0986065437
C   C92       1.0  0.93207  0.75178  0.70340  1.0000 -0.0986065437
C   C93       1.0  0.75178  0.93207  0.29660  1.0000 -0.0986065437
C   C94       1.0  0.24822  0.06793  0.79660  1.0000 -0.0986065437
C   C95       1.0  0.56793  0.25178  0.04660  1.0000 -0.0986065437
C   C96       1.0  0.43207  0.74822  0.54660  1.0000 -0.0986065437
C   C97       1.0  0.21545  0.55886  0.03290  1.0000 -0.0593744785
C   C98       1.0  0.78455  0.44114  0.53290  1.0000 -0.0593744785
C   C99       1.0  0.05886  0.28455  0.28290  1.0000 -0.0593744785
C   C100      1.0  0.94114  0.71545  0.78290  1.0000 -0.0593744785
C   C101      1.0  0.71545  0.94114  0.21710  1.0000 -0.0593744785
C   C102      1.0  0.28455  0.05886  0.71710  1.0000 -0.0593744785
C   C103      1.0  0.55886  0.21545  0.96710  1.0000 -0.0593744785
C   C104      1.0  0.44114  0.78455  0.46710  1.0000 -0.0593744785
C   C105      1.0  0.15523  0.56542  0.02060  1.0000 -0.0986065437
C   C106      1.0  0.84477  0.43458  0.52060  1.0000 -0.0986065437
C   C107      1.0  0.06542  0.34477  0.27060  1.0000 -0.0986065437
C   C108      1.0  0.93458  0.65523  0.77060  1.0000 -0.0986065437
C   C109      1.0  0.65523  0.93458  0.22940  1.0000 -0.0986065437
C   C110      1.0  0.34477  0.06542  0.72940  1.0000 -0.0986065437
C   C111      1.0  0.56542  0.15523  0.97940  1.0000 -0.0986065437
C   C112      1.0  0.43458  0.84477  0.47940  1.0000 -0.0986065437
C   C113      1.0  0.13052  0.58064  0.93220  1.0000 -0.2600319679
C   C114      1.0  0.86948  0.41936  0.43220  1.0000 -0.2600319679
C   C115      1.0  0.08064  0.36948  0.18220  1.0000 -0.2600319679
C   C116      1.0  0.91936  0.63052  0.68220  1.0000 -0.2600319679
C   C117      1.0  0.63052  0.91936  0.31780  1.0000 -0.2600319679
C   C118      1.0  0.36948  0.08064  0.81780  1.0000 -0.2600319679
C   C119      1.0  0.58064  0.13052  0.06780  1.0000 -0.2600319679
C   C120      1.0  0.41936  0.86948  0.56780  1.0000 -0.2600319679
C   C121      1.0  0.24144  0.54268  0.12860  1.0000 0.5407312219
C   C122      1.0  0.75856  0.45732  0.62860  1.0000 0.5407312219
C   C123      1.0  0.04268  0.25856  0.37860  1.0000 0.5407312219
C   C124      1.0  0.95732  0.74144  0.87860  1.0000 0.5407312219
C   C125      1.0  0.74144  0.95732  0.12140  1.0000 0.5407312219
C   C126      1.0  0.25856  0.04268  0.62140  1.0000 0.5407312219
C   C127      1.0  0.54268  0.24144  0.87140  1.0000 0.5407312219
C   C128      1.0  0.45732  0.75856  0.37140  1.0000 0.5407312219
C   C129      1.0  0.10900  0.73960  0.00770  1.0000 0.0967106842
C   C130      1.0  0.89100  0.26040  0.50770  1.0000 0.0967106842
C   C131      1.0  0.23960  0.39100  0.25770  1.0000 0.0967106842
C   C132      1.0  0.76040  0.60900  0.75770  1.0000 0.0967106842
C   C133      1.0  0.60900  0.76040  0.24230  1.0000 0.0967106842
C   C134      1.0  0.39100  0.23960  0.74230  1.0000 0.0967106842
C   C135      1.0  0.73960  0.10900  0.99230  1.0000 0.0967106842
C   C136      1.0  0.26040  0.89100  0.49230  1.0000 0.0967106842
C   C137      1.0  0.17273  0.81846  0.11270  1.0000 -0.188196935
C   C138      1.0  0.82727  0.18154  0.61270  1.0000 -0.188196935
C   C139      1.0  0.31846  0.32727  0.36270  1.0000 -0.188196935
C   C140      1.0  0.68154  0.67273  0.86270  1.0000 -0.188196935
C   C141      1.0  0.67273  0.68154  0.13730  1.0000 -0.188196935
C   C142      1.0  0.32727  0.31846  0.63730  1.0000 -0.188196935
C   C143      1.0  0.81846  0.17273  0.88730  1.0000 -0.188196935
C   C144      1.0  0.18154  0.82727  0.38730  1.0000 -0.188196935
C   C145      1.0  0.20150  0.76915  0.07880  1.0000 0.1185521118
C   C146      1.0  0.79850  0.23085  0.57880  1.0000 0.1185521118
C   C147      1.0  0.26915  0.29850  0.32880  1.0000 0.1185521118
C   C148      1.0  0.73085  0.70150  0.82880  1.0000 0.1185521118
C   C149      1.0  0.70150  0.73085  0.17120  1.0000 0.1185521118
C   C150      1.0  0.29850  0.26915  0.67120  1.0000 0.1185521118
C   C151      1.0  0.76915  0.20150  0.92120  1.0000 0.1185521118
C   C152      1.0  0.23085  0.79850  0.42120  1.0000 0.1185521118
C   C153      1.0  0.16855  0.72930  0.02310  1.0000 -0.188196935
C   C154      1.0  0.83145  0.27070  0.52310  1.0000 -0.188196935
C   C155      1.0  0.22930  0.33145  0.27310  1.0000 -0.188196935
C   C156      1.0  0.77070  0.66855  0.77310  1.0000 -0.188196935
C   C157      1.0  0.66855  0.77070  0.22690  1.0000 -0.188196935
C   C158      1.0  0.33145  0.22930  0.72690  1.0000 -0.188196935
C   C159      1.0  0.72930  0.16855  0.97690  1.0000 -0.188196935
C   C160      1.0  0.27070  0.83145  0.47690  1.0000 -0.188196935
C   C161      1.0  0.11297  0.82612  0.09360  1.0000 0.0802142624
C   C162      1.0  0.88703  0.17388  0.59360  1.0000 0.0802142624
C   C163      1.0  0.32612  0.38703  0.34360  1.0000 0.0802142624
C   C164      1.0  0.67388  0.61297  0.84360  1.0000 0.0802142624
C   C165      1.0  0.61297  0.67388  0.15640  1.0000 0.0802142624
C   C166      1.0  0.38703  0.32612  0.65640  1.0000 0.0802142624
C   C167      1.0  0.82612  0.11297  0.90640  1.0000 0.0802142624
C   C168      1.0  0.17388  0.88703  0.40640  1.0000 0.0802142624
C   C169      1.0  0.26442  0.75660  0.10300  1.0000 0.1114996601
C   C170      1.0  0.73558  0.24340  0.60300  1.0000 0.1114996601
C   C171      1.0  0.25660  0.23558  0.35300  1.0000 0.1114996601
C   C172      1.0  0.74340  0.76442  0.85300  1.0000 0.1114996601
C   C173      1.0  0.76442  0.74340  0.14700  1.0000 0.1114996601
C   C174      1.0  0.23558  0.25660  0.64700  1.0000 0.1114996601
C   C175      1.0  0.75660  0.26442  0.89700  1.0000 0.1114996601
C   C176      1.0  0.24340  0.73558  0.39700  1.0000 0.1114996601
C   C177      1.0  0.30442  0.80230  0.11940  1.0000 -0.188196935
C   C178      1.0  0.69558  0.19770  0.61940  1.0000 -0.188196935
C   C179      1.0  0.30230  0.19558  0.36940  1.0000 -0.188196935
C   C180      1.0  0.69770  0.80442  0.86940  1.0000 -0.188196935
C   C181      1.0  0.80442  0.69770  0.13060  1.0000 -0.188196935
C   C182      1.0  0.19558  0.30230  0.63060  1.0000 -0.188196935
C   C183      1.0  0.80230  0.30442  0.88060  1.0000 -0.188196935
C   C184      1.0  0.19770  0.69558  0.38060  1.0000 -0.188196935
C   C185      1.0  0.36194  0.78832  0.14270  1.0000 0.0878637624
C   C186      1.0  0.63806  0.21168  0.64270  1.0000 0.0878637624
C   C187      1.0  0.28832  0.13806  0.39270  1.0000 0.0878637624
C   C188      1.0  0.71168  0.86194  0.89270  1.0000 0.0878637624
C   C189      1.0  0.86194  0.71168  0.10730  1.0000 0.0878637624
C   C190      1.0  0.13806  0.28832  0.60730  1.0000 0.0878637624
C   C191      1.0  0.78832  0.36194  0.85730  1.0000 0.0878637624
C   C192      1.0  0.21168  0.63806  0.35730  1.0000 0.0878637624
C   C193      1.0  0.34383  0.68894  0.13500  1.0000 0.0878637624
C   C194      1.0  0.65617  0.31106  0.63500  1.0000 0.0878637624
C   C195      1.0  0.18894  0.15617  0.38500  1.0000 0.0878637624
C   C196      1.0  0.81106  0.84383  0.88500  1.0000 0.0878637624
C   C197      1.0  0.84383  0.81106  0.11500  1.0000 0.0878637624
C   C198      1.0  0.15617  0.18894  0.61500  1.0000 0.0878637624
C   C199      1.0  0.68894  0.34383  0.86500  1.0000 0.0878637624
C   C200      1.0  0.31106  0.65617  0.36500  1.0000 0.0878637624
C   C201      1.0  0.28510  0.69954  0.11130  1.0000 -0.1763765901
C   C202      1.0  0.71490  0.30046  0.61130  1.0000 -0.1763765901
C   C203      1.0  0.19954  0.21490  0.36130  1.0000 -0.1763765901
C   C204      1.0  0.80046  0.78510  0.86130  1.0000 -0.1763765901
C   C205      1.0  0.78510  0.80046  0.13870  1.0000 -0.1763765901
C   C206      1.0  0.21490  0.19954  0.63870  1.0000 -0.1763765901
C   C207      1.0  0.69954  0.28510  0.88870  1.0000 -0.1763765901
C   C208      1.0  0.30046  0.71490  0.38870  1.0000 -0.1763765901
N   N1        1.0  0.08123  0.78667  0.04320  1.0000 -0.2209938872
N   N2        1.0  0.91877  0.21333  0.54320  1.0000 -0.2209938872
N   N3        1.0  0.28667  0.41877  0.29320  1.0000 -0.2209938872
N   N4        1.0  0.71333  0.58123  0.79320  1.0000 -0.2209938872
N   N5        1.0  0.58123  0.71333  0.20680  1.0000 -0.2209938872
N   N6        1.0  0.41877  0.28667  0.70680  1.0000 -0.2209938872
N   N7        1.0  0.78667  0.08123  0.95680  1.0000 -0.2209938872
N   N8        1.0  0.21333  0.91877  0.45680  1.0000 -0.2209938872
N   N9        1.0  0.38219  0.73303  0.15100  1.0000 -0.2287290092
N   N10       1.0  0.61781  0.26697  0.65100  1.0000 -0.2287290092
N   N11       1.0  0.23303  0.11781  0.40100  1.0000 -0.2287290092
N   N12       1.0  0.76697  0.88219  0.90100  1.0000 -0.2287290092
N   N13       1.0  0.88219  0.76697  0.09900  1.0000 -0.2287290092
N   N14       1.0  0.11781  0.23303  0.59900  1.0000 -0.2287290092
N   N15       1.0  0.73303  0.38219  0.84900  1.0000 -0.2287290092
N   N16       1.0  0.26697  0.61781  0.34900  1.0000 -0.2287290092
O   O1        1.0  0.99979  0.79804  0.23170  1.0000 -0.5766020413
O   O2        1.0  0.00021  0.20196  0.73170  1.0000 -0.5766020413
O   O3        1.0  0.29804  0.50021  0.48170  1.0000 -0.5766020413
O   O4        1.0  0.70196  0.49979  0.98170  1.0000 -0.5766020413
O   O5        1.0  0.49979  0.70196  0.01830  1.0000 -0.5766020413
O   O6        1.0  0.50021  0.29804  0.51830  1.0000 -0.5766020413
O   O7        1.0  0.79804  0.99979  0.76830  1.0000 -0.5766020413
O   O8        1.0  0.20196  0.00021  0.26830  1.0000 -0.5766020413
O   O9        1.0  0.00216  0.70616  0.17960  1.0000 -0.5585180219
O   O10       1.0  0.99784  0.29384  0.67960  1.0000 -0.5585180219
O   O11       1.0  0.20616  0.49784  0.42960  1.0000 -0.5585180219
O   O12       1.0  0.79384  0.50216  0.92960  1.0000 -0.5585180219
O   O13       1.0  0.50216  0.79384  0.07040  1.0000 -0.5585180219
O   O14       1.0  0.49784  0.20616  0.57040  1.0000 -0.5585180219
O   O15       1.0  0.70616  0.00216  0.82040  1.0000 -0.5585180219
O   O16       1.0  0.29384  0.99784  0.32040  1.0000 -0.5585180219
O   O17       1.0  0.07612  0.66747  0.61900  1.0000 -0.1713740459
O   O18       1.0  0.92388  0.33253  0.11900  1.0000 -0.1713740459
O   O19       1.0  0.16747  0.42388  0.86900  1.0000 -0.1713740459
O   O20       1.0  0.83253  0.57612  0.36900  1.0000 -0.1713740459
O   O21       1.0  0.57612  0.83253  0.63100  1.0000 -0.1713740459
O   O22       1.0  0.42388  0.16747  0.13100  1.0000 -0.1713740459
O   O23       1.0  0.66747  0.07612  0.38100  1.0000 -0.1713740459
O   O24       1.0  0.33253  0.92388  0.88100  1.0000 -0.1713740459
O   O25       1.0  0.14789  0.60272  0.76380  1.0000 -0.1713740459
O   O26       1.0  0.85211  0.39728  0.26380  1.0000 -0.1713740459
O   O27       1.0  0.10272  0.35211  0.01380  1.0000 -0.1713740459
O   O28       1.0  0.89728  0.64789  0.51380  1.0000 -0.1713740459
O   O29       1.0  0.64789  0.89728  0.48620  1.0000 -0.1713740459
O   O30       1.0  0.35211  0.10272  0.98620  1.0000 -0.1713740459
O   O31       1.0  0.60272  0.14789  0.23620  1.0000 -0.1713740459
O   O32       1.0  0.39728  0.85211  0.73620  1.0000 -0.1713740459
O   O33       1.0  0.20673  0.52785  0.19610  1.0000 -0.5585180219
O   O34       1.0  0.79327  0.47215  0.69610  1.0000 -0.5585180219
O   O35       1.0  0.02785  0.29327  0.44610  1.0000 -0.5585180219
O   O36       1.0  0.97215  0.70673  0.94610  1.0000 -0.5585180219
O   O37       1.0  0.70673  0.97215  0.05390  1.0000 -0.5585180219
O   O38       1.0  0.29327  0.02785  0.55390  1.0000 -0.5585180219
O   O39       1.0  0.52785  0.20673  0.80390  1.0000 -0.5585180219
O   O40       1.0  0.47215  0.79327  0.30390  1.0000 -0.5585180219
O   O41       1.0  0.29646  0.54445  0.14148  1.0000 -0.5674611176
O   O42       1.0  0.70354  0.45555  0.64148  1.0000 -0.5674611176
O   O43       1.0  0.04445  0.20354  0.39148  1.0000 -0.5674611176
O   O44       1.0  0.95555  0.79646  0.89148  1.0000 -0.5674611176
O   O45       1.0  0.79646  0.95555  0.10852  1.0000 -0.5674611176
O   O46       1.0  0.20354  0.04445  0.60852  1.0000 -0.5674611176
O   O47       1.0  0.54445  0.29646  0.85852  1.0000 -0.5674611176
O   O48       1.0  0.45555  0.70354  0.35852  1.0000 -0.5674611176
