# DDEC6 charges by PACMAN v1.1 (https://github.com/mtap-research/PACMAN-charge/)
data_2012[Cd][sra]3[ASR]1
_chemical_formula_sum              "Cd12 H160 C208 O76"
_cell_length_a       24.373
_cell_length_b       11.367
_cell_length_c       36.596
_cell_angle_alpha    90
_cell_angle_beta     97.685
_cell_angle_gamma    90

_symmetry_space_group_name_H-M    "P 1"
_symmetry_Int_Tables_number       1

loop_
  _symmetry_equiv_pos_as_xyz
  'x, y, z'

loop_
  _atom_site_type_symbol
  _atom_site_label
  _atom_site_symmetry_multiplicity
  _atom_site_fract_x
  _atom_site_fract_y
  _atom_site_fract_z
  _atom_site_occupancy
  _atom_site_charge
Cd  Cd1       1.0  0.67245  0.35686  0.84208  1.0000 0.9924317547
Cd  Cd2       1.0  0.32755  0.85686  0.65792  1.0000 0.9924317547
Cd  Cd3       1.0  0.32755  0.64314  0.15792  1.0000 0.9924317547
Cd  Cd4       1.0  0.67245  0.14314  0.34208  1.0000 0.9924317547
Cd  Cd5       1.0  0.71630  0.63271  0.88137  1.0000 1.101092095
Cd  Cd6       1.0  0.28370  0.13271  0.61863  1.0000 1.101092095
Cd  Cd7       1.0  0.28370  0.36729  0.11863  1.0000 1.101092095
Cd  Cd8       1.0  0.71630  0.86729  0.38137  1.0000 1.101092095
Cd  Cd9       1.0  0.29894  0.08209  0.09142  1.0000 0.9924317547
Cd  Cd10      1.0  0.70106  0.58209  0.40858  1.0000 0.9924317547
Cd  Cd11      1.0  0.70106  0.91791  0.90858  1.0000 0.9924317547
Cd  Cd12      1.0  0.29894  0.41791  0.59142  1.0000 0.9924317547
H   H1        1.0  0.75450  0.37470  0.13420  1.0000 0.0928163421
H   H2        1.0  0.24550  0.87470  0.36580  1.0000 0.0928163421
H   H3        1.0  0.24550  0.62530  0.86580  1.0000 0.0928163421
H   H4        1.0  0.75450  0.12530  0.63420  1.0000 0.0928163421
H   H5        1.0  0.74540  0.41770  0.17380  1.0000 0.0990403398
H   H6        1.0  0.25460  0.91770  0.32620  1.0000 0.0990403398
H   H7        1.0  0.25460  0.58230  0.82620  1.0000 0.0990403398
H   H8        1.0  0.74540  0.08230  0.67380  1.0000 0.0990403398
H   H9        1.0  0.72180  0.58620  0.08920  1.0000 0.0990403398
H   H10       1.0  0.27820  0.08620  0.41080  1.0000 0.0990403398
H   H11       1.0  0.27820  0.41380  0.91080  1.0000 0.0990403398
H   H12       1.0  0.72180  0.91380  0.58920  1.0000 0.0990403398
H   H13       1.0  0.65740  0.56520  0.08200  1.0000 0.0990403398
H   H14       1.0  0.34260  0.06520  0.41800  1.0000 0.0990403398
H   H15       1.0  0.34260  0.43480  0.91800  1.0000 0.0990403398
H   H16       1.0  0.65740  0.93480  0.58200  1.0000 0.0990403398
H   H17       1.0  0.64700  0.39340  0.16300  1.0000 0.0990403398
H   H18       1.0  0.35300  0.89340  0.33700  1.0000 0.0990403398
H   H19       1.0  0.35300  0.60660  0.83700  1.0000 0.0990403398
H   H20       1.0  0.64700  0.10660  0.66300  1.0000 0.0990403398
H   H21       1.0  0.65110  0.34210  0.12350  1.0000 0.0990403398
H   H22       1.0  0.34890  0.84210  0.37650  1.0000 0.0990403398
H   H23       1.0  0.34890  0.65790  0.87650  1.0000 0.0990403398
H   H24       1.0  0.65110  0.15790  0.62350  1.0000 0.0990403398
H   H25       1.0  0.65100  0.65420  0.14170  1.0000 0.0990403398
H   H26       1.0  0.34900  0.15420  0.35830  1.0000 0.0990403398
H   H27       1.0  0.34900  0.34580  0.85830  1.0000 0.0990403398
H   H28       1.0  0.65100  0.84580  0.64170  1.0000 0.0990403398
H   H29       1.0  0.71570  0.66710  0.15170  1.0000 0.0990403398
H   H30       1.0  0.28430  0.16710  0.34830  1.0000 0.0990403398
H   H31       1.0  0.28430  0.33290  0.84830  1.0000 0.0990403398
H   H32       1.0  0.71570  0.83290  0.65170  1.0000 0.0990403398
H   H33       1.0  0.84490  0.42880  0.17870  1.0000 0.0928163421
H   H34       1.0  0.15510  0.92880  0.32130  1.0000 0.0928163421
H   H35       1.0  0.15510  0.57120  0.82130  1.0000 0.0928163421
H   H36       1.0  0.84490  0.07120  0.67870  1.0000 0.0928163421
H   H37       1.0  0.85310  0.43140  0.13680  1.0000 0.0990403398
H   H38       1.0  0.14690  0.93140  0.36320  1.0000 0.0990403398
H   H39       1.0  0.14690  0.56860  0.86320  1.0000 0.0990403398
H   H40       1.0  0.85310  0.06860  0.63680  1.0000 0.0990403398
H   H41       1.0  0.90400  0.72990  0.13620  1.0000 0.0990403398
H   H42       1.0  0.09600  0.22990  0.36380  1.0000 0.0990403398
H   H43       1.0  0.09600  0.27010  0.86380  1.0000 0.0990403398
H   H44       1.0  0.90400  0.77010  0.63620  1.0000 0.0990403398
H   H45       1.0  0.83990  0.70430  0.13060  1.0000 0.0990403398
H   H46       1.0  0.16010  0.20430  0.36940  1.0000 0.0990403398
H   H47       1.0  0.16010  0.29570  0.86940  1.0000 0.0990403398
H   H48       1.0  0.83990  0.79570  0.63060  1.0000 0.0990403398
H   H49       1.0  0.94850  0.48730  0.14660  1.0000 0.0990403398
H   H50       1.0  0.05150  0.98730  0.35340  1.0000 0.0990403398
H   H51       1.0  0.05150  0.51270  0.85340  1.0000 0.0990403398
H   H52       1.0  0.94850  0.01270  0.64660  1.0000 0.0990403398
H   H53       1.0  0.94750  0.47350  0.18930  1.0000 0.0990403398
H   H54       1.0  0.05250  0.97350  0.31070  1.0000 0.0990403398
H   H55       1.0  0.05250  0.52650  0.81070  1.0000 0.0990403398
H   H56       1.0  0.94750  0.02650  0.68930  1.0000 0.0990403398
H   H57       1.0  0.83760  0.68070  0.19650  1.0000 0.0990403398
H   H58       1.0  0.16240  0.18070  0.30350  1.0000 0.0990403398
H   H59       1.0  0.16240  0.31930  0.80350  1.0000 0.0990403398
H   H60       1.0  0.83760  0.81930  0.69650  1.0000 0.0990403398
H   H61       1.0  0.90120  0.71000  0.20450  1.0000 0.0990403398
H   H62       1.0  0.09880  0.21000  0.29550  1.0000 0.0990403398
H   H63       1.0  0.09880  0.29000  0.79550  1.0000 0.0990403398
H   H64       1.0  0.90120  0.79000  0.70450  1.0000 0.0990403398
H   H65       1.0  0.71720  0.24980  0.03680  1.0000 0.1322802266
H   H66       1.0  0.28280  0.74980  0.46320  1.0000 0.1322802266
H   H67       1.0  0.28280  0.75020  0.96320  1.0000 0.1322802266
H   H68       1.0  0.71720  0.25020  0.53680  1.0000 0.1322802266
H   H69       1.0  0.70580  0.22290  0.97370  1.0000 0.1206895379
H   H70       1.0  0.29420  0.72290  0.52630  1.0000 0.1206895379
H   H71       1.0  0.29420  0.77710  0.02630  1.0000 0.1206895379
H   H72       1.0  0.70580  0.27710  0.47370  1.0000 0.1206895379
H   H73       1.0  0.66500  0.56170  0.95940  1.0000 0.1206895379
H   H74       1.0  0.33500  0.06170  0.54060  1.0000 0.1206895379
H   H75       1.0  0.33500  0.43830  0.04060  1.0000 0.1206895379
H   H76       1.0  0.66500  0.93830  0.45940  1.0000 0.1206895379
H   H77       1.0  0.67390  0.58750  0.02220  1.0000 0.1206895379
H   H78       1.0  0.32610  0.08750  0.47780  1.0000 0.1206895379
H   H79       1.0  0.32610  0.41250  0.97780  1.0000 0.1206895379
H   H80       1.0  0.67390  0.91250  0.52220  1.0000 0.1206895379
H   H81       1.0  0.58150  0.24770  0.14570  1.0000 0.1206895379
H   H82       1.0  0.41850  0.74770  0.35430  1.0000 0.1206895379
H   H83       1.0  0.41850  0.75230  0.85430  1.0000 0.1206895379
H   H84       1.0  0.58150  0.25230  0.64570  1.0000 0.1206895379
H   H85       1.0  0.49920  0.14460  0.14150  1.0000 0.1140654483
H   H86       1.0  0.50080  0.64460  0.35850  1.0000 0.1140654483
H   H87       1.0  0.50080  0.85540  0.85850  1.0000 0.1140654483
H   H88       1.0  0.49920  0.35540  0.64150  1.0000 0.1140654483
H   H89       1.0  0.41580  0.43280  0.10300  1.0000 0.1206895379
H   H90       1.0  0.58420  0.93280  0.39700  1.0000 0.1206895379
H   H91       1.0  0.58420  0.56720  0.89700  1.0000 0.1206895379
H   H92       1.0  0.41580  0.06720  0.60300  1.0000 0.1206895379
H   H93       1.0  0.49790  0.53370  0.10550  1.0000 0.1322802266
H   H94       1.0  0.50210  0.03370  0.39450  1.0000 0.1322802266
H   H95       1.0  0.50210  0.46630  0.89450  1.0000 0.1322802266
H   H96       1.0  0.49790  0.96630  0.60550  1.0000 0.1322802266
H   H97       1.0  0.68770  0.81570  0.18400  1.0000 0.1206895379
H   H98       1.0  0.31230  0.31570  0.31600  1.0000 0.1206895379
H   H99       1.0  0.31230  0.18430  0.81600  1.0000 0.1206895379
H   H100      1.0  0.68770  0.68430  0.68400  1.0000 0.1206895379
H   H101      1.0  0.68200  0.95270  0.23000  1.0000 0.1206895379
H   H102      1.0  0.31800  0.45270  0.27000  1.0000 0.1206895379
H   H103      1.0  0.31800  0.04730  0.77000  1.0000 0.1206895379
H   H104      1.0  0.68200  0.54730  0.73000  1.0000 0.1206895379
H   H105      1.0  0.65010  0.69730  0.29870  1.0000 0.1322802266
H   H106      1.0  0.34990  0.19730  0.20130  1.0000 0.1322802266
H   H107      1.0  0.34990  0.30270  0.70130  1.0000 0.1322802266
H   H108      1.0  0.65010  0.80270  0.79870  1.0000 0.1322802266
H   H109      1.0  0.65990  0.55880  0.25450  1.0000 0.1368626901
H   H110      1.0  0.34010  0.05880  0.24550  1.0000 0.1368626901
H   H111      1.0  0.34010  0.44120  0.74550  1.0000 0.1368626901
H   H112      1.0  0.65990  0.94120  0.75450  1.0000 0.1368626901
H   H113      1.0  0.86230  0.48320  0.04280  1.0000 0.1322802266
H   H114      1.0  0.13770  0.98320  0.45720  1.0000 0.1322802266
H   H115      1.0  0.13770  0.51680  0.95720  1.0000 0.1322802266
H   H116      1.0  0.86230  0.01680  0.54280  1.0000 0.1322802266
H   H117      1.0  0.81420  0.53000  0.98660  1.0000 0.1206895379
H   H118      1.0  0.18580  0.03000  0.51340  1.0000 0.1206895379
H   H119      1.0  0.18580  0.47000  0.01340  1.0000 0.1206895379
H   H120      1.0  0.81420  0.97000  0.48660  1.0000 0.1206895379
H   H121      1.0  0.79010  0.85550  0.02110  1.0000 0.1206895379
H   H122      1.0  0.20990  0.35550  0.47890  1.0000 0.1206895379
H   H123      1.0  0.20990  0.14450  0.97890  1.0000 0.1206895379
H   H124      1.0  0.79010  0.64450  0.52110  1.0000 0.1206895379
H   H125      1.0  0.83750  0.80610  0.08010  1.0000 0.1206895379
H   H126      1.0  0.16250  0.30610  0.41990  1.0000 0.1206895379
H   H127      1.0  0.16250  0.19390  0.91990  1.0000 0.1206895379
H   H128      1.0  0.83750  0.69390  0.58010  1.0000 0.1206895379
H   H129      1.0  0.05600  0.76960  0.17630  1.0000 0.1322802266
H   H130      1.0  0.94400  0.26960  0.32370  1.0000 0.1322802266
H   H131      1.0  0.94400  0.23040  0.82370  1.0000 0.1322802266
H   H132      1.0  0.05600  0.73040  0.67630  1.0000 0.1322802266
H   H133      1.0  0.14620  0.74900  0.16690  1.0000 0.1206895379
H   H134      1.0  0.85380  0.24900  0.33310  1.0000 0.1206895379
H   H135      1.0  0.85380  0.25100  0.83310  1.0000 0.1206895379
H   H136      1.0  0.14620  0.75100  0.66690  1.0000 0.1206895379
H   H137      1.0  0.12490  0.40200  0.15760  1.0000 0.1206895379
H   H138      1.0  0.87510  0.90200  0.34240  1.0000 0.1206895379
H   H139      1.0  0.87510  0.59800  0.84240  1.0000 0.1206895379
H   H140      1.0  0.12490  0.09800  0.65760  1.0000 0.1206895379
H   H141      1.0  0.03520  0.42240  0.16890  1.0000 0.1206895379
H   H142      1.0  0.96480  0.92240  0.33110  1.0000 0.1206895379
H   H143      1.0  0.96480  0.57760  0.83110  1.0000 0.1206895379
H   H144      1.0  0.03520  0.07760  0.66890  1.0000 0.1206895379
H   H145      1.0  0.84590  0.40210  0.26600  1.0000 0.1322802266
H   H146      1.0  0.15410  0.90210  0.23400  1.0000 0.1322802266
H   H147      1.0  0.15410  0.59790  0.73400  1.0000 0.1322802266
H   H148      1.0  0.84590  0.09790  0.76600  1.0000 0.1322802266
H   H149      1.0  0.79270  0.41370  0.31390  1.0000 0.1206895379
H   H150      1.0  0.20730  0.91370  0.18610  1.0000 0.1206895379
H   H151      1.0  0.20730  0.58630  0.68610  1.0000 0.1206895379
H   H152      1.0  0.79270  0.08630  0.81390  1.0000 0.1206895379
H   H153      1.0  0.79350  0.76540  0.30840  1.0000 0.1206895379
H   H154      1.0  0.20650  0.26540  0.19160  1.0000 0.1206895379
H   H155      1.0  0.20650  0.23460  0.69160  1.0000 0.1206895379
H   H156      1.0  0.79350  0.73460  0.80840  1.0000 0.1206895379
H   H157      1.0  0.84360  0.75450  0.25830  1.0000 0.1206895379
H   H158      1.0  0.15640  0.25450  0.24170  1.0000 0.1206895379
H   H159      1.0  0.15640  0.24550  0.74170  1.0000 0.1206895379
H   H160      1.0  0.84360  0.74550  0.75830  1.0000 0.1206895379
C   C1        1.0  0.74730  0.44310  0.14870  1.0000 -0.0877387438
C   C2        1.0  0.25270  0.94310  0.35130  1.0000 -0.0877387438
C   C3        1.0  0.25270  0.55690  0.85130  1.0000 -0.0877387438
C   C4        1.0  0.74730  0.05690  0.64870  1.0000 -0.0877387438
C   C5        1.0  0.69270  0.50000  0.13261  1.0000 0.0696166293
C   C6        1.0  0.30730  0.00000  0.36739  1.0000 0.0696166293
C   C7        1.0  0.30730  0.50000  0.86739  1.0000 0.0696166293
C   C8        1.0  0.69270  0.00000  0.63261  1.0000 0.0696166293
C   C9        1.0  0.69260  0.53050  0.09204  1.0000 -0.0877387438
C   C10       1.0  0.30740  0.03050  0.40796  1.0000 -0.0877387438
C   C11       1.0  0.30740  0.46950  0.90796  1.0000 -0.0877387438
C   C12       1.0  0.69260  0.96950  0.59204  1.0000 -0.0877387438
C   C13       1.0  0.64610  0.41360  0.13720  1.0000 -0.0877387438
C   C14       1.0  0.35390  0.91360  0.36280  1.0000 -0.0877387438
C   C15       1.0  0.35390  0.58640  0.86280  1.0000 -0.0877387438
C   C16       1.0  0.64610  0.08640  0.63720  1.0000 -0.0877387438
C   C17       1.0  0.68450  0.61480  0.15280  1.0000 -0.0789802052
C   C18       1.0  0.31550  0.11480  0.34720  1.0000 -0.0789802052
C   C19       1.0  0.31550  0.38520  0.84720  1.0000 -0.0789802052
C   C20       1.0  0.68450  0.88520  0.65280  1.0000 -0.0877387438
C   C21       1.0  0.84350  0.47860  0.15710  1.0000 -0.0877387438
C   C22       1.0  0.15650  0.97860  0.34290  1.0000 -0.0877387438
C   C23       1.0  0.15650  0.52140  0.84290  1.0000 -0.0877387438
C   C24       1.0  0.84350  0.02140  0.65710  1.0000 -0.0877387438
C   C25       1.0  0.88410  0.58090  0.16470  1.0000 0.0622176365
C   C26       1.0  0.11590  0.08090  0.33530  1.0000 0.0622176365
C   C27       1.0  0.11590  0.41910  0.83530  1.0000 0.0622176365
C   C28       1.0  0.88410  0.91910  0.66470  1.0000 0.0622176365
C   C29       1.0  0.87630  0.66830  0.13250  1.0000 -0.0877387438
C   C30       1.0  0.12370  0.16830  0.36750  1.0000 -0.0877387438
C   C31       1.0  0.12370  0.33170  0.86750  1.0000 -0.0877387438
C   C32       1.0  0.87630  0.83170  0.63250  1.0000 -0.0877387438
C   C33       1.0  0.94270  0.52880  0.16890  1.0000 -0.0877387438
C   C34       1.0  0.05730  0.02880  0.33110  1.0000 -0.0877387438
C   C35       1.0  0.05730  0.47120  0.83110  1.0000 -0.0877387438
C   C36       1.0  0.94270  0.97120  0.66890  1.0000 -0.0877387438
C   C37       1.0  0.87440  0.64690  0.19950  1.0000 -0.0877387438
C   C38       1.0  0.12560  0.14690  0.30050  1.0000 -0.0877387438
C   C39       1.0  0.12560  0.35310  0.80050  1.0000 -0.0877387438
C   C40       1.0  0.87440  0.85310  0.69950  1.0000 -0.0877387438
C   C41       1.0  0.69470  0.41980  0.03590  1.0000 0.2496996228
C   C42       1.0  0.30530  0.91980  0.46410  1.0000 0.2496996228
C   C43       1.0  0.30530  0.58020  0.96410  1.0000 0.2496996228
C   C44       1.0  0.69470  0.08020  0.53590  1.0000 0.2496996228
C   C45       1.0  0.70560  0.31230  0.02120  1.0000 -0.2189406953
C   C46       1.0  0.29440  0.81230  0.47880  1.0000 -0.2189406953
C   C47       1.0  0.29440  0.68770  0.97880  1.0000 -0.2189406953
C   C48       1.0  0.70560  0.18770  0.52120  1.0000 -0.2189406953
C   C49       1.0  0.69940  0.29670  0.98330  1.0000 -0.0789802052
C   C50       1.0  0.30060  0.79670  0.51670  1.0000 -0.0789802052
C   C51       1.0  0.30060  0.70330  0.01670  1.0000 -0.0789802052
C   C52       1.0  0.69940  0.20330  0.48330  1.0000 -0.0789802052
C   C53       1.0  0.68390  0.38880  0.95945  1.0000 -0.058960794
C   C54       1.0  0.31610  0.88880  0.54055  1.0000 -0.058960794
C   C55       1.0  0.31610  0.61120  0.04055  1.0000 -0.058960794
C   C56       1.0  0.68390  0.11120  0.45945  1.0000 -0.058960794
C   C57       1.0  0.67490  0.49800  0.97489  1.0000 -0.0719031197
C   C58       1.0  0.32510  0.99800  0.52511  1.0000 -0.0719031197
C   C59       1.0  0.32510  0.50200  0.02511  1.0000 -0.0719031197
C   C60       1.0  0.67490  0.00200  0.47489  1.0000 -0.0719031197
C   C61       1.0  0.68010  0.51380  0.01250  1.0000 -0.2287028726
C   C62       1.0  0.31990  0.01380  0.48750  1.0000 -0.2287028726
C   C63       1.0  0.31990  0.48620  0.98750  1.0000 -0.2287028726
C   C64       1.0  0.68010  0.98620  0.51250  1.0000 -0.2287028726
C   C65       1.0  0.67860  0.37110  0.91900  1.0000 0.5767600187
C   C66       1.0  0.32140  0.87110  0.58100  1.0000 0.5767600187
C   C67       1.0  0.32140  0.62890  0.08100  1.0000 0.5767600187
C   C68       1.0  0.67860  0.12890  0.41900  1.0000 0.5767600187
C   C69       1.0  0.54880  0.39880  0.12430  1.0000 0.2633346193
C   C70       1.0  0.45120  0.89880  0.37570  1.0000 0.2633346193
C   C71       1.0  0.45120  0.60120  0.87570  1.0000 0.2633346193
C   C72       1.0  0.54880  0.10120  0.62430  1.0000 0.2633346193
C   C73       1.0  0.54850  0.28420  0.13630  1.0000 -0.2609873578
C   C74       1.0  0.45150  0.78420  0.36370  1.0000 -0.2609873578
C   C75       1.0  0.45150  0.71580  0.86370  1.0000 -0.2609873578
C   C76       1.0  0.54850  0.21580  0.63630  1.0000 -0.2609873578
C   C77       1.0  0.49880  0.22310  0.13420  1.0000 -0.058960794
C   C78       1.0  0.50120  0.72310  0.36580  1.0000 -0.058960794
C   C79       1.0  0.50120  0.77690  0.86580  1.0000 -0.051620075
C   C80       1.0  0.49880  0.27690  0.63420  1.0000 -0.051620075
C   C81       1.0  0.44830  0.27680  0.12150  1.0000 -0.058960794
C   C82       1.0  0.55170  0.77680  0.37850  1.0000 -0.058960794
C   C83       1.0  0.55170  0.72320  0.87850  1.0000 -0.058960794
C   C84       1.0  0.44830  0.22320  0.62150  1.0000 -0.058960794
C   C85       1.0  0.44890  0.39460  0.11110  1.0000 -0.0789802052
C   C86       1.0  0.55110  0.89460  0.38890  1.0000 -0.0789802052
C   C87       1.0  0.55110  0.60540  0.88890  1.0000 -0.0789802052
C   C88       1.0  0.44890  0.10540  0.61110  1.0000 -0.0789802052
C   C89       1.0  0.49820  0.45500  0.11250  1.0000 -0.2189406953
C   C90       1.0  0.50180  0.95500  0.38750  1.0000 -0.2189406953
C   C91       1.0  0.50180  0.54500  0.88750  1.0000 -0.2189406953
C   C92       1.0  0.49820  0.04500  0.61250  1.0000 -0.2189406953
C   C93       1.0  0.39640  0.20970  0.11800  1.0000 0.5704478272
C   C94       1.0  0.60360  0.70970  0.38200  1.0000 0.5704478272
C   C95       1.0  0.60360  0.79030  0.88200  1.0000 0.5704478272
C   C96       1.0  0.39640  0.29030  0.61800  1.0000 0.5704478272
C   C97       1.0  0.67570  0.67330  0.21502  1.0000 0.2496996228
C   C98       1.0  0.32430  0.17330  0.28498  1.0000 0.2496996228
C   C99       1.0  0.32430  0.32670  0.78498  1.0000 0.2496996228
C   C100      1.0  0.67570  0.82670  0.71502  1.0000 0.2496996228
C   C101      1.0  0.68120  0.79150  0.20732  1.0000 -0.2417543861
C   C102      1.0  0.31880  0.29150  0.29268  1.0000 -0.2417543861
C   C103      1.0  0.31880  0.20850  0.79268  1.0000 -0.2417543861
C   C104      1.0  0.68120  0.70850  0.70732  1.0000 -0.2417543861
C   C105      1.0  0.67690  0.87340  0.23470  1.0000 -0.0789802052
C   C106      1.0  0.32310  0.37340  0.26530  1.0000 -0.0789802052
C   C107      1.0  0.32310  0.12660  0.76530  1.0000 -0.0789802052
C   C108      1.0  0.67690  0.62660  0.73470  1.0000 -0.0789802052
C   C109      1.0  0.66520  0.83930  0.26900  1.0000 -0.051620075
C   C110      1.0  0.33480  0.33930  0.23100  1.0000 -0.051620075
C   C111      1.0  0.33480  0.16070  0.73100  1.0000 -0.051620075
C   C112      1.0  0.66520  0.66070  0.76900  1.0000 -0.051620075
C   C113      1.0  0.65850  0.72110  0.27578  1.0000 -0.0789802052
C   C114      1.0  0.34150  0.22110  0.22422  1.0000 -0.0789802052
C   C115      1.0  0.34150  0.27890  0.72422  1.0000 -0.0789802052
C   C116      1.0  0.65850  0.77890  0.77578  1.0000 -0.0789802052
C   C117      1.0  0.66400  0.63820  0.24936  1.0000 -0.208054421
C   C118      1.0  0.33600  0.13820  0.25064  1.0000 -0.208054421
C   C119      1.0  0.33600  0.36180  0.75064  1.0000 -0.208054421
C   C120      1.0  0.66400  0.86180  0.74936  1.0000 -0.208054421
C   C121      1.0  0.66270  0.92920  0.29863  1.0000 0.5892866649
C   C122      1.0  0.33730  0.42920  0.20137  1.0000 0.5892866649
C   C123      1.0  0.33730  0.07080  0.70137  1.0000 0.5892866649
C   C124      1.0  0.66270  0.57080  0.79863  1.0000 0.5892866649
C   C125      1.0  0.85370  0.64010  0.06720  1.0000 0.2496996228
C   C126      1.0  0.14630  0.14010  0.43280  1.0000 0.2496996228
C   C127      1.0  0.14630  0.35990  0.93280  1.0000 0.2496996228
C   C128      1.0  0.85370  0.85990  0.56720  1.0000 0.2496996228
C   C129      1.0  0.84740  0.55820  0.03880  1.0000 -0.2287028726
C   C130      1.0  0.15260  0.05820  0.46120  1.0000 -0.2287028726
C   C131      1.0  0.15260  0.44180  0.96120  1.0000 -0.2287028726
C   C132      1.0  0.84740  0.94180  0.53880  1.0000 -0.2287028726
C   C133      1.0  0.81920  0.58710  0.00500  1.0000 -0.0789802052
C   C134      1.0  0.18080  0.08710  0.49500  1.0000 -0.0789802052
C   C135      1.0  0.18080  0.41290  0.99500  1.0000 -0.0789802052
C   C136      1.0  0.81920  0.91290  0.50500  1.0000 -0.0789802052
C   C137      1.0  0.79800  0.69800  0.99740  1.0000 -0.0719031197
C   C138      1.0  0.20200  0.19800  0.50260  1.0000 -0.0719031197
C   C139      1.0  0.20200  0.30200  0.00260  1.0000 -0.0719031197
C   C140      1.0  0.79800  0.80200  0.49740  1.0000 -0.0719031197
C   C141      1.0  0.80440  0.78020  0.02540  1.0000 -0.0789802052
C   C142      1.0  0.19560  0.28020  0.47460  1.0000 -0.0789802052
C   C143      1.0  0.19560  0.21980  0.97460  1.0000 -0.0789802052
C   C144      1.0  0.80440  0.71980  0.52540  1.0000 -0.0789802052
C   C145      1.0  0.83310  0.75050  0.06130  1.0000 -0.2609873578
C   C146      1.0  0.16690  0.25050  0.43870  1.0000 -0.2609873578
C   C147      1.0  0.16690  0.24950  0.93870  1.0000 -0.2609873578
C   C148      1.0  0.83310  0.74950  0.56130  1.0000 -0.2609873578
C   C149      1.0  0.76690  0.72730  0.96040  1.0000 0.5982394167
C   C150      1.0  0.23310  0.22730  0.53960  1.0000 0.5982394167
C   C151      1.0  0.23310  0.27270  0.03960  1.0000 0.5982394167
C   C152      1.0  0.76690  0.77270  0.46040  1.0000 0.5982394167
C   C153      1.0  0.03640  0.59920  0.17170  1.0000 0.2407961213
C   C154      1.0  0.96360  0.09920  0.32830  1.0000 0.2407961213
C   C155      1.0  0.96360  0.40080  0.82830  1.0000 0.2407961213
C   C156      1.0  0.03640  0.90080  0.67170  1.0000 0.2407961213
C   C157      1.0  0.07000  0.69520  0.17220  1.0000 -0.208054421
C   C158      1.0  0.93000  0.19520  0.32780  1.0000 -0.208054421
C   C159      1.0  0.93000  0.30480  0.82780  1.0000 -0.208054421
C   C160      1.0  0.07000  0.80480  0.67220  1.0000 -0.208054421
C   C161      1.0  0.12390  0.68260  0.16670  1.0000 -0.0877387438
C   C162      1.0  0.87610  0.18260  0.33333  1.0000 -0.0877387438
C   C163      1.0  0.87610  0.31740  0.83330  1.0000 -0.0877387438
C   C164      1.0  0.12390  0.81740  0.66667  1.0000 -0.0877387438
C   C165      1.0  0.14620  0.57280  0.16100  1.0000 -0.051620075
C   C166      1.0  0.85380  0.07280  0.33900  1.0000 -0.058960794
C   C167      1.0  0.85380  0.42720  0.83900  1.0000 -0.058960794
C   C168      1.0  0.14620  0.92720  0.66100  1.0000 -0.051620075
C   C169      1.0  0.11130  0.47670  0.16150  1.0000 -0.0877387438
C   C170      1.0  0.88870  0.97670  0.33850  1.0000 -0.0877387438
C   C171      1.0  0.88870  0.52330  0.83850  1.0000 -0.0877387438
C   C172      1.0  0.11130  0.02330  0.66150  1.0000 -0.0877387438
C   C173      1.0  0.05740  0.48850  0.16760  1.0000 -0.2287028726
C   C174      1.0  0.94260  0.98850  0.33240  1.0000 -0.2287028726
C   C175      1.0  0.94260  0.51150  0.83240  1.0000 -0.2287028726
C   C176      1.0  0.05740  0.01150  0.66760  1.0000 -0.2287028726
C   C177      1.0  0.20480  0.55620  0.15370  1.0000 0.5892866649
C   C178      1.0  0.79520  0.05620  0.34630  1.0000 0.5892866649
C   C179      1.0  0.79520  0.44380  0.84630  1.0000 0.5892866649
C   C180      1.0  0.20480  0.94380  0.65370  1.0000 0.5892866649
C   C181      1.0  0.84910  0.57940  0.25740  1.0000 0.2496996228
C   C182      1.0  0.15090  0.07940  0.24260  1.0000 0.2496996228
C   C183      1.0  0.15090  0.42060  0.74260  1.0000 0.2496996228
C   C184      1.0  0.84910  0.92060  0.75740  1.0000 0.2496996228
C   C185      1.0  0.83470  0.47470  0.27410  1.0000 -0.2287028726
C   C186      1.0  0.16530  0.97470  0.22590  1.0000 -0.2287028726
C   C187      1.0  0.16530  0.52530  0.72590  1.0000 -0.2287028726
C   C188      1.0  0.83470  0.02530  0.77410  1.0000 -0.2287028726
C   C189      1.0  0.80340  0.48230  0.30290  1.0000 -0.0789802052
C   C190      1.0  0.19660  0.98230  0.19710  1.0000 -0.0789802052
C   C191      1.0  0.19660  0.51770  0.69710  1.0000 -0.0789802052
C   C192      1.0  0.80340  0.01770  0.80290  1.0000 -0.0789802052
C   C193      1.0  0.78780  0.58910  0.31558  1.0000 -0.0393142742
C   C194      1.0  0.21220  0.08910  0.18442  1.0000 -0.0393142742
C   C195      1.0  0.21220  0.41090  0.68442  1.0000 -0.0393142742
C   C196      1.0  0.78780  0.91090  0.81558  1.0000 -0.0393142742
C   C197      1.0  0.80320  0.69280  0.29950  1.0000 -0.0719031197
C   C198      1.0  0.19680  0.19280  0.20050  1.0000 -0.0719031197
C   C199      1.0  0.19680  0.30720  0.70050  1.0000 -0.0719031197
C   C200      1.0  0.80320  0.80720  0.79950  1.0000 -0.0719031197
C   C201      1.0  0.83380  0.68600  0.26970  1.0000 -0.2417543861
C   C202      1.0  0.16620  0.18600  0.23030  1.0000 -0.2417543861
C   C203      1.0  0.16620  0.31400  0.73030  1.0000 -0.2417543861
C   C204      1.0  0.83380  0.81400  0.76970  1.0000 -0.2417543861
C   C205      1.0  0.75440  0.59530  0.34772  1.0000 0.5704478272
C   C206      1.0  0.24560  0.09530  0.15228  1.0000 0.5704478272
C   C207      1.0  0.24560  0.40470  0.65228  1.0000 0.5704478272
C   C208      1.0  0.75440  0.90470  0.84772  1.0000 0.5704478272
O   O1        1.0  0.78990  0.52590  0.14811  1.0000 -0.1999632581
O   O2        1.0  0.21010  0.02590  0.35189  1.0000 -0.1999632581
O   O3        1.0  0.21010  0.47410  0.85189  1.0000 -0.1999632581
O   O4        1.0  0.78990  0.97410  0.64811  1.0000 -0.1999632581
O   O5        1.0  0.70130  0.42370  0.07356  1.0000 -0.1826598696
O   O6        1.0  0.29870  0.92370  0.42644  1.0000 -0.1826598696
O   O7        1.0  0.29870  0.57630  0.92644  1.0000 -0.1826598696
O   O8        1.0  0.70130  0.07630  0.57356  1.0000 -0.1826598696
O   O9        1.0  0.59468  0.46590  0.12380  1.0000 -0.1907128644
O   O10       1.0  0.40532  0.96590  0.37620  1.0000 -0.1907128644
O   O11       1.0  0.40532  0.53410  0.87620  1.0000 -0.1907128644
O   O12       1.0  0.59468  0.03410  0.62380  1.0000 -0.1907128644
O   O13       1.0  0.68010  0.58420  0.19004  1.0000 -0.1907128644
O   O14       1.0  0.31990  0.08420  0.30996  1.0000 -0.1907128644
O   O15       1.0  0.31990  0.41580  0.80996  1.0000 -0.1907128644
O   O16       1.0  0.68010  0.91580  0.69004  1.0000 -0.1907128644
O   O17       1.0  0.88180  0.60380  0.09959  1.0000 -0.1826598696
O   O18       1.0  0.11820  0.10380  0.40041  1.0000 -0.1826598696
O   O19       1.0  0.11820  0.39620  0.90041  1.0000 -0.1826598696
O   O20       1.0  0.88180  0.89620  0.59959  1.0000 -0.1826598696
O   O21       1.0  0.98160  0.62260  0.17570  1.0000 -0.1999632581
O   O22       1.0  0.01840  0.12260  0.32430  1.0000 -0.1999632581
O   O23       1.0  0.01840  0.37740  0.82430  1.0000 -0.1999632581
O   O24       1.0  0.98160  0.87740  0.67570  1.0000 -0.1999632581
O   O25       1.0  0.88040  0.56400  0.22909  1.0000 -0.1907128644
O   O26       1.0  0.11960  0.06400  0.27091  1.0000 -0.1907128644
O   O27       1.0  0.11960  0.43600  0.77091  1.0000 -0.1907128644
O   O28       1.0  0.88040  0.93600  0.72909  1.0000 -0.1907128644
O   O29       1.0  0.67690  0.27030  0.90570  1.0000 -0.5294087432
O   O30       1.0  0.32310  0.77030  0.59430  1.0000 -0.5294087432
O   O31       1.0  0.32310  0.72970  0.09430  1.0000 -0.5294087432
O   O32       1.0  0.67690  0.22970  0.40570  1.0000 -0.5294087432
O   O33       1.0  0.67610  0.45950  0.89793  1.0000 -0.5885469368
O   O34       1.0  0.32390  0.95950  0.60207  1.0000 -0.5885469368
O   O35       1.0  0.32390  0.54050  0.10207  1.0000 -0.5885469368
O   O36       1.0  0.67610  0.04050  0.39793  1.0000 -0.5885469368
O   O37       1.0  0.35290  0.25240  0.09876  1.0000 -0.6083056382
O   O38       1.0  0.64710  0.75240  0.40124  1.0000 -0.6083056382
O   O39       1.0  0.64710  0.74760  0.90124  1.0000 -0.6083056382
O   O40       1.0  0.35290  0.24760  0.59876  1.0000 -0.6083056382
O   O41       1.0  0.39700  0.10700  0.13070  1.0000 -0.5378534696
O   O42       1.0  0.60300  0.60700  0.36930  1.0000 -0.5378534696
O   O43       1.0  0.60300  0.89300  0.86930  1.0000 -0.5378534696
O   O44       1.0  0.39700  0.39300  0.63070  1.0000 -0.5378534696
O   O45       1.0  0.66630  0.03580  0.29013  1.0000 -0.5378534696
O   O46       1.0  0.33370  0.53580  0.20987  1.0000 -0.5378534696
O   O47       1.0  0.33370  0.96420  0.70987  1.0000 -0.5378534696
O   O48       1.0  0.66630  0.46420  0.79013  1.0000 -0.5378534696
O   O49       1.0  0.65540  0.89380  0.33032  1.0000 -0.5885469368
O   O50       1.0  0.34460  0.39380  0.16968  1.0000 -0.5885469368
O   O51       1.0  0.34460  0.10620  0.66968  1.0000 -0.5885469368
O   O52       1.0  0.65540  0.60620  0.83032  1.0000 -0.5885469368
O   O53       1.0  0.76700  0.65340  0.93573  1.0000 -0.5378534696
O   O54       1.0  0.23300  0.15340  0.56427  1.0000 -0.5378534696
O   O55       1.0  0.23300  0.34660  0.06427  1.0000 -0.5378534696
O   O56       1.0  0.76700  0.84660  0.43573  1.0000 -0.5378534696
O   O57       1.0  0.74390  0.82600  0.95737  1.0000 -0.5617946438
O   O58       1.0  0.25610  0.32600  0.54263  1.0000 -0.5617946438
O   O59       1.0  0.25610  0.17400  0.04263  1.0000 -0.5617946438
O   O60       1.0  0.74390  0.67400  0.45737  1.0000 -0.5617946438
O   O61       1.0  0.21970  0.45410  0.14705  1.0000 -0.5661076061
O   O62       1.0  0.78030  0.95410  0.35295  1.0000 -0.5661076061
O   O63       1.0  0.78030  0.54590  0.85295  1.0000 -0.5661076061
O   O64       1.0  0.21970  0.04590  0.64705  1.0000 -0.5661076061
O   O65       1.0  0.23470  0.64740  0.15437  1.0000 -0.5465790085
O   O66       1.0  0.76530  0.14740  0.34563  1.0000 -0.5465790085
O   O67       1.0  0.76530  0.35260  0.84563  1.0000 -0.5465790085
O   O68       1.0  0.23470  0.85260  0.65437  1.0000 -0.5465790085
O   O69       1.0  0.75230  0.68890  0.36422  1.0000 -0.5661076061
O   O70       1.0  0.24770  0.18890  0.13578  1.0000 -0.5661076061
O   O71       1.0  0.24770  0.31110  0.63578  1.0000 -0.5661076061
O   O72       1.0  0.75230  0.81110  0.86422  1.0000 -0.5661076061
O   O73       1.0  0.73250  0.50300  0.35727  1.0000 -0.5235733441
O   O74       1.0  0.26750  0.00300  0.14273  1.0000 -0.5235733441
O   O75       1.0  0.26750  0.49700  0.64273  1.0000 -0.5235733441
O   O76       1.0  0.73250  0.99700  0.85727  1.0000 -0.5235733441
