# DDEC6 charges by PACMAN v1.1 (https://github.com/mtap-research/PACMAN-charge/)
data_2012[Zn][nbo]3[ASR]1
_chemical_formula_sum              "Zn6 H18 C54 O24"
_cell_length_a       15.4128
_cell_length_b       15.4128
_cell_length_c       15.4128
_cell_angle_alpha    76.3412
_cell_angle_beta     76.3412
_cell_angle_gamma    76.3412

_symmetry_space_group_name_H-M    "P 1"
_symmetry_Int_Tables_number       1

loop_
  _symmetry_equiv_pos_as_xyz
  'x, y, z'

loop_
  _atom_site_type_symbol
  _atom_site_label
  _atom_site_symmetry_multiplicity
  _atom_site_fract_x
  _atom_site_fract_y
  _atom_site_fract_z
  _atom_site_occupancy
  _atom_site_charge
Zn  Zn1       1.0  0.48674  0.91179  0.48674  1.0000 0.9347014191
Zn  Zn2       1.0  0.91179  0.48674  0.48674  1.0000 0.9347014191
Zn  Zn3       1.0  0.48674  0.48674  0.91179  1.0000 0.9347014191
Zn  Zn4       1.0  0.51326  0.51326  0.08821  1.0000 0.9356512788
Zn  Zn5       1.0  0.08821  0.51326  0.51326  1.0000 0.9347014191
Zn  Zn6       1.0  0.51326  0.08821  0.51326  1.0000 0.9356512788
H   H1        1.0  0.80310  0.01320  0.49360  1.0000 0.1339430342
H   H2        1.0  0.01320  0.49360  0.80310  1.0000 0.1339430342
H   H3        1.0  0.49360  0.80310  0.01320  1.0000 0.1339430342
H   H4        1.0  0.19690  0.50640  0.98680  1.0000 0.1339430342
H   H5        1.0  0.98680  0.19690  0.50640  1.0000 0.1339430342
H   H6        1.0  0.50640  0.98680  0.19690  1.0000 0.1339430342
H   H7        1.0  0.19690  0.98680  0.50640  1.0000 0.1339430342
H   H8        1.0  0.98680  0.50640  0.19690  1.0000 0.1339430342
H   H9        1.0  0.50640  0.19690  0.98680  1.0000 0.1339430342
H   H10       1.0  0.80310  0.49360  0.01320  1.0000 0.1339430342
H   H11       1.0  0.01320  0.80310  0.49360  1.0000 0.1339430342
H   H12       1.0  0.49360  0.01320  0.80310  1.0000 0.1339430342
H   H13       1.0  0.76750  0.76750  0.47700  1.0000 0.1339430342
H   H14       1.0  0.76750  0.47700  0.76750  1.0000 0.1339430342
H   H15       1.0  0.47700  0.76750  0.76750  1.0000 0.1339430342
H   H16       1.0  0.23250  0.52300  0.23250  1.0000 0.1339430342
H   H17       1.0  0.23250  0.23250  0.52300  1.0000 0.1339430342
H   H18       1.0  0.52300  0.23250  0.23250  1.0000 0.1339430342
C   C1        1.0  0.67076  0.93450  0.48573  1.0000 0.5917958232
C   C2        1.0  0.93450  0.48573  0.67076  1.0000 0.5917958232
C   C3        1.0  0.48573  0.67076  0.93450  1.0000 0.5917958232
C   C4        1.0  0.32924  0.51427  0.06550  1.0000 0.5917958232
C   C5        1.0  0.06550  0.32924  0.51427  1.0000 0.5917958232
C   C6        1.0  0.51427  0.06550  0.32924  1.0000 0.5917958232
C   C7        1.0  0.32924  0.06550  0.51427  1.0000 0.5917958232
C   C8        1.0  0.06550  0.51427  0.32924  1.0000 0.5917958232
C   C9        1.0  0.51427  0.32924  0.06550  1.0000 0.5917958232
C   C10       1.0  0.67076  0.48573  0.93450  1.0000 0.5917958232
C   C11       1.0  0.93450  0.67076  0.48573  1.0000 0.5917958232
C   C12       1.0  0.48573  0.93450  0.67076  1.0000 0.5917958232
C   C13       1.0  0.76995  0.89617  0.48466  1.0000 -0.0339635198
C   C14       1.0  0.89617  0.48466  0.76995  1.0000 -0.0339635198
C   C15       1.0  0.48466  0.76995  0.89617  1.0000 -0.0339635198
C   C16       1.0  0.23005  0.51534  0.10383  1.0000 -0.0339635198
C   C17       1.0  0.10383  0.23005  0.51534  1.0000 -0.0350232137
C   C18       1.0  0.51534  0.10383  0.23005  1.0000 -0.0339635198
C   C19       1.0  0.23005  0.10383  0.51534  1.0000 -0.0339635198
C   C20       1.0  0.10383  0.51534  0.23005  1.0000 -0.0339635198
C   C21       1.0  0.51534  0.23005  0.10383  1.0000 -0.0339635198
C   C22       1.0  0.76995  0.48466  0.89617  1.0000 -0.0339635198
C   C23       1.0  0.89617  0.76995  0.48466  1.0000 -0.0339635198
C   C24       1.0  0.48466  0.89617  0.76995  1.0000 -0.0339635198
C   C25       1.0  0.82658  0.95238  0.49038  1.0000 -0.1306231816
C   C26       1.0  0.95238  0.49038  0.82658  1.0000 -0.1306231816
C   C27       1.0  0.49038  0.82658  0.95238  1.0000 -0.1306231816
C   C28       1.0  0.17342  0.50962  0.04762  1.0000 -0.1306231816
C   C29       1.0  0.04762  0.17342  0.50962  1.0000 -0.1306231816
C   C30       1.0  0.50962  0.04762  0.17342  1.0000 -0.1306231816
C   C31       1.0  0.17342  0.04762  0.50962  1.0000 -0.1306231816
C   C32       1.0  0.04762  0.50962  0.17342  1.0000 -0.1306231816
C   C33       1.0  0.50962  0.17342  0.04762  1.0000 -0.1306231816
C   C34       1.0  0.82658  0.49038  0.95238  1.0000 -0.1306231816
C   C35       1.0  0.95238  0.82658  0.49038  1.0000 -0.1306231816
C   C36       1.0  0.49038  0.95238  0.82658  1.0000 -0.1306231816
C   C37       1.0  0.91758  0.91758  0.49133  1.0000 0.1016799261
C   C38       1.0  0.91758  0.49133  0.91758  1.0000 0.1016799261
C   C39       1.0  0.49133  0.91758  0.91758  1.0000 0.1016799261
C   C40       1.0  0.08242  0.50867  0.08242  1.0000 0.1016799261
C   C41       1.0  0.08242  0.08242  0.50867  1.0000 0.1016799261
C   C42       1.0  0.50867  0.08242  0.08242  1.0000 0.1016799261
C   C43       1.0  0.97683  0.97683  0.49763  1.0000 -0.088142228
C   C44       1.0  0.97683  0.49763  0.97683  1.0000 -0.088142228
C   C45       1.0  0.49763  0.97683  0.97683  1.0000 -0.088142228
C   C46       1.0  0.02317  0.50237  0.02317  1.0000 -0.088142228
C   C47       1.0  0.02317  0.02317  0.50237  1.0000 -0.088142228
C   C48       1.0  0.50237  0.02317  0.02317  1.0000 -0.088142228
C   C49       1.0  0.80499  0.80499  0.48134  1.0000 -0.088142228
C   C50       1.0  0.80499  0.48134  0.80499  1.0000 -0.088142228
C   C51       1.0  0.48134  0.80499  0.80499  1.0000 -0.088142228
C   C52       1.0  0.19501  0.51866  0.19501  1.0000 -0.088142228
C   C53       1.0  0.19501  0.19501  0.51866  1.0000 -0.088142228
C   C54       1.0  0.51866  0.19501  0.19501  1.0000 -0.088142228
O   O1        1.0  0.64267  0.01421  0.49441  1.0000 -0.5234350599
O   O2        1.0  0.01421  0.49441  0.64267  1.0000 -0.5234350599
O   O3        1.0  0.49441  0.64267  0.01421  1.0000 -0.5234350599
O   O4        1.0  0.35733  0.50559  0.98579  1.0000 -0.5234350599
O   O5        1.0  0.98579  0.35733  0.50559  1.0000 -0.5234350599
O   O6        1.0  0.50559  0.98579  0.35733  1.0000 -0.5234350599
O   O7        1.0  0.35733  0.98579  0.50559  1.0000 -0.5234350599
O   O8        1.0  0.98579  0.50559  0.35733  1.0000 -0.5234350599
O   O9        1.0  0.50559  0.35733  0.98579  1.0000 -0.5234350599
O   O10       1.0  0.64267  0.49441  0.01421  1.0000 -0.5234350599
O   O11       1.0  0.01421  0.64267  0.49441  1.0000 -0.5234350599
O   O12       1.0  0.49441  0.01421  0.64267  1.0000 -0.5234350599
O   O13       1.0  0.62421  0.88075  0.47851  1.0000 -0.5345584305
O   O14       1.0  0.88075  0.47851  0.62421  1.0000 -0.5345584305
O   O15       1.0  0.47851  0.62421  0.88075  1.0000 -0.5351551411
O   O16       1.0  0.37579  0.52149  0.11925  1.0000 -0.5345584305
O   O17       1.0  0.11925  0.37579  0.52149  1.0000 -0.5351551411
O   O18       1.0  0.52149  0.11925  0.37579  1.0000 -0.5351551411
O   O19       1.0  0.37579  0.11925  0.52149  1.0000 -0.5345584305
O   O20       1.0  0.11925  0.52149  0.37579  1.0000 -0.5351551411
O   O21       1.0  0.52149  0.37579  0.11925  1.0000 -0.5345584305
O   O22       1.0  0.62421  0.47851  0.88075  1.0000 -0.5351551411
O   O23       1.0  0.88075  0.62421  0.47851  1.0000 -0.5345584305
O   O24       1.0  0.47851  0.88075  0.62421  1.0000 -0.5345584305
