# DDEC6 charges by PACMAN v1.1 (https://github.com/mtap-research/PACMAN-charge/)
data_2012[Zn][pcu]3[ASR]8
_chemical_formula_sum              "Zn4 H56 C68 N4 O16"
_cell_length_a       19.2564
_cell_length_b       15.21
_cell_length_c       15.21
_cell_angle_alpha    90
_cell_angle_beta     90
_cell_angle_gamma    90

_symmetry_space_group_name_H-M    "P 1"
_symmetry_Int_Tables_number       1

loop_
  _symmetry_equiv_pos_as_xyz
  'x, y, z'

loop_
  _atom_site_type_symbol
  _atom_site_label
  _atom_site_symmetry_multiplicity
  _atom_site_fract_x
  _atom_site_fract_y
  _atom_site_fract_z
  _atom_site_occupancy
  _atom_site_charge
Zn  Zn1       1.0  0.33310  0.00630  0.99312  1.0000 0.8485378367
Zn  Zn2       1.0  0.16716  0.00628  0.99315  1.0000 0.8485378367
Zn  Zn3       1.0  0.83309  0.00631  0.99311  1.0000 0.8485378367
Zn  Zn4       1.0  0.66716  0.00629  0.99311  1.0000 0.8485378367
H   H1        1.0  0.35932  0.97507  0.71977  1.0000 0.1016820527
H   H2        1.0  0.35930  0.97280  0.55946  1.0000 0.1016820527
H   H3        1.0  0.35893  0.03894  0.26661  1.0000 0.1016820527
H   H4        1.0  0.35887  0.04107  0.42690  1.0000 0.1016820527
H   H5        1.0  0.35930  0.27960  0.02430  1.0000 0.1016820527
H   H6        1.0  0.35925  0.43988  0.02668  1.0000 0.1016820527
H   H7        1.0  0.35923  0.73286  0.96190  1.0000 0.1016820527
H   H8        1.0  0.35919  0.57259  0.95953  1.0000 0.1016820527
H   H9        1.0  0.14102  0.03661  0.71959  1.0000 0.1016820527
H   H10       1.0  0.14115  0.03887  0.55935  1.0000 0.1016820527
H   H11       1.0  0.14147  0.97286  0.26666  1.0000 0.1016820527
H   H12       1.0  0.14159  0.97055  0.42692  1.0000 0.1016820527
H   H13       1.0  0.14114  0.73273  0.02460  1.0000 0.1016820527
H   H14       1.0  0.14127  0.57252  0.02702  1.0000 0.1016820527
H   H15       1.0  0.14109  0.27968  0.96226  1.0000 0.1016820527
H   H16       1.0  0.14121  0.43993  0.95981  1.0000 0.1016820527
H   H17       1.0  0.44026  0.87317  0.03501  1.0000 0.1016820527
H   H18       1.0  0.44019  0.88820  0.91840  1.0000 0.1016820527
H   H19       1.0  0.43978  0.10981  0.08781  1.0000 0.1016820527
H   H20       1.0  0.44071  0.00125  0.13285  1.0000 0.0938948286
H   H21       1.0  0.44026  0.03727  0.85619  1.0000 0.1016820527
H   H22       1.0  0.44015  0.13059  0.92749  1.0000 0.1016820527
H   H23       1.0  0.06024  0.13183  0.92982  1.0000 0.0938948286
H   H24       1.0  0.05972  0.03981  0.85687  1.0000 0.0938948286
H   H25       1.0  0.06030  0.88956  0.91629  1.0000 0.1016820527
H   H26       1.0  0.05965  0.87251  0.03263  1.0000 0.0938948286
H   H27       1.0  0.05968  0.99864  0.13278  1.0000 0.0938948286
H   H28       1.0  0.06019  0.10801  0.08975  1.0000 0.1016820527
H   H29       1.0  0.85938  0.97506  0.71973  1.0000 0.1016820527
H   H30       1.0  0.85934  0.97276  0.55941  1.0000 0.1016820527
H   H31       1.0  0.85893  0.03888  0.26655  1.0000 0.1016820527
H   H32       1.0  0.85891  0.04101  0.42684  1.0000 0.1016820527
H   H33       1.0  0.85926  0.27960  0.02424  1.0000 0.1016820527
H   H34       1.0  0.85921  0.43989  0.02659  1.0000 0.1016820527
H   H35       1.0  0.85920  0.73286  0.96179  1.0000 0.1016820527
H   H36       1.0  0.85914  0.57259  0.95943  1.0000 0.1016820527
H   H37       1.0  0.64109  0.03668  0.71957  1.0000 0.1016820527
H   H38       1.0  0.64120  0.03891  0.55933  1.0000 0.1016820527
H   H39       1.0  0.64146  0.97289  0.26666  1.0000 0.1016820527
H   H40       1.0  0.64160  0.97058  0.42691  1.0000 0.1016820527
H   H41       1.0  0.64113  0.73276  0.02457  1.0000 0.1016820527
H   H42       1.0  0.64125  0.57254  0.02699  1.0000 0.1016820527
H   H43       1.0  0.64104  0.27969  0.96226  1.0000 0.1016820527
H   H44       1.0  0.64117  0.43994  0.95980  1.0000 0.1016820527
H   H45       1.0  0.94029  0.87227  0.03201  1.0000 0.1016820527
H   H46       1.0  0.94016  0.88991  0.91577  1.0000 0.1016820527
H   H47       1.0  0.93979  0.10766  0.09012  1.0000 0.1016820527
H   H48       1.0  0.94067  0.99810  0.13270  1.0000 0.0938948286
H   H49       1.0  0.94026  0.04037  0.85693  1.0000 0.1016820527
H   H50       1.0  0.94017  0.13206  0.93032  1.0000 0.1016820527
H   H51       1.0  0.56027  0.13033  0.92690  1.0000 0.0938948286
H   H52       1.0  0.55967  0.03663  0.85611  1.0000 0.0938948286
H   H53       1.0  0.56029  0.88782  0.91897  1.0000 0.1016820527
H   H54       1.0  0.55968  0.87345  0.03566  1.0000 0.1016820527
H   H55       1.0  0.55972  0.00189  0.13290  1.0000 0.0938948286
H   H56       1.0  0.56018  0.11022  0.08734  1.0000 0.1016820527
C   C1        1.0  0.25012  0.00589  0.83379  1.0000 0.6077979472
C   C2        1.0  0.25015  0.00581  0.73402  1.0000 -0.0501892748
C   C3        1.0  0.25022  0.00581  0.54354  1.0000 0.0773309213
C   C4        1.0  0.25016  0.00596  0.15253  1.0000 0.6077979472
C   C5        1.0  0.25020  0.00587  0.25230  1.0000 -0.0501892748
C   C6        1.0  0.25023  0.00581  0.44278  1.0000 0.0773309213
C   C7        1.0  0.25017  0.16560  0.99329  1.0000 0.6077979472
C   C8        1.0  0.25019  0.26535  0.99331  1.0000 -0.0501892748
C   C9        1.0  0.25023  0.45583  0.99326  1.0000 0.0773309213
C   C10       1.0  0.25014  0.84687  0.99324  1.0000 0.6077979472
C   C11       1.0  0.25018  0.74711  0.99325  1.0000 -0.0501892748
C   C12       1.0  0.25023  0.55662  0.99326  1.0000 0.0773309213
C   C13       1.0  0.45984  0.91614  0.98126  1.0000 -0.0768746066
C   C14       1.0  0.45982  0.04203  0.07720  1.0000 -0.0768746066
C   C15       1.0  0.45979  0.06219  0.92031  1.0000 -0.0768746066
C   C16       1.0  0.04041  0.06366  0.92149  1.0000 -0.0768746066
C   C17       1.0  0.04037  0.91641  0.97948  1.0000 -0.0768746066
C   C18       1.0  0.04037  0.04033  0.07794  1.0000 -0.0746548581
C   C19       1.0  0.31121  0.98896  0.68562  1.0000 -0.0969017791
C   C20       1.0  0.31118  0.98839  0.59261  1.0000 -0.1484399024
C   C21       1.0  0.31102  0.02395  0.30072  1.0000 -0.0969017791
C   C22       1.0  0.31097  0.02448  0.39373  1.0000 -0.1484399024
C   C23       1.0  0.31121  0.31375  0.01030  1.0000 -0.0969017791
C   C24       1.0  0.31116  0.40676  0.01089  1.0000 -0.1484399024
C   C25       1.0  0.31117  0.69872  0.97607  1.0000 -0.0969017791
C   C26       1.0  0.31113  0.60570  0.97546  1.0000 -0.1484399024
C   C27       1.0  0.18914  0.02267  0.68554  1.0000 -0.0969017791
C   C28       1.0  0.18924  0.02324  0.59254  1.0000 -0.1484399024
C   C29       1.0  0.18940  0.98777  0.30075  1.0000 -0.0969017791
C   C30       1.0  0.18948  0.98716  0.39375  1.0000 -0.1484399024
C   C31       1.0  0.18922  0.69865  0.01045  1.0000 -0.0969017791
C   C32       1.0  0.18932  0.60566  0.01107  1.0000 -0.1484399024
C   C33       1.0  0.18919  0.31379  0.97627  1.0000 -0.0969017791
C   C34       1.0  0.18929  0.40679  0.97563  1.0000 -0.1484399024
C   C35       1.0  0.75019  0.00591  0.83376  1.0000 0.6077979472
C   C36       1.0  0.75022  0.00583  0.73398  1.0000 -0.0501892748
C   C37       1.0  0.75027  0.00581  0.54351  1.0000 0.0773309213
C   C38       1.0  0.75014  0.00596  0.15250  1.0000 0.6077979472
C   C39       1.0  0.75019  0.00587  0.25227  1.0000 -0.0501892748
C   C40       1.0  0.75026  0.00580  0.44274  1.0000 0.0773309213
C   C41       1.0  0.75012  0.16561  0.99326  1.0000 0.6077979472
C   C42       1.0  0.75014  0.26536  0.99327  1.0000 -0.0501892748
C   C43       1.0  0.75019  0.45584  0.99321  1.0000 0.0773309213
C   C44       1.0  0.75013  0.84688  0.99319  1.0000 0.6077979472
C   C45       1.0  0.75016  0.74712  0.99320  1.0000 -0.0501892748
C   C46       1.0  0.75020  0.55663  0.99321  1.0000 0.0773309213
C   C47       1.0  0.95984  0.91644  0.97923  1.0000 -0.0768746066
C   C48       1.0  0.95981  0.04012  0.07800  1.0000 -0.0768746066
C   C49       1.0  0.95979  0.06383  0.92160  1.0000 -0.0768746066
C   C50       1.0  0.54041  0.06200  0.92017  1.0000 -0.0768746066
C   C51       1.0  0.54037  0.91612  0.98153  1.0000 -0.0768746066
C   C52       1.0  0.54039  0.04227  0.07711  1.0000 -0.0746548581
C   C53       1.0  0.81127  0.98896  0.68558  1.0000 -0.0969017791
C   C54       1.0  0.81123  0.98838  0.59257  1.0000 -0.1484399024
C   C55       1.0  0.81103  0.02392  0.30067  1.0000 -0.0969017791
C   C56       1.0  0.81099  0.02444  0.39368  1.0000 -0.1484399024
C   C57       1.0  0.81117  0.31376  0.01024  1.0000 -0.0969017791
C   C58       1.0  0.81112  0.40677  0.01083  1.0000 -0.1484399024
C   C59       1.0  0.81114  0.69872  0.97598  1.0000 -0.0969017791
C   C60       1.0  0.81109  0.60571  0.97538  1.0000 -0.1484399024
C   C61       1.0  0.68921  0.02271  0.68551  1.0000 -0.0969017791
C   C62       1.0  0.68929  0.02327  0.59252  1.0000 -0.1484399024
C   C63       1.0  0.68939  0.98778  0.30073  1.0000 -0.0969017791
C   C64       1.0  0.68950  0.98717  0.39373  1.0000 -0.1484399024
C   C65       1.0  0.68920  0.69867  0.01040  1.0000 -0.0969017791
C   C66       1.0  0.68929  0.60567  0.01103  1.0000 -0.1484399024
C   C67       1.0  0.68914  0.31380  0.97625  1.0000 -0.0969017791
C   C68       1.0  0.68924  0.40680  0.97561  1.0000 -0.1484399024
N   N1        1.0  0.43318  0.00671  0.99295  1.0000 -0.1444145734
N   N2        1.0  0.06703  0.00673  0.99299  1.0000 -0.1444145734
N   N3        1.0  0.93318  0.00672  0.99296  1.0000 -0.1444145734
N   N4        1.0  0.56704  0.00672  0.99295  1.0000 -0.1444145734
O   O1        1.0  0.30754  0.88892  0.99293  1.0000 -0.5422873157
O   O2        1.0  0.19272  0.88888  0.99351  1.0000 -0.5422873157
O   O3        1.0  0.19274  0.00570  0.11052  1.0000 -0.5422873157
O   O4        1.0  0.19265  0.00624  0.87579  1.0000 -0.5422873157
O   O5        1.0  0.19267  0.12361  0.99302  1.0000 -0.5422873157
O   O6        1.0  0.30757  0.00635  0.11049  1.0000 -0.5422873157
O   O7        1.0  0.30756  0.00569  0.87581  1.0000 -0.5422873157
O   O8        1.0  0.30766  0.12361  0.99351  1.0000 -0.5422873157
O   O9        1.0  0.80753  0.88893  0.99290  1.0000 -0.5422873157
O   O10       1.0  0.69271  0.88889  0.99346  1.0000 -0.5422873157
O   O11       1.0  0.69272  0.00569  0.11049  1.0000 -0.5422873157
O   O12       1.0  0.69273  0.00626  0.87576  1.0000 -0.5422873157
O   O13       1.0  0.69262  0.12363  0.99298  1.0000 -0.5422873157
O   O14       1.0  0.80755  0.00636  0.11045  1.0000 -0.5422873157
O   O15       1.0  0.80764  0.00571  0.87577  1.0000 -0.5422873157
O   O16       1.0  0.80761  0.12362  0.99350  1.0000 -0.5422873157
