# DDEC6 charges by PACMAN v1.1 (https://github.com/mtap-research/PACMAN-charge/)
data_2012[Ce][seh]3[ASR]2
_chemical_formula_sum              "Ce6 H90 C162 O36"
_cell_length_a       16.5126
_cell_length_b       16.5126
_cell_length_c       24.5098
_cell_angle_alpha    90
_cell_angle_beta     90
_cell_angle_gamma    120

_symmetry_space_group_name_H-M    "P 1"
_symmetry_Int_Tables_number       1

loop_
  _symmetry_equiv_pos_as_xyz
  'x, y, z'

loop_
  _atom_site_type_symbol
  _atom_site_label
  _atom_site_symmetry_multiplicity
  _atom_site_fract_x
  _atom_site_fract_y
  _atom_site_fract_z
  _atom_site_occupancy
  _atom_site_charge
Ce  Ce1       1.0  0.07702  0.00000  0.00000  1.0000 1.9497112306
Ce  Ce2       1.0  0.07702  0.07702  0.16667  1.0000 1.9497112306
Ce  Ce3       1.0  0.00000  0.07702  0.33333  1.0000 1.9497112306
Ce  Ce4       1.0  0.92298  0.00000  0.50000  1.0000 1.9497112306
Ce  Ce5       1.0  0.92298  0.92298  0.66667  1.0000 1.9497112306
Ce  Ce6       1.0  0.00000  0.92298  0.83333  1.0000 1.9497112306
H   H1        1.0  0.97770  0.66100  0.00320  1.0000 0.1199312903
H   H2        1.0  0.31670  0.97770  0.16987  1.0000 0.1199312903
H   H3        1.0  0.33900  0.31670  0.33653  1.0000 0.1199312903
H   H4        1.0  0.02230  0.33900  0.50320  1.0000 0.1199312903
H   H5        1.0  0.68330  0.02230  0.66987  1.0000 0.1199312903
H   H6        1.0  0.66100  0.68330  0.83653  1.0000 0.1199312903
H   H7        1.0  0.33900  0.02230  0.83013  1.0000 0.1199312903
H   H8        1.0  0.31670  0.33900  0.99680  1.0000 0.1199312903
H   H9        1.0  0.97770  0.31670  0.16347  1.0000 0.1199312903
H   H10       1.0  0.66100  0.97770  0.33013  1.0000 0.1199312903
H   H11       1.0  0.68330  0.66100  0.49680  1.0000 0.1199312903
H   H12       1.0  0.02230  0.68330  0.66347  1.0000 0.1199312903
H   H13       1.0  0.88510  0.50080  0.98900  1.0000 0.1045834022
H   H14       1.0  0.38430  0.88510  0.15567  1.0000 0.1045834022
H   H15       1.0  0.49920  0.38430  0.32233  1.0000 0.1045834022
H   H16       1.0  0.11490  0.49920  0.48900  1.0000 0.1045834022
H   H17       1.0  0.61570  0.11490  0.65567  1.0000 0.1045834022
H   H18       1.0  0.50080  0.61570  0.82233  1.0000 0.1045834022
H   H19       1.0  0.49920  0.11490  0.84433  1.0000 0.1045834022
H   H20       1.0  0.38430  0.49920  0.01100  1.0000 0.1045834022
H   H21       1.0  0.88510  0.38430  0.17767  1.0000 0.1045834022
H   H22       1.0  0.50080  0.88510  0.34433  1.0000 0.1045834022
H   H23       1.0  0.61570  0.50080  0.51100  1.0000 0.1045834022
H   H24       1.0  0.11490  0.61570  0.67767  1.0000 0.1045834022
H   H25       1.0  0.71890  0.54470  0.89090  1.0000 0.1101384073
H   H26       1.0  0.17420  0.71890  0.05757  1.0000 0.1101384073
H   H27       1.0  0.45530  0.17420  0.22423  1.0000 0.1101384073
H   H28       1.0  0.28110  0.45530  0.39090  1.0000 0.1101384073
H   H29       1.0  0.82580  0.28110  0.55757  1.0000 0.1101384073
H   H30       1.0  0.54470  0.82580  0.72423  1.0000 0.1101384073
H   H31       1.0  0.45530  0.28110  0.94243  1.0000 0.1101384073
H   H32       1.0  0.17420  0.45530  0.10910  1.0000 0.1101384073
H   H33       1.0  0.71890  0.17420  0.27577  1.0000 0.1101384073
H   H34       1.0  0.54470  0.71890  0.44243  1.0000 0.1101384073
H   H35       1.0  0.82580  0.54470  0.60910  1.0000 0.1101384073
H   H36       1.0  0.28110  0.82580  0.77577  1.0000 0.1101384073
H   H37       1.0  0.80890  0.70580  0.90400  1.0000 0.1326985182
H   H38       1.0  0.10310  0.80890  0.07067  1.0000 0.1326985182
H   H39       1.0  0.29420  0.10310  0.23733  1.0000 0.1326985182
H   H40       1.0  0.19110  0.29420  0.40400  1.0000 0.1326985182
H   H41       1.0  0.89690  0.19110  0.57067  1.0000 0.1326985182
H   H42       1.0  0.70580  0.89690  0.73733  1.0000 0.1326985182
H   H43       1.0  0.29420  0.19110  0.92933  1.0000 0.1326985182
H   H44       1.0  0.10310  0.29420  0.09600  1.0000 0.1326985182
H   H45       1.0  0.80890  0.10310  0.26267  1.0000 0.1326985182
H   H46       1.0  0.70580  0.80890  0.42933  1.0000 0.1326985182
H   H47       1.0  0.89690  0.70580  0.59600  1.0000 0.1326985182
H   H48       1.0  0.19110  0.89690  0.76267  1.0000 0.1326985182
H   H49       1.0  0.61280  0.38720  0.91667  1.0000 0.1101384073
H   H50       1.0  0.22560  0.61280  0.08333  1.0000 0.1101384073
H   H51       1.0  0.61280  0.22560  0.25000  1.0000 0.1101384073
H   H52       1.0  0.38720  0.61280  0.41667  1.0000 0.1101384073
H   H53       1.0  0.77440  0.38720  0.58333  1.0000 0.1101384073
H   H54       1.0  0.38720  0.77440  0.75000  1.0000 0.1101384073
H   H55       1.0  0.84820  0.38350  0.93690  1.0000 0.1101384073
H   H56       1.0  0.46470  0.84820  0.10357  1.0000 0.1101384073
H   H57       1.0  0.61650  0.46470  0.27023  1.0000 0.1101384073
H   H58       1.0  0.15180  0.61650  0.43690  1.0000 0.1101384073
H   H59       1.0  0.53530  0.15180  0.60357  1.0000 0.1101384073
H   H60       1.0  0.38350  0.53530  0.77023  1.0000 0.1101384073
H   H61       1.0  0.61650  0.15180  0.89643  1.0000 0.1101384073
H   H62       1.0  0.46470  0.61650  0.06310  1.0000 0.1101384073
H   H63       1.0  0.84820  0.46470  0.22977  1.0000 0.1101384073
H   H64       1.0  0.38350  0.84820  0.39643  1.0000 0.1101384073
H   H65       1.0  0.53530  0.38350  0.56310  1.0000 0.1101384073
H   H66       1.0  0.15180  0.53530  0.72977  1.0000 0.1101384073
H   H67       1.0  0.87420  0.26760  0.98300  1.0000 0.1101384073
H   H68       1.0  0.60660  0.87420  0.14967  1.0000 0.1101384073
H   H69       1.0  0.73240  0.60660  0.31633  1.0000 0.1101384073
H   H70       1.0  0.12580  0.73240  0.48300  1.0000 0.1101384073
H   H71       1.0  0.39340  0.12580  0.64967  1.0000 0.1101384073
H   H72       1.0  0.26760  0.39340  0.81633  1.0000 0.1101384073
H   H73       1.0  0.73240  0.12580  0.85033  1.0000 0.1101384073
H   H74       1.0  0.60660  0.73240  0.01700  1.0000 0.1101384073
H   H75       1.0  0.87420  0.60660  0.18367  1.0000 0.1101384073
H   H76       1.0  0.26760  0.87420  0.35033  1.0000 0.1101384073
H   H77       1.0  0.39340  0.26760  0.51700  1.0000 0.1101384073
H   H78       1.0  0.12580  0.39340  0.68367  1.0000 0.1101384073
H   H79       1.0  0.95550  0.19230  0.98060  1.0000 0.1366124821
H   H80       1.0  0.76320  0.95550  0.14727  1.0000 0.1366124821
H   H81       1.0  0.80770  0.76320  0.31393  1.0000 0.1366124821
H   H82       1.0  0.04450  0.80770  0.48060  1.0000 0.1366124821
H   H83       1.0  0.23680  0.04450  0.64727  1.0000 0.1366124821
H   H84       1.0  0.19230  0.23680  0.81393  1.0000 0.1366124821
H   H85       1.0  0.80770  0.04450  0.85273  1.0000 0.1366124821
H   H86       1.0  0.76320  0.80770  0.01940  1.0000 0.1366124821
H   H87       1.0  0.95550  0.76320  0.18607  1.0000 0.1366124821
H   H88       1.0  0.19230  0.95550  0.35273  1.0000 0.1366124821
H   H89       1.0  0.23680  0.19230  0.51940  1.0000 0.1366124821
H   H90       1.0  0.04450  0.23680  0.68607  1.0000 0.1366124821
C   C1        1.0  0.97030  0.80370  0.96020  1.0000 0.5830592485
C   C2        1.0  0.16660  0.97030  0.12687  1.0000 0.5830592485
C   C3        1.0  0.19630  0.16660  0.29353  1.0000 0.5830592485
C   C4        1.0  0.02970  0.19630  0.46020  1.0000 0.5830592485
C   C5        1.0  0.83340  0.02970  0.62687  1.0000 0.5830592485
C   C6        1.0  0.80370  0.83340  0.79353  1.0000 0.5830592485
C   C7        1.0  0.19630  0.02970  0.87313  1.0000 0.5830592485
C   C8        1.0  0.16660  0.19630  0.03980  1.0000 0.5830592485
C   C9        1.0  0.97030  0.16660  0.20647  1.0000 0.5830592485
C   C10       1.0  0.80370  0.97030  0.37313  1.0000 0.5830592485
C   C11       1.0  0.83340  0.80370  0.53980  1.0000 0.5830592485
C   C12       1.0  0.02970  0.83340  0.70647  1.0000 0.5830592485
C   C13       1.0  0.90360  0.69860  0.95400  1.0000 -0.0213809008
C   C14       1.0  0.20500  0.90360  0.12067  1.0000 -0.0213809008
C   C15       1.0  0.30140  0.20500  0.28733  1.0000 -0.0213809008
C   C16       1.0  0.09640  0.30140  0.45400  1.0000 -0.0213809008
C   C17       1.0  0.79500  0.09640  0.62067  1.0000 -0.0213809008
C   C18       1.0  0.69860  0.79500  0.78733  1.0000 -0.0213809008
C   C19       1.0  0.30140  0.09640  0.87933  1.0000 -0.0213809008
C   C20       1.0  0.20500  0.30140  0.04600  1.0000 -0.0213809008
C   C21       1.0  0.90360  0.20500  0.21267  1.0000 -0.0213809008
C   C22       1.0  0.69860  0.90360  0.37933  1.0000 -0.0213809008
C   C23       1.0  0.79500  0.69860  0.54600  1.0000 -0.0213809008
C   C24       1.0  0.09640  0.79500  0.71267  1.0000 -0.0213809008
C   C25       1.0  0.92610  0.63790  0.98020  1.0000 -0.1077949203
C   C26       1.0  0.28820  0.92610  0.14687  1.0000 -0.1077949203
C   C27       1.0  0.36210  0.28820  0.31353  1.0000 -0.1077949203
C   C28       1.0  0.07390  0.36210  0.48020  1.0000 -0.1077949203
C   C29       1.0  0.71180  0.07390  0.64687  1.0000 -0.1077949203
C   C30       1.0  0.63790  0.71180  0.81353  1.0000 -0.1077949203
C   C31       1.0  0.36210  0.07390  0.85313  1.0000 -0.1077949203
C   C32       1.0  0.28820  0.36210  0.01980  1.0000 -0.1077949203
C   C33       1.0  0.92610  0.28820  0.18647  1.0000 -0.1077949203
C   C34       1.0  0.63790  0.92610  0.35313  1.0000 -0.1077949203
C   C35       1.0  0.71180  0.63790  0.51980  1.0000 -0.1077949203
C   C36       1.0  0.07390  0.71180  0.68647  1.0000 -0.1077949203
C   C37       1.0  0.86970  0.54130  0.97150  1.0000 -0.1487745906
C   C38       1.0  0.32840  0.86970  0.13817  1.0000 -0.1487745906
C   C39       1.0  0.45870  0.32840  0.30483  1.0000 -0.1487745906
C   C40       1.0  0.13030  0.45870  0.47150  1.0000 -0.1487745906
C   C41       1.0  0.67160  0.13030  0.63817  1.0000 -0.1487745906
C   C42       1.0  0.54130  0.67160  0.80483  1.0000 -0.1487745906
C   C43       1.0  0.45870  0.13030  0.86183  1.0000 -0.1487745906
C   C44       1.0  0.32840  0.45870  0.02850  1.0000 -0.1487745906
C   C45       1.0  0.86970  0.32840  0.19517  1.0000 -0.1487745906
C   C46       1.0  0.54130  0.86970  0.36183  1.0000 -0.1487745906
C   C47       1.0  0.67160  0.54130  0.52850  1.0000 -0.1487745906
C   C48       1.0  0.13030  0.67160  0.69517  1.0000 -0.1487745906
C   C49       1.0  0.79380  0.50530  0.93850  1.0000 0.0642090338
C   C50       1.0  0.28850  0.79380  0.10517  1.0000 0.0642090338
C   C51       1.0  0.49470  0.28850  0.27183  1.0000 0.0642090338
C   C52       1.0  0.20620  0.49470  0.43850  1.0000 0.0642090338
C   C53       1.0  0.71150  0.20620  0.60517  1.0000 0.0642090338
C   C54       1.0  0.50530  0.71150  0.77183  1.0000 0.0642090338
C   C55       1.0  0.49470  0.20620  0.89483  1.0000 0.0642090338
C   C56       1.0  0.28850  0.49470  0.06150  1.0000 0.0642090338
C   C57       1.0  0.79380  0.28850  0.22817  1.0000 0.0642090338
C   C58       1.0  0.50530  0.79380  0.39483  1.0000 0.0642090338
C   C59       1.0  0.71150  0.50530  0.56150  1.0000 0.0642090338
C   C60       1.0  0.20620  0.71150  0.72817  1.0000 0.0642090338
C   C61       1.0  0.77140  0.56840  0.91330  1.0000 -0.1487745906
C   C62       1.0  0.20300  0.77140  0.07997  1.0000 -0.1487745906
C   C63       1.0  0.43160  0.20300  0.24663  1.0000 -0.1487745906
C   C64       1.0  0.22860  0.43160  0.41330  1.0000 -0.1487745906
C   C65       1.0  0.79700  0.22860  0.57997  1.0000 -0.1487745906
C   C66       1.0  0.56840  0.79700  0.74663  1.0000 -0.1487745906
C   C67       1.0  0.43160  0.22860  0.92003  1.0000 -0.1487745906
C   C68       1.0  0.20300  0.43160  0.08670  1.0000 -0.1487745906
C   C69       1.0  0.77140  0.20300  0.25337  1.0000 -0.1487745906
C   C70       1.0  0.56840  0.77140  0.42003  1.0000 -0.1487745906
C   C71       1.0  0.79700  0.56840  0.58670  1.0000 -0.1487745906
C   C72       1.0  0.22860  0.79700  0.75337  1.0000 -0.1487745906
C   C73       1.0  0.82510  0.66520  0.92070  1.0000 -0.1077949203
C   C74       1.0  0.15990  0.82510  0.08737  1.0000 -0.1077949203
C   C75       1.0  0.33480  0.15990  0.25403  1.0000 -0.1077949203
C   C76       1.0  0.17490  0.33480  0.42070  1.0000 -0.1077949203
C   C77       1.0  0.84010  0.17490  0.58737  1.0000 -0.1077949203
C   C78       1.0  0.66520  0.84010  0.75403  1.0000 -0.1077949203
C   C79       1.0  0.33480  0.17490  0.91263  1.0000 -0.1077949203
C   C80       1.0  0.15990  0.33480  0.07930  1.0000 -0.1077949203
C   C81       1.0  0.82510  0.15990  0.24597  1.0000 -0.1077949203
C   C82       1.0  0.66520  0.82510  0.41263  1.0000 -0.1077949203
C   C83       1.0  0.84010  0.66520  0.57930  1.0000 -0.1077949203
C   C84       1.0  0.17490  0.84010  0.74597  1.0000 -0.1077949203
C   C85       1.0  0.74090  0.40380  0.92760  1.0000 0.0791944639
C   C86       1.0  0.33710  0.74090  0.09427  1.0000 0.0791944639
C   C87       1.0  0.59620  0.33710  0.26093  1.0000 0.0791944639
C   C88       1.0  0.25910  0.59620  0.42760  1.0000 0.0791944639
C   C89       1.0  0.66290  0.25910  0.59427  1.0000 0.0791944639
C   C90       1.0  0.40380  0.66290  0.76093  1.0000 0.0791944639
C   C91       1.0  0.59620  0.25910  0.90573  1.0000 0.0791944639
C   C92       1.0  0.33710  0.59620  0.07240  1.0000 0.0791944639
C   C93       1.0  0.74090  0.33710  0.23907  1.0000 0.0791944639
C   C94       1.0  0.40380  0.74090  0.40573  1.0000 0.0791944639
C   C95       1.0  0.66290  0.40380  0.57240  1.0000 0.0791944639
C   C96       1.0  0.25910  0.66290  0.73907  1.0000 0.0791944639
C   C97       1.0  0.64540  0.35460  0.91667  1.0000 -0.2126148197
C   C98       1.0  0.29080  0.64540  0.08333  1.0000 -0.2126148197
C   C99       1.0  0.64540  0.29080  0.25000  1.0000 -0.2126148197
C   C100      1.0  0.35460  0.64540  0.41667  1.0000 -0.2126148197
C   C101      1.0  0.70920  0.35460  0.58333  1.0000 -0.2126148197
C   C102      1.0  0.35460  0.70920  0.75000  1.0000 -0.2126148197
C   C103      1.0  0.78490  0.35290  0.92820  1.0000 -0.2022173271
C   C104      1.0  0.43200  0.78490  0.09487  1.0000 -0.2022173271
C   C105      1.0  0.64710  0.43200  0.26153  1.0000 -0.2022173271
C   C106      1.0  0.21510  0.64710  0.42820  1.0000 -0.2022173271
C   C107      1.0  0.56800  0.21510  0.59487  1.0000 -0.2022173271
C   C108      1.0  0.35290  0.56800  0.76153  1.0000 -0.2022173271
C   C109      1.0  0.64710  0.21510  0.90513  1.0000 -0.2022173271
C   C110      1.0  0.43200  0.64710  0.07180  1.0000 -0.2022173271
C   C111      1.0  0.78490  0.43200  0.23847  1.0000 -0.2022173271
C   C112      1.0  0.35290  0.78490  0.40513  1.0000 -0.2022173271
C   C113      1.0  0.56800  0.35290  0.57180  1.0000 -0.2022173271
C   C114      1.0  0.21510  0.56800  0.73847  1.0000 -0.2022173271
C   C115      1.0  0.74140  0.25860  0.91667  1.0000 0.0791944639
C   C116      1.0  0.48280  0.74140  0.08333  1.0000 0.0791944639
C   C117      1.0  0.74140  0.48280  0.25000  1.0000 0.0791944639
C   C118      1.0  0.25860  0.74140  0.41667  1.0000 0.0791944639
C   C119      1.0  0.51720  0.25860  0.58333  1.0000 0.0791944639
C   C120      1.0  0.25860  0.51720  0.75000  1.0000 0.0791944639
C   C121      1.0  0.79400  0.20600  0.91667  1.0000 0.0743082362
C   C122      1.0  0.58800  0.79400  0.08333  1.0000 0.0743082362
C   C123      1.0  0.79400  0.58800  0.25000  1.0000 0.0743082362
C   C124      1.0  0.20600  0.79400  0.41667  1.0000 0.0743082362
C   C125      1.0  0.41200  0.20600  0.58333  1.0000 0.0743082362
C   C126      1.0  0.20600  0.41200  0.75000  1.0000 0.0743082362
C   C127      1.0  0.86170  0.22350  0.95590  1.0000 -0.1347542433
C   C128      1.0  0.63820  0.86170  0.12257  1.0000 -0.1347542433
C   C129      1.0  0.77650  0.63820  0.28923  1.0000 -0.1347542433
C   C130      1.0  0.13830  0.77650  0.45590  1.0000 -0.1347542433
C   C131      1.0  0.36180  0.13830  0.62257  1.0000 -0.1347542433
C   C132      1.0  0.22350  0.36180  0.78923  1.0000 -0.1347542433
C   C133      1.0  0.77650  0.13830  0.87743  1.0000 -0.1347542433
C   C134      1.0  0.63820  0.77650  0.04410  1.0000 -0.1347542433
C   C135      1.0  0.86170  0.63820  0.21077  1.0000 -0.1347542433
C   C136      1.0  0.22350  0.86170  0.37743  1.0000 -0.1347542433
C   C137      1.0  0.36180  0.22350  0.54410  1.0000 -0.1347542433
C   C138      1.0  0.13830  0.36180  0.71077  1.0000 -0.1347542433
C   C139      1.0  0.90890  0.17760  0.95480  1.0000 -0.1034828229
C   C140      1.0  0.73130  0.90890  0.12147  1.0000 -0.1034828229
C   C141      1.0  0.82240  0.73130  0.28813  1.0000 -0.1034828229
C   C142      1.0  0.09110  0.82240  0.45480  1.0000 -0.1034828229
C   C143      1.0  0.26870  0.09110  0.62147  1.0000 -0.1034828229
C   C144      1.0  0.17760  0.26870  0.78813  1.0000 -0.1034828229
C   C145      1.0  0.82240  0.09110  0.87853  1.0000 -0.1034828229
C   C146      1.0  0.73130  0.82240  0.04520  1.0000 -0.1034828229
C   C147      1.0  0.90890  0.73130  0.21187  1.0000 -0.1034828229
C   C148      1.0  0.17760  0.90890  0.37853  1.0000 -0.1034828229
C   C149      1.0  0.26870  0.17760  0.54520  1.0000 -0.1034828229
C   C150      1.0  0.09110  0.26870  0.71187  1.0000 -0.1034828229
C   C151      1.0  0.89110  0.10890  0.91667  1.0000 -0.0213809008
C   C152      1.0  0.78220  0.89110  0.08333  1.0000 -0.0213809008
C   C153      1.0  0.89110  0.78220  0.25000  1.0000 -0.0213809008
C   C154      1.0  0.10890  0.89110  0.41667  1.0000 -0.0213809008
C   C155      1.0  0.21780  0.10890  0.58333  1.0000 -0.0213809008
C   C156      1.0  0.10890  0.21780  0.75000  1.0000 -0.0213809008
C   C157      1.0  0.94390  0.05610  0.91667  1.0000 0.6129116686
C   C158      1.0  0.88780  0.94390  0.08333  1.0000 0.6129116686
C   C159      1.0  0.94390  0.88780  0.25000  1.0000 0.6129116686
C   C160      1.0  0.05610  0.94390  0.41667  1.0000 0.6129116686
C   C161      1.0  0.11220  0.05610  0.58333  1.0000 0.6129116686
C   C162      1.0  0.05610  0.11220  0.75000  1.0000 0.6129116686
O   O1        1.0  0.03150  0.83140  0.99640  1.0000 -0.5900458622
O   O2        1.0  0.20010  0.03150  0.16307  1.0000 -0.5900458622
O   O3        1.0  0.16860  0.20010  0.32973  1.0000 -0.5900458622
O   O4        1.0  0.96850  0.16860  0.49640  1.0000 -0.5900458622
O   O5        1.0  0.79990  0.96850  0.66307  1.0000 -0.5900458622
O   O6        1.0  0.83140  0.79990  0.82973  1.0000 -0.5900458622
O   O7        1.0  0.16860  0.96850  0.83693  1.0000 -0.5900458622
O   O8        1.0  0.20010  0.16860  0.00360  1.0000 -0.5900458622
O   O9        1.0  0.03150  0.20010  0.17027  1.0000 -0.5900458622
O   O10       1.0  0.83140  0.03150  0.33693  1.0000 -0.5900458622
O   O11       1.0  0.79990  0.83140  0.50360  1.0000 -0.5900458622
O   O12       1.0  0.96850  0.79990  0.67027  1.0000 -0.5900458622
O   O13       1.0  0.96240  0.86120  0.92900  1.0000 -0.6835291612
O   O14       1.0  0.10120  0.96240  0.09567  1.0000 -0.6835291612
O   O15       1.0  0.13880  0.10120  0.26233  1.0000 -0.6835291612
O   O16       1.0  0.03760  0.13880  0.42900  1.0000 -0.6835291612
O   O17       1.0  0.89880  0.03760  0.59567  1.0000 -0.6835291612
O   O18       1.0  0.86120  0.89880  0.76233  1.0000 -0.6835291612
O   O19       1.0  0.13880  0.03760  0.90433  1.0000 -0.6835291612
O   O20       1.0  0.10120  0.13880  0.07100  1.0000 -0.6835291612
O   O21       1.0  0.96240  0.10120  0.23767  1.0000 -0.6835291612
O   O22       1.0  0.86120  0.96240  0.40433  1.0000 -0.6835291612
O   O23       1.0  0.89880  0.86120  0.57100  1.0000 -0.6835291612
O   O24       1.0  0.03760  0.89880  0.73767  1.0000 -0.6835291612
O   O25       1.0  0.99880  0.07080  0.95480  1.0000 -0.5982884644
O   O26       1.0  0.92800  0.99880  0.12147  1.0000 -0.5982884644
O   O27       1.0  0.92920  0.92800  0.28813  1.0000 -0.5982884644
O   O28       1.0  0.00120  0.92920  0.45480  1.0000 -0.5982884644
O   O29       1.0  0.07200  0.00120  0.62147  1.0000 -0.5982884644
O   O30       1.0  0.07080  0.07200  0.78813  1.0000 -0.5982884644
O   O31       1.0  0.92920  0.00120  0.87853  1.0000 -0.5982884644
O   O32       1.0  0.92800  0.92920  0.04520  1.0000 -0.5982884644
O   O33       1.0  0.99880  0.92800  0.21187  1.0000 -0.5982884644
O   O34       1.0  0.07080  0.99880  0.37853  1.0000 -0.5982884644
O   O35       1.0  0.07200  0.07080  0.54520  1.0000 -0.5982884644
O   O36       1.0  0.00120  0.07200  0.71187  1.0000 -0.5982884644
