# DDEC6 charges by PACMAN v1.1 (https://github.com/mtap-research/PACMAN-charge/)
data_2012[Zn][tbo]3[ASR]1
_chemical_formula_sum              "Zn12 H24 C72 O48"
_cell_length_a       18.7666
_cell_length_b       18.7666
_cell_length_c       18.7666
_cell_angle_alpha    60
_cell_angle_beta     60
_cell_angle_gamma    60

_symmetry_space_group_name_H-M    "P 1"
_symmetry_Int_Tables_number       1

loop_
  _symmetry_equiv_pos_as_xyz
  'x, y, z'

loop_
  _atom_site_type_symbol
  _atom_site_label
  _atom_site_symmetry_multiplicity
  _atom_site_fract_x
  _atom_site_fract_y
  _atom_site_fract_z
  _atom_site_occupancy
  _atom_site_charge
Zn  Zn1       1.0  0.92084  0.50000  0.07916  1.0000 0.9424952004
Zn  Zn2       1.0  0.50000  0.92084  0.50000  1.0000 0.9424952004
Zn  Zn3       1.0  0.50000  0.07916  0.50000  1.0000 0.9424952004
Zn  Zn4       1.0  0.07916  0.50000  0.92084  1.0000 0.9424952004
Zn  Zn5       1.0  0.07916  0.92084  0.50000  1.0000 0.9424952004
Zn  Zn6       1.0  0.50000  0.07916  0.92084  1.0000 0.9424952004
Zn  Zn7       1.0  0.92084  0.07916  0.50000  1.0000 0.9424952004
Zn  Zn8       1.0  0.92084  0.50000  0.50000  1.0000 0.9424952004
Zn  Zn9       1.0  0.50000  0.50000  0.92084  1.0000 0.9424952004
Zn  Zn10      1.0  0.07916  0.50000  0.50000  1.0000 0.9424952004
Zn  Zn11      1.0  0.50000  0.50000  0.07916  1.0000 0.9424952004
Zn  Zn12      1.0  0.50000  0.92084  0.07916  1.0000 0.9424952004
H   H1        1.0  0.77070  0.47110  0.98750  1.0000 0.1323994184
H   H2        1.0  0.47110  0.77070  0.77070  1.0000 0.1323994184
H   H3        1.0  0.77070  0.98750  0.47110  1.0000 0.1323994184
H   H4        1.0  0.98750  0.77070  0.77070  1.0000 0.1323994184
H   H5        1.0  0.98750  0.77070  0.47110  1.0000 0.1323994184
H   H6        1.0  0.47110  0.98750  0.77070  1.0000 0.1323994184
H   H7        1.0  0.77070  0.98750  0.77070  1.0000 0.1323994184
H   H8        1.0  0.77070  0.77070  0.47110  1.0000 0.1323994184
H   H9        1.0  0.77070  0.47110  0.77070  1.0000 0.1323994184
H   H10       1.0  0.98750  0.47110  0.77070  1.0000 0.1323994184
H   H11       1.0  0.47110  0.77070  0.98750  1.0000 0.1323994184
H   H12       1.0  0.77070  0.77070  0.98750  1.0000 0.1323994184
H   H13       1.0  0.52890  0.22930  0.01250  1.0000 0.1323994184
H   H14       1.0  0.22930  0.52890  0.22930  1.0000 0.1323994184
H   H15       1.0  0.01250  0.22930  0.52890  1.0000 0.1323994184
H   H16       1.0  0.22930  0.01250  0.22930  1.0000 0.1323994184
H   H17       1.0  0.22930  0.01250  0.52890  1.0000 0.1323994184
H   H18       1.0  0.01250  0.52890  0.22930  1.0000 0.1323994184
H   H19       1.0  0.01250  0.22930  0.22930  1.0000 0.1323994184
H   H20       1.0  0.22930  0.22930  0.52890  1.0000 0.1323994184
H   H21       1.0  0.52890  0.22930  0.22930  1.0000 0.1323994184
H   H22       1.0  0.52890  0.01250  0.22930  1.0000 0.1323994184
H   H23       1.0  0.22930  0.52890  0.01250  1.0000 0.1323994184
H   H24       1.0  0.22930  0.22930  0.01250  1.0000 0.1323994184
C   C1        1.0  0.93020  0.47588  0.93020  1.0000 0.5943191582
C   C2        1.0  0.47588  0.93020  0.66372  1.0000 0.5951280901
C   C3        1.0  0.66372  0.93020  0.47588  1.0000 0.5943191582
C   C4        1.0  0.93020  0.66372  0.93020  1.0000 0.5943191582
C   C5        1.0  0.93020  0.93020  0.47588  1.0000 0.5943191582
C   C6        1.0  0.47588  0.93020  0.93020  1.0000 0.5943191582
C   C7        1.0  0.93020  0.93020  0.66372  1.0000 0.5951280901
C   C8        1.0  0.93020  0.66372  0.47588  1.0000 0.5943191582
C   C9        1.0  0.66372  0.47588  0.93020  1.0000 0.5943191582
C   C10       1.0  0.93020  0.47588  0.66372  1.0000 0.5943191582
C   C11       1.0  0.47588  0.66372  0.93020  1.0000 0.5943191582
C   C12       1.0  0.66372  0.93020  0.93020  1.0000 0.5943191582
C   C13       1.0  0.52412  0.06980  0.06980  1.0000 0.5951280901
C   C14       1.0  0.06980  0.52412  0.33628  1.0000 0.5943191582
C   C15       1.0  0.06980  0.33628  0.52412  1.0000 0.5951280901
C   C16       1.0  0.33628  0.06980  0.06980  1.0000 0.5951280901
C   C17       1.0  0.06980  0.06980  0.52412  1.0000 0.5943191582
C   C18       1.0  0.06980  0.52412  0.06980  1.0000 0.5951280901
C   C19       1.0  0.06980  0.06980  0.33628  1.0000 0.5951280901
C   C20       1.0  0.33628  0.06980  0.52412  1.0000 0.5943191582
C   C21       1.0  0.52412  0.33628  0.06980  1.0000 0.5943191582
C   C22       1.0  0.52412  0.06980  0.33628  1.0000 0.5943191582
C   C23       1.0  0.33628  0.52412  0.06980  1.0000 0.5943191582
C   C24       1.0  0.06980  0.33628  0.06980  1.0000 0.5951280901
C   C25       1.0  0.88570  0.47226  0.88570  1.0000 -0.0423980306
C   C26       1.0  0.47226  0.88570  0.75634  1.0000 -0.0423980306
C   C27       1.0  0.75634  0.88570  0.47226  1.0000 -0.0423980306
C   C28       1.0  0.88570  0.75634  0.88570  1.0000 -0.0423980306
C   C29       1.0  0.88570  0.88570  0.47226  1.0000 -0.0423980306
C   C30       1.0  0.47226  0.88570  0.88570  1.0000 -0.0423980306
C   C31       1.0  0.88570  0.88570  0.75634  1.0000 -0.0423980306
C   C32       1.0  0.88570  0.75634  0.47226  1.0000 -0.0423980306
C   C33       1.0  0.75634  0.47226  0.88570  1.0000 -0.0423980306
C   C34       1.0  0.88570  0.47226  0.75634  1.0000 -0.0423980306
C   C35       1.0  0.47226  0.75634  0.88570  1.0000 -0.0423980306
C   C36       1.0  0.75634  0.88570  0.88570  1.0000 -0.0423980306
C   C37       1.0  0.52774  0.11430  0.11430  1.0000 -0.0423980306
C   C38       1.0  0.11430  0.52774  0.24366  1.0000 -0.0423980306
C   C39       1.0  0.11430  0.24366  0.52774  1.0000 -0.0423980306
C   C40       1.0  0.24366  0.11430  0.11430  1.0000 -0.0423980306
C   C41       1.0  0.11430  0.11430  0.52774  1.0000 -0.0423980306
C   C42       1.0  0.11430  0.52774  0.11430  1.0000 -0.0423980306
C   C43       1.0  0.11430  0.11430  0.24366  1.0000 -0.0423980306
C   C44       1.0  0.24366  0.11430  0.52774  1.0000 -0.0423980306
C   C45       1.0  0.52774  0.24366  0.11430  1.0000 -0.0423980306
C   C46       1.0  0.52774  0.11430  0.24366  1.0000 -0.0423980306
C   C47       1.0  0.24366  0.52774  0.11430  1.0000 -0.0423980306
C   C48       1.0  0.11430  0.24366  0.11430  1.0000 -0.0423980306
C   C49       1.0  0.79970  0.47182  0.92878  1.0000 -0.0824928461
C   C50       1.0  0.47182  0.79970  0.79970  1.0000 -0.0824928461
C   C51       1.0  0.79970  0.92878  0.47182  1.0000 -0.0824928461
C   C52       1.0  0.92878  0.79970  0.79970  1.0000 -0.0824928461
C   C53       1.0  0.92878  0.79970  0.47182  1.0000 -0.0824928461
C   C54       1.0  0.47182  0.92878  0.79970  1.0000 -0.0824928461
C   C55       1.0  0.79970  0.92878  0.79970  1.0000 -0.0824928461
C   C56       1.0  0.79970  0.79970  0.47182  1.0000 -0.0824928461
C   C57       1.0  0.79970  0.47182  0.79970  1.0000 -0.0824928461
C   C58       1.0  0.92878  0.47182  0.79970  1.0000 -0.0824928461
C   C59       1.0  0.47182  0.79970  0.92878  1.0000 -0.0824928461
C   C60       1.0  0.79970  0.79970  0.92878  1.0000 -0.0824928461
C   C61       1.0  0.52818  0.20030  0.07122  1.0000 -0.0824928461
C   C62       1.0  0.20030  0.52818  0.20030  1.0000 -0.0824928461
C   C63       1.0  0.07122  0.20030  0.52818  1.0000 -0.0824928461
C   C64       1.0  0.20030  0.07122  0.20030  1.0000 -0.0824928461
C   C65       1.0  0.20030  0.07122  0.52818  1.0000 -0.0824928461
C   C66       1.0  0.07122  0.52818  0.20030  1.0000 -0.0824928461
C   C67       1.0  0.07122  0.20030  0.20030  1.0000 -0.0824928461
C   C68       1.0  0.20030  0.20030  0.52818  1.0000 -0.0824928461
C   C69       1.0  0.52818  0.20030  0.20030  1.0000 -0.0824928461
C   C70       1.0  0.52818  0.07122  0.20030  1.0000 -0.0824928461
C   C71       1.0  0.20030  0.52818  0.07122  1.0000 -0.0824928461
C   C72       1.0  0.20030  0.20030  0.07122  1.0000 -0.0824928461
O   O1        1.0  0.88725  0.47841  0.00639  1.0000 -0.5366724721
O   O2        1.0  0.47841  0.88725  0.62795  1.0000 -0.5366724721
O   O3        1.0  0.62795  0.00639  0.47841  1.0000 -0.5366724721
O   O4        1.0  0.00639  0.62795  0.88725  1.0000 -0.5366724721
O   O5        1.0  0.00639  0.88725  0.47841  1.0000 -0.5366724721
O   O6        1.0  0.47841  0.00639  0.88725  1.0000 -0.5366724721
O   O7        1.0  0.88725  0.00639  0.62795  1.0000 -0.5366724721
O   O8        1.0  0.88725  0.62795  0.47841  1.0000 -0.5366724721
O   O9        1.0  0.62795  0.47841  0.88725  1.0000 -0.5366724721
O   O10       1.0  0.00639  0.47841  0.62795  1.0000 -0.5366724721
O   O11       1.0  0.47841  0.62795  0.00639  1.0000 -0.5366724721
O   O12       1.0  0.62795  0.88725  0.00639  1.0000 -0.5366724721
O   O13       1.0  0.52159  0.11275  0.99361  1.0000 -0.5366724721
O   O14       1.0  0.11275  0.52159  0.37205  1.0000 -0.5366724721
O   O15       1.0  0.99361  0.37205  0.52159  1.0000 -0.5366724721
O   O16       1.0  0.37205  0.99361  0.11275  1.0000 -0.5366724721
O   O17       1.0  0.11275  0.99361  0.52159  1.0000 -0.5366724721
O   O18       1.0  0.99361  0.52159  0.11275  1.0000 -0.5366724721
O   O19       1.0  0.99361  0.11275  0.37205  1.0000 -0.5366724721
O   O20       1.0  0.37205  0.11275  0.52159  1.0000 -0.5366724721
O   O21       1.0  0.52159  0.37205  0.11275  1.0000 -0.5366724721
O   O22       1.0  0.52159  0.99361  0.37205  1.0000 -0.5366724721
O   O23       1.0  0.37205  0.52159  0.99361  1.0000 -0.5366724721
O   O24       1.0  0.11275  0.37205  0.99361  1.0000 -0.5366724721
O   O25       1.0  0.11275  0.52159  0.99361  1.0000 -0.5366724721
O   O26       1.0  0.52159  0.11275  0.37205  1.0000 -0.5366724721
O   O27       1.0  0.37205  0.99361  0.52159  1.0000 -0.5366724721
O   O28       1.0  0.99361  0.37205  0.11275  1.0000 -0.5366724721
O   O29       1.0  0.99361  0.11275  0.52159  1.0000 -0.5366724721
O   O30       1.0  0.52159  0.99361  0.11275  1.0000 -0.5366724721
O   O31       1.0  0.11275  0.99361  0.37205  1.0000 -0.5366724721
O   O32       1.0  0.11275  0.37205  0.52159  1.0000 -0.5366724721
O   O33       1.0  0.37205  0.52159  0.11275  1.0000 -0.5366724721
O   O34       1.0  0.99361  0.52159  0.37205  1.0000 -0.5366724721
O   O35       1.0  0.52159  0.37205  0.99361  1.0000 -0.5366724721
O   O36       1.0  0.37205  0.11275  0.99361  1.0000 -0.5366724721
O   O37       1.0  0.47841  0.88725  0.00639  1.0000 -0.5366724721
O   O38       1.0  0.88725  0.47841  0.62795  1.0000 -0.5366724721
O   O39       1.0  0.00639  0.62795  0.47841  1.0000 -0.5366724721
O   O40       1.0  0.62795  0.00639  0.88725  1.0000 -0.5366724721
O   O41       1.0  0.88725  0.00639  0.47841  1.0000 -0.5366724721
O   O42       1.0  0.00639  0.47841  0.88725  1.0000 -0.5366724721
O   O43       1.0  0.00639  0.88725  0.62795  1.0000 -0.5366724721
O   O44       1.0  0.62795  0.88725  0.47841  1.0000 -0.5366724721
O   O45       1.0  0.47841  0.62795  0.88725  1.0000 -0.5366724721
O   O46       1.0  0.47841  0.00639  0.62795  1.0000 -0.5366724721
O   O47       1.0  0.62795  0.47841  0.00639  1.0000 -0.5366724721
O   O48       1.0  0.88725  0.62795  0.00639  1.0000 -0.5366724721
