# DDEC6 charges by PACMAN v1.1 (https://github.com/mtap-research/PACMAN-charge/)
data_2012[Cu][hxg]3[ASR]1
_chemical_formula_sum              "Cu24 H48 C96 N48 O64"
_cell_length_a       21.3336
_cell_length_b       21.3336
_cell_length_c       21.3336
_cell_angle_alpha    60
_cell_angle_beta     60
_cell_angle_gamma    60

_symmetry_space_group_name_H-M    "P 1"
_symmetry_Int_Tables_number       1

loop_
  _symmetry_equiv_pos_as_xyz
  'x, y, z'

loop_
  _atom_site_type_symbol
  _atom_site_label
  _atom_site_symmetry_multiplicity
  _atom_site_fract_x
  _atom_site_fract_y
  _atom_site_fract_z
  _atom_site_occupancy
  _atom_site_charge
Cu  Cu1       1.0  0.20270  0.12574  0.64920  1.0000 0.7926167537
Cu  Cu2       1.0  0.12574  0.20270  0.02236  1.0000 0.7926167537
Cu  Cu3       1.0  0.64920  0.02236  0.20270  1.0000 0.7926167537
Cu  Cu4       1.0  0.02236  0.64920  0.12574  1.0000 0.7926167537
Cu  Cu5       1.0  0.64920  0.20270  0.12574  1.0000 0.7926167537
Cu  Cu6       1.0  0.02236  0.12574  0.20270  1.0000 0.7926167537
Cu  Cu7       1.0  0.20270  0.64920  0.02236  1.0000 0.7926167537
Cu  Cu8       1.0  0.12574  0.02236  0.64920  1.0000 0.7926167537
Cu  Cu9       1.0  0.12574  0.64920  0.20270  1.0000 0.7926167537
Cu  Cu10      1.0  0.20270  0.02236  0.12574  1.0000 0.7926167537
Cu  Cu11      1.0  0.02236  0.20270  0.64920  1.0000 0.7926167537
Cu  Cu12      1.0  0.64920  0.12574  0.02236  1.0000 0.7926167537
Cu  Cu13      1.0  0.62574  0.70270  0.14920  1.0000 0.7926167537
Cu  Cu14      1.0  0.70270  0.62574  0.52236  1.0000 0.7926167537
Cu  Cu15      1.0  0.52236  0.14920  0.70270  1.0000 0.7926167537
Cu  Cu16      1.0  0.14920  0.52236  0.62574  1.0000 0.7926167537
Cu  Cu17      1.0  0.70270  0.14920  0.62574  1.0000 0.7926167537
Cu  Cu18      1.0  0.62574  0.52236  0.70270  1.0000 0.7926167537
Cu  Cu19      1.0  0.14920  0.70270  0.52236  1.0000 0.7926167537
Cu  Cu20      1.0  0.52236  0.62574  0.14920  1.0000 0.7926167537
Cu  Cu21      1.0  0.14920  0.62574  0.70270  1.0000 0.7926167537
Cu  Cu22      1.0  0.52236  0.70270  0.62574  1.0000 0.7926167537
Cu  Cu23      1.0  0.70270  0.52236  0.14920  1.0000 0.7926167537
Cu  Cu24      1.0  0.62574  0.14920  0.52236  1.0000 0.7926167537
H   H1        1.0  0.20940  0.27840  0.63940  1.0000 0.1311329753
H   H2        1.0  0.27840  0.20940  0.87280  1.0000 0.1311329753
H   H3        1.0  0.63940  0.87280  0.20940  1.0000 0.1311329753
H   H4        1.0  0.87280  0.63940  0.27840  1.0000 0.1311329753
H   H5        1.0  0.63940  0.20940  0.27840  1.0000 0.1311329753
H   H6        1.0  0.87280  0.27840  0.20940  1.0000 0.1311329753
H   H7        1.0  0.20940  0.63940  0.87280  1.0000 0.1311329753
H   H8        1.0  0.27840  0.87280  0.63940  1.0000 0.1311329753
H   H9        1.0  0.27840  0.63940  0.20940  1.0000 0.1311329753
H   H10       1.0  0.20940  0.87280  0.27840  1.0000 0.1311329753
H   H11       1.0  0.87280  0.20940  0.63940  1.0000 0.1311329753
H   H12       1.0  0.63940  0.27840  0.87280  1.0000 0.1311329753
H   H13       1.0  0.77840  0.70940  0.13940  1.0000 0.1311329753
H   H14       1.0  0.70940  0.77840  0.37280  1.0000 0.1311329753
H   H15       1.0  0.37280  0.13940  0.70940  1.0000 0.1311329753
H   H16       1.0  0.13940  0.37280  0.77840  1.0000 0.1311329753
H   H17       1.0  0.70940  0.13940  0.77840  1.0000 0.1311329753
H   H18       1.0  0.77840  0.37280  0.70940  1.0000 0.1311329753
H   H19       1.0  0.13940  0.70940  0.37280  1.0000 0.1311329753
H   H20       1.0  0.37280  0.77840  0.13940  1.0000 0.1311329753
H   H21       1.0  0.13940  0.77840  0.70940  1.0000 0.1311329753
H   H22       1.0  0.37280  0.70940  0.77840  1.0000 0.1311329753
H   H23       1.0  0.70940  0.37280  0.13940  1.0000 0.1311329753
H   H24       1.0  0.77840  0.13940  0.37280  1.0000 0.1311329753
H   H25       1.0  0.98720  0.36300  0.66140  1.0000 0.1311329753
H   H26       1.0  0.36300  0.98720  0.98840  1.0000 0.1311329753
H   H27       1.0  0.66140  0.98840  0.98720  1.0000 0.1311329753
H   H28       1.0  0.98840  0.66140  0.36300  1.0000 0.1311329753
H   H29       1.0  0.66140  0.98720  0.36300  1.0000 0.1311329753
H   H30       1.0  0.98840  0.36300  0.98720  1.0000 0.1311329753
H   H31       1.0  0.98720  0.66140  0.98840  1.0000 0.1311329753
H   H32       1.0  0.36300  0.98840  0.66140  1.0000 0.1311329753
H   H33       1.0  0.36300  0.66140  0.98720  1.0000 0.1311329753
H   H34       1.0  0.98720  0.98840  0.36300  1.0000 0.1311329753
H   H35       1.0  0.98840  0.98720  0.66140  1.0000 0.1311329753
H   H36       1.0  0.66140  0.36300  0.98840  1.0000 0.1311329753
H   H37       1.0  0.86300  0.48720  0.16140  1.0000 0.1311329753
H   H38       1.0  0.48720  0.86300  0.48840  1.0000 0.1311329753
H   H39       1.0  0.48840  0.16140  0.48720  1.0000 0.1311329753
H   H40       1.0  0.16140  0.48840  0.86300  1.0000 0.1311329753
H   H41       1.0  0.48720  0.16140  0.86300  1.0000 0.1311329753
H   H42       1.0  0.86300  0.48840  0.48720  1.0000 0.1311329753
H   H43       1.0  0.16140  0.48720  0.48840  1.0000 0.1311329753
H   H44       1.0  0.48840  0.86300  0.16140  1.0000 0.1311329753
H   H45       1.0  0.16140  0.86300  0.48720  1.0000 0.1311329753
H   H46       1.0  0.48840  0.48720  0.86300  1.0000 0.1311329753
H   H47       1.0  0.48720  0.48840  0.16140  1.0000 0.1311329753
H   H48       1.0  0.86300  0.16140  0.48840  1.0000 0.1311329753
C   C1        1.0  0.08990  0.42030  0.64870  1.0000 0.5658986304
C   C2        1.0  0.42030  0.08990  0.84110  1.0000 0.5658986304
C   C3        1.0  0.64870  0.84110  0.08990  1.0000 0.5647067193
C   C4        1.0  0.84110  0.64870  0.42030  1.0000 0.5658986304
C   C5        1.0  0.64870  0.08990  0.42030  1.0000 0.5658986304
C   C6        1.0  0.84110  0.42030  0.08990  1.0000 0.5658986304
C   C7        1.0  0.08990  0.64870  0.84110  1.0000 0.5658986304
C   C8        1.0  0.42030  0.84110  0.64870  1.0000 0.5658986304
C   C9        1.0  0.42030  0.64870  0.08990  1.0000 0.5647067193
C   C10       1.0  0.08990  0.84110  0.42030  1.0000 0.5658986304
C   C11       1.0  0.84110  0.08990  0.64870  1.0000 0.5658986304
C   C12       1.0  0.64870  0.42030  0.84110  1.0000 0.5658986304
C   C13       1.0  0.92030  0.58990  0.14870  1.0000 0.5647067193
C   C14       1.0  0.58990  0.92030  0.34110  1.0000 0.5658986304
C   C15       1.0  0.34110  0.14870  0.58990  1.0000 0.5658986304
C   C16       1.0  0.14870  0.34110  0.92030  1.0000 0.5658986304
C   C17       1.0  0.58990  0.14870  0.92030  1.0000 0.5658986304
C   C18       1.0  0.92030  0.34110  0.58990  1.0000 0.5658986304
C   C19       1.0  0.14870  0.58990  0.34110  1.0000 0.5658986304
C   C20       1.0  0.34110  0.92030  0.14870  1.0000 0.5647067193
C   C21       1.0  0.14870  0.92030  0.58990  1.0000 0.5658986304
C   C22       1.0  0.34110  0.58990  0.92030  1.0000 0.5658986304
C   C23       1.0  0.58990  0.34110  0.14870  1.0000 0.5658986304
C   C24       1.0  0.92030  0.14870  0.34110  1.0000 0.5658986304
C   C25       1.0  0.09530  0.34790  0.65110  1.0000 -0.116089745
C   C26       1.0  0.34790  0.09530  0.90570  1.0000 -0.1144502339
C   C27       1.0  0.65110  0.90570  0.09530  1.0000 -0.1144502339
C   C28       1.0  0.90570  0.65110  0.34790  1.0000 -0.1144502339
C   C29       1.0  0.65110  0.09530  0.34790  1.0000 -0.116089745
C   C30       1.0  0.90570  0.34790  0.09530  1.0000 -0.116089745
C   C31       1.0  0.09530  0.65110  0.90570  1.0000 -0.116089745
C   C32       1.0  0.34790  0.90570  0.65110  1.0000 -0.116089745
C   C33       1.0  0.34790  0.65110  0.09530  1.0000 -0.1144502339
C   C34       1.0  0.09530  0.90570  0.34790  1.0000 -0.1144502339
C   C35       1.0  0.90570  0.09530  0.65110  1.0000 -0.116089745
C   C36       1.0  0.65110  0.34790  0.90570  1.0000 -0.116089745
C   C37       1.0  0.84790  0.59530  0.15110  1.0000 -0.1144502339
C   C38       1.0  0.59530  0.84790  0.40570  1.0000 -0.1144502339
C   C39       1.0  0.40570  0.15110  0.59530  1.0000 -0.1144502339
C   C40       1.0  0.15110  0.40570  0.84790  1.0000 -0.1144502339
C   C41       1.0  0.59530  0.15110  0.84790  1.0000 -0.116089745
C   C42       1.0  0.84790  0.40570  0.59530  1.0000 -0.1144502339
C   C43       1.0  0.15110  0.59530  0.40570  1.0000 -0.1144502339
C   C44       1.0  0.40570  0.84790  0.15110  1.0000 -0.1144502339
C   C45       1.0  0.15110  0.84790  0.59530  1.0000 -0.116089745
C   C46       1.0  0.40570  0.59530  0.84790  1.0000 -0.116089745
C   C47       1.0  0.59530  0.40570  0.15110  1.0000 -0.116089745
C   C48       1.0  0.84790  0.15110  0.40570  1.0000 -0.1144502339
C   C49       1.0  0.16020  0.28380  0.64480  1.0000 0.0179974339
C   C50       1.0  0.28380  0.16020  0.91120  1.0000 0.0179974339
C   C51       1.0  0.64480  0.91120  0.16020  1.0000 0.0179974339
C   C52       1.0  0.91120  0.64480  0.28380  1.0000 0.0179974339
C   C53       1.0  0.64480  0.16020  0.28380  1.0000 0.0179974339
C   C54       1.0  0.91120  0.28380  0.16020  1.0000 0.0179974339
C   C55       1.0  0.16020  0.64480  0.91120  1.0000 0.0179974339
C   C56       1.0  0.28380  0.91120  0.64480  1.0000 0.0179974339
C   C57       1.0  0.28380  0.64480  0.16020  1.0000 0.0179974339
C   C58       1.0  0.16020  0.91120  0.28380  1.0000 0.0179974339
C   C59       1.0  0.91120  0.16020  0.64480  1.0000 0.0179974339
C   C60       1.0  0.64480  0.28380  0.91120  1.0000 0.0179974339
C   C61       1.0  0.78380  0.66020  0.14480  1.0000 0.0179974339
C   C62       1.0  0.66020  0.78380  0.41120  1.0000 0.0179974339
C   C63       1.0  0.41120  0.14480  0.66020  1.0000 0.0179974339
C   C64       1.0  0.14480  0.41120  0.78380  1.0000 0.0179974339
C   C65       1.0  0.66020  0.14480  0.78380  1.0000 0.0179974339
C   C66       1.0  0.78380  0.41120  0.66020  1.0000 0.0179974339
C   C67       1.0  0.14480  0.66020  0.41120  1.0000 0.0179974339
C   C68       1.0  0.41120  0.78380  0.14480  1.0000 0.0179974339
C   C69       1.0  0.14480  0.78380  0.66020  1.0000 0.0179974339
C   C70       1.0  0.41120  0.66020  0.78380  1.0000 0.0179974339
C   C71       1.0  0.66020  0.41120  0.14480  1.0000 0.0179974339
C   C72       1.0  0.78380  0.14480  0.41120  1.0000 0.0179974339
C   C73       1.0  0.03870  0.32970  0.65690  1.0000 0.0339226488
C   C74       1.0  0.32970  0.03870  0.97470  1.0000 0.0339226488
C   C75       1.0  0.65690  0.97470  0.03870  1.0000 0.0339226488
C   C76       1.0  0.97470  0.65690  0.32970  1.0000 0.0339226488
C   C77       1.0  0.65690  0.03870  0.32970  1.0000 0.0339226488
C   C78       1.0  0.97470  0.32970  0.03870  1.0000 0.0339226488
C   C79       1.0  0.03870  0.65690  0.97470  1.0000 0.0339226488
C   C80       1.0  0.32970  0.97470  0.65690  1.0000 0.0339226488
C   C81       1.0  0.32970  0.65690  0.03870  1.0000 0.0339226488
C   C82       1.0  0.03870  0.97470  0.32970  1.0000 0.0339226488
C   C83       1.0  0.97470  0.03870  0.65690  1.0000 0.0339226488
C   C84       1.0  0.65690  0.32970  0.97470  1.0000 0.0339226488
C   C85       1.0  0.82970  0.53870  0.15690  1.0000 0.0339226488
C   C86       1.0  0.53870  0.82970  0.47470  1.0000 0.0339226488
C   C87       1.0  0.47470  0.15690  0.53870  1.0000 0.0339226488
C   C88       1.0  0.15690  0.47470  0.82970  1.0000 0.0339226488
C   C89       1.0  0.53870  0.15690  0.82970  1.0000 0.0339226488
C   C90       1.0  0.82970  0.47470  0.53870  1.0000 0.0339226488
C   C91       1.0  0.15690  0.53870  0.47470  1.0000 0.0339226488
C   C92       1.0  0.47470  0.82970  0.15690  1.0000 0.0339226488
C   C93       1.0  0.15690  0.82970  0.53870  1.0000 0.0339226488
C   C94       1.0  0.47470  0.53870  0.82970  1.0000 0.0339226488
C   C95       1.0  0.53870  0.47470  0.15690  1.0000 0.0339226488
C   C96       1.0  0.82970  0.15690  0.47470  1.0000 0.0339226488
N   N1        1.0  0.14210  0.23010  0.64770  1.0000 -0.2204359272
N   N2        1.0  0.23010  0.14210  0.98010  1.0000 -0.2204359272
N   N3        1.0  0.64770  0.98010  0.14210  1.0000 -0.2204359272
N   N4        1.0  0.98010  0.64770  0.23010  1.0000 -0.2204359272
N   N5        1.0  0.64770  0.14210  0.23010  1.0000 -0.2204359272
N   N6        1.0  0.98010  0.23010  0.14210  1.0000 -0.2204359272
N   N7        1.0  0.14210  0.64770  0.98010  1.0000 -0.2204359272
N   N8        1.0  0.23010  0.98010  0.64770  1.0000 -0.2204359272
N   N9        1.0  0.23010  0.64770  0.14210  1.0000 -0.2204359272
N   N10       1.0  0.14210  0.98010  0.23010  1.0000 -0.2204359272
N   N11       1.0  0.98010  0.14210  0.64770  1.0000 -0.2204359272
N   N12       1.0  0.64770  0.23010  0.98010  1.0000 -0.2204359272
N   N13       1.0  0.73010  0.64210  0.14770  1.0000 -0.2204359272
N   N14       1.0  0.64210  0.73010  0.48010  1.0000 -0.2204359272
N   N15       1.0  0.48010  0.14770  0.64210  1.0000 -0.2204359272
N   N16       1.0  0.14770  0.48010  0.73010  1.0000 -0.2204359272
N   N17       1.0  0.64210  0.14770  0.73010  1.0000 -0.2204359272
N   N18       1.0  0.73010  0.48010  0.64210  1.0000 -0.2204359272
N   N19       1.0  0.14770  0.64210  0.48010  1.0000 -0.2204359272
N   N20       1.0  0.48010  0.73010  0.14770  1.0000 -0.2204359272
N   N21       1.0  0.14770  0.73010  0.64210  1.0000 -0.2204359272
N   N22       1.0  0.48010  0.64210  0.73010  1.0000 -0.2204359272
N   N23       1.0  0.64210  0.48010  0.14770  1.0000 -0.2204359272
N   N24       1.0  0.73010  0.14770  0.48010  1.0000 -0.2204359272
N   N25       1.0  0.25910  0.01930  0.65530  1.0000 -0.2204359272
N   N26       1.0  0.01930  0.25910  0.06630  1.0000 -0.2204359272
N   N27       1.0  0.65530  0.06630  0.25910  1.0000 -0.2204359272
N   N28       1.0  0.06630  0.65530  0.01930  1.0000 -0.2204359272
N   N29       1.0  0.65530  0.25910  0.01930  1.0000 -0.2204359272
N   N30       1.0  0.06630  0.01930  0.25910  1.0000 -0.2204359272
N   N31       1.0  0.25910  0.65530  0.06630  1.0000 -0.2204359272
N   N32       1.0  0.01930  0.06630  0.65530  1.0000 -0.2204359272
N   N33       1.0  0.01930  0.65530  0.25910  1.0000 -0.2204359272
N   N34       1.0  0.25910  0.06630  0.01930  1.0000 -0.2204359272
N   N35       1.0  0.06630  0.25910  0.65530  1.0000 -0.2204359272
N   N36       1.0  0.65530  0.01930  0.06630  1.0000 -0.2204359272
N   N37       1.0  0.51930  0.75910  0.15530  1.0000 -0.2204359272
N   N38       1.0  0.75910  0.51930  0.56630  1.0000 -0.2204359272
N   N39       1.0  0.56630  0.15530  0.75910  1.0000 -0.2204359272
N   N40       1.0  0.15530  0.56630  0.51930  1.0000 -0.2204359272
N   N41       1.0  0.75910  0.15530  0.51930  1.0000 -0.2204359272
N   N42       1.0  0.51930  0.56630  0.75910  1.0000 -0.2204359272
N   N43       1.0  0.15530  0.75910  0.56630  1.0000 -0.2204359272
N   N44       1.0  0.56630  0.51930  0.15530  1.0000 -0.2204359272
N   N45       1.0  0.15530  0.51930  0.75910  1.0000 -0.2204359272
N   N46       1.0  0.56630  0.75910  0.51930  1.0000 -0.2204359272
N   N47       1.0  0.75910  0.56630  0.15530  1.0000 -0.2204359272
N   N48       1.0  0.51930  0.15530  0.56630  1.0000 -0.2204359272
O   O1        1.0  0.15519  0.42459  0.63381  1.0000 -0.5470185862
O   O2        1.0  0.42459  0.15519  0.78641  1.0000 -0.5470185862
O   O3        1.0  0.63381  0.78641  0.15519  1.0000 -0.5470185862
O   O4        1.0  0.78641  0.63381  0.42459  1.0000 -0.5470185862
O   O5        1.0  0.63381  0.15519  0.42459  1.0000 -0.5470185862
O   O6        1.0  0.78641  0.42459  0.15519  1.0000 -0.5470185862
O   O7        1.0  0.15519  0.63381  0.78641  1.0000 -0.5470185862
O   O8        1.0  0.42459  0.78641  0.63381  1.0000 -0.5470185862
O   O9        1.0  0.42459  0.63381  0.15519  1.0000 -0.5470185862
O   O10       1.0  0.15519  0.78641  0.42459  1.0000 -0.5470185862
O   O11       1.0  0.78641  0.15519  0.63381  1.0000 -0.5470185862
O   O12       1.0  0.63381  0.42459  0.78641  1.0000 -0.5470185862
O   O13       1.0  0.92459  0.65519  0.13381  1.0000 -0.5470185862
O   O14       1.0  0.65519  0.92459  0.28641  1.0000 -0.5470185862
O   O15       1.0  0.28641  0.13381  0.65519  1.0000 -0.5470185862
O   O16       1.0  0.13381  0.28641  0.92459  1.0000 -0.5470185862
O   O17       1.0  0.65519  0.13381  0.92459  1.0000 -0.5470185862
O   O18       1.0  0.92459  0.28641  0.65519  1.0000 -0.5470185862
O   O19       1.0  0.13381  0.65519  0.28641  1.0000 -0.5470185862
O   O20       1.0  0.28641  0.92459  0.13381  1.0000 -0.5470185862
O   O21       1.0  0.13381  0.92459  0.65519  1.0000 -0.5470185862
O   O22       1.0  0.28641  0.65519  0.92459  1.0000 -0.5470185862
O   O23       1.0  0.65519  0.28641  0.13381  1.0000 -0.5470185862
O   O24       1.0  0.92459  0.13381  0.28641  1.0000 -0.5470185862
O   O25       1.0  0.02740  0.47340  0.65660  1.0000 -0.5058260683
O   O26       1.0  0.47340  0.02740  0.84260  1.0000 -0.5058260683
O   O27       1.0  0.65660  0.84260  0.02740  1.0000 -0.5023325171
O   O28       1.0  0.84260  0.65660  0.47340  1.0000 -0.5058260683
O   O29       1.0  0.65660  0.02740  0.47340  1.0000 -0.5058260683
O   O30       1.0  0.84260  0.47340  0.02740  1.0000 -0.5058260683
O   O31       1.0  0.02740  0.65660  0.84260  1.0000 -0.5058260683
O   O32       1.0  0.47340  0.84260  0.65660  1.0000 -0.5023325171
O   O33       1.0  0.47340  0.65660  0.02740  1.0000 -0.5023325171
O   O34       1.0  0.02740  0.84260  0.47340  1.0000 -0.5058260683
O   O35       1.0  0.84260  0.02740  0.65660  1.0000 -0.5058260683
O   O36       1.0  0.65660  0.47340  0.84260  1.0000 -0.5058260683
O   O37       1.0  0.97340  0.52740  0.15660  1.0000 -0.5023325171
O   O38       1.0  0.52740  0.97340  0.34260  1.0000 -0.5023325171
O   O39       1.0  0.34260  0.15660  0.52740  1.0000 -0.5058260683
O   O40       1.0  0.15660  0.34260  0.97340  1.0000 -0.5058260683
O   O41       1.0  0.52740  0.15660  0.97340  1.0000 -0.5058260683
O   O42       1.0  0.97340  0.34260  0.52740  1.0000 -0.5058260683
O   O43       1.0  0.15660  0.52740  0.34260  1.0000 -0.5058260683
O   O44       1.0  0.34260  0.97340  0.15660  1.0000 -0.5023325171
O   O45       1.0  0.15660  0.97340  0.52740  1.0000 -0.5023325171
O   O46       1.0  0.34260  0.52740  0.97340  1.0000 -0.5058260683
O   O47       1.0  0.52740  0.34260  0.15660  1.0000 -0.5023325171
O   O48       1.0  0.97340  0.15660  0.34260  1.0000 -0.5058260683
O   O49       1.0  0.12830  0.12830  0.61510  1.0000 -0.0789827769
O   O50       1.0  0.12830  0.12830  0.12830  1.0000 -0.0789827769
O   O51       1.0  0.61510  0.12830  0.12830  1.0000 -0.0789827769
O   O52       1.0  0.12830  0.61510  0.12830  1.0000 -0.0789827769
O   O53       1.0  0.62830  0.62830  0.11510  1.0000 -0.0789827769
O   O54       1.0  0.62830  0.62830  0.62830  1.0000 -0.0789827769
O   O55       1.0  0.62830  0.11510  0.62830  1.0000 -0.0789827769
O   O56       1.0  0.11510  0.62830  0.62830  1.0000 -0.0740204465
O   O57       1.0  0.10710  0.10710  0.67870  1.0000 -0.116089745
O   O58       1.0  0.10710  0.10710  0.10710  1.0000 -0.116089745
O   O59       1.0  0.67870  0.10710  0.10710  1.0000 -0.116089745
O   O60       1.0  0.10710  0.67870  0.10710  1.0000 -0.1144502339
O   O61       1.0  0.60710  0.60710  0.17870  1.0000 -0.116089745
O   O62       1.0  0.60710  0.60710  0.60710  1.0000 -0.116089745
O   O63       1.0  0.60710  0.17870  0.60710  1.0000 -0.116089745
O   O64       1.0  0.17870  0.60710  0.60710  1.0000 -0.116089745
