# DDEC6 charges by PACMAN v1.1 (https://github.com/mtap-research/PACMAN-charge/)
data_2012[Gd][pcu]3[ASR]2
_chemical_formula_sum              "Gd4 H24 C84 N24 O72"
_cell_length_a       19.4413
_cell_length_b       19.4413
_cell_length_c       13.356
_cell_angle_alpha    86.1526
_cell_angle_beta     93.8474
_cell_angle_gamma    77.8425

_symmetry_space_group_name_H-M    "P 1"
_symmetry_Int_Tables_number       1

loop_
  _symmetry_equiv_pos_as_xyz
  'x, y, z'

loop_
  _atom_site_type_symbol
  _atom_site_label
  _atom_site_symmetry_multiplicity
  _atom_site_fract_x
  _atom_site_fract_y
  _atom_site_fract_z
  _atom_site_occupancy
  _atom_site_charge
Gd  Gd1       1.0  0.46125  0.01521  0.35247  1.0000 1.9926953867
Gd  Gd2       1.0  0.01521  0.46125  0.14753  1.0000 1.9958153322
Gd  Gd3       1.0  0.53875  0.98479  0.64753  1.0000 1.9958153322
Gd  Gd4       1.0  0.98479  0.53875  0.85247  1.0000 1.9926953867
H   H1        1.0  0.59810  0.16930  0.29590  1.0000 0.1487846106
H   H2        1.0  0.16930  0.59810  0.20410  1.0000 0.1487846106
H   H3        1.0  0.40190  0.83070  0.70410  1.0000 0.1487846106
H   H4        1.0  0.83070  0.40190  0.79590  1.0000 0.1487846106
H   H5        1.0  0.69640  0.11640  0.57010  1.0000 0.1487846106
H   H6        1.0  0.11640  0.69640  0.92990  1.0000 0.1487846106
H   H7        1.0  0.30360  0.88360  0.42990  1.0000 0.1487846106
H   H8        1.0  0.88360  0.30360  0.07010  1.0000 0.1487846106
H   H9        1.0  0.81180  0.42660  0.34020  1.0000 0.1411805555
H   H10       1.0  0.42660  0.81180  0.15980  1.0000 0.1411805555
H   H11       1.0  0.18820  0.57340  0.65980  1.0000 0.1411805555
H   H12       1.0  0.57340  0.18820  0.84020  1.0000 0.1411805555
H   H13       1.0  0.94370  0.25050  0.28470  1.0000 0.1572701048
H   H14       1.0  0.25050  0.94370  0.21530  1.0000 0.1572701048
H   H15       1.0  0.05630  0.74950  0.71530  1.0000 0.1572701048
H   H16       1.0  0.74950  0.05630  0.78470  1.0000 0.1572701048
H   H17       1.0  0.56980  0.85340  0.32230  1.0000 0.1411805555
H   H18       1.0  0.85340  0.56980  0.17770  1.0000 0.1411805555
H   H19       1.0  0.43020  0.14660  0.67770  1.0000 0.1411805555
H   H20       1.0  0.14660  0.43020  0.82230  1.0000 0.1411805555
H   H21       1.0  0.74310  0.83670  0.50640  1.0000 0.1572701048
H   H22       1.0  0.83670  0.74310  0.99360  1.0000 0.1572701048
H   H23       1.0  0.25690  0.16330  0.49360  1.0000 0.1572701048
H   H24       1.0  0.16330  0.25690  0.00640  1.0000 0.1572701048
C   C1        1.0  0.58520  0.09120  0.45810  1.0000 0.6376734033
C   C2        1.0  0.09120  0.58520  0.04190  1.0000 0.6376734033
C   C3        1.0  0.41480  0.90880  0.54190  1.0000 0.6376734033
C   C4        1.0  0.90880  0.41480  0.95810  1.0000 0.6376734033
C   C5        1.0  0.63670  0.13810  0.43750  1.0000 0.0016967135
C   C6        1.0  0.13810  0.63670  0.06250  1.0000 0.0016967135
C   C7        1.0  0.36330  0.86190  0.56250  1.0000 0.0016967135
C   C8        1.0  0.86190  0.36330  0.93750  1.0000 0.0016967135
C   C9        1.0  0.63320  0.17360  0.34440  1.0000 -0.1001261995
C   C10       1.0  0.17360  0.63320  0.15560  1.0000 -0.1001261995
C   C11       1.0  0.36680  0.82640  0.65560  1.0000 -0.1001261995
C   C12       1.0  0.82640  0.36680  0.84440  1.0000 -0.1001261995
C   C13       1.0  0.67890  0.21450  0.32040  1.0000 0.0325408645
C   C14       1.0  0.21450  0.67890  0.17960  1.0000 0.0325408645
C   C15       1.0  0.32110  0.78550  0.67960  1.0000 0.0325408645
C   C16       1.0  0.78550  0.32110  0.82040  1.0000 0.0325408645
C   C17       1.0  0.73280  0.22320  0.38860  1.0000 -0.0030366219
C   C18       1.0  0.22320  0.73280  0.11140  1.0000 -0.0116083561
C   C19       1.0  0.26720  0.77680  0.61140  1.0000 -0.0030366219
C   C20       1.0  0.77680  0.26720  0.88860  1.0000 -0.0030366219
C   C21       1.0  0.73720  0.18540  0.48040  1.0000 0.0366224378
C   C22       1.0  0.18540  0.73720  0.01960  1.0000 0.0325408645
C   C23       1.0  0.26280  0.81460  0.51960  1.0000 0.0366224378
C   C24       1.0  0.81460  0.26280  0.98040  1.0000 0.0366224378
C   C25       1.0  0.69070  0.14170  0.50740  1.0000 -0.1291428117
C   C26       1.0  0.14170  0.69070  0.99260  1.0000 -0.1291428117
C   C27       1.0  0.30930  0.85830  0.49260  1.0000 -0.1291428117
C   C28       1.0  0.85830  0.30930  0.00740  1.0000 -0.1291428117
C   C29       1.0  0.78710  0.26650  0.36480  1.0000 0.0016967135
C   C30       1.0  0.26650  0.78710  0.13520  1.0000 -0.0030366219
C   C31       1.0  0.21290  0.73350  0.63520  1.0000 -0.0030366219
C   C32       1.0  0.73350  0.21290  0.86480  1.0000 -0.0030366219
C   C33       1.0  0.77570  0.33910  0.36780  1.0000 0.0325408645
C   C34       1.0  0.33910  0.77570  0.13220  1.0000 0.0325408645
C   C35       1.0  0.22430  0.66090  0.63220  1.0000 0.0325408645
C   C36       1.0  0.66090  0.22430  0.86780  1.0000 0.0325408645
C   C37       1.0  0.82210  0.37790  0.33750  1.0000 -0.1291428117
C   C38       1.0  0.37790  0.82210  0.16250  1.0000 -0.1291428117
C   C39       1.0  0.17790  0.62210  0.66250  1.0000 -0.1291428117
C   C40       1.0  0.62210  0.17790  0.83750  1.0000 -0.1291428117
C   C41       1.0  0.88410  0.34450  0.30300  1.0000 0.0130308642
C   C42       1.0  0.34450  0.88410  0.19700  1.0000 0.0130308642
C   C43       1.0  0.11590  0.65550  0.69700  1.0000 0.0130308642
C   C44       1.0  0.65550  0.11590  0.80300  1.0000 0.0130308642
C   C45       1.0  0.90020  0.27340  0.30380  1.0000 -0.1101657921
C   C46       1.0  0.27340  0.90020  0.19620  1.0000 -0.1101657921
C   C47       1.0  0.09980  0.72660  0.69620  1.0000 -0.1101657921
C   C48       1.0  0.72660  0.09980  0.80380  1.0000 -0.1101657921
C   C49       1.0  0.85180  0.23440  0.33320  1.0000 0.0325408645
C   C50       1.0  0.23440  0.85180  0.16680  1.0000 0.0325408645
C   C51       1.0  0.14820  0.76560  0.66680  1.0000 0.0325408645
C   C52       1.0  0.76560  0.14820  0.83320  1.0000 0.0325408645
C   C53       1.0  0.93440  0.38800  0.26260  1.0000 0.577294077
C   C54       1.0  0.38800  0.93440  0.23740  1.0000 0.577294077
C   C55       1.0  0.06560  0.61200  0.73740  1.0000 0.577294077
C   C56       1.0  0.61200  0.06560  0.76260  1.0000 0.577294077
C   C57       1.0  0.60850  0.90110  0.49540  1.0000 0.6175124302
C   C58       1.0  0.90110  0.60850  0.00460  1.0000 0.6175124302
C   C59       1.0  0.39150  0.09890  0.50460  1.0000 0.6175124302
C   C60       1.0  0.09890  0.39150  0.99540  1.0000 0.6175124302
C   C61       1.0  0.65060  0.85820  0.42050  1.0000 0.0016967135
C   C62       1.0  0.85820  0.65060  0.07950  1.0000 0.0016967135
C   C63       1.0  0.34940  0.14180  0.57950  1.0000 0.0016967135
C   C64       1.0  0.14180  0.34940  0.92050  1.0000 0.0016967135
C   C65       1.0  0.61860  0.83920  0.33570  1.0000 -0.1291428117
C   C66       1.0  0.83920  0.61860  0.16430  1.0000 -0.1291428117
C   C67       1.0  0.38140  0.16080  0.66430  1.0000 -0.1291428117
C   C68       1.0  0.16080  0.38140  0.83570  1.0000 -0.1291428117
C   C69       1.0  0.65830  0.79870  0.26940  1.0000 0.0162914174
C   C70       1.0  0.79870  0.65830  0.23060  1.0000 0.0130308642
C   C71       1.0  0.34170  0.20130  0.73060  1.0000 0.0130308642
C   C72       1.0  0.20130  0.34170  0.76940  1.0000 0.0162914174
C   C73       1.0  0.73070  0.77690  0.28480  1.0000 -0.0116083561
C   C74       1.0  0.77690  0.73070  0.21520  1.0000 -0.0116083561
C   C75       1.0  0.26930  0.22310  0.71520  1.0000 -0.0116083561
C   C76       1.0  0.22310  0.26930  0.78480  1.0000 -0.0116083561
C   C77       1.0  0.76230  0.79210  0.37600  1.0000 0.0325408645
C   C78       1.0  0.79210  0.76230  0.12400  1.0000 0.0325408645
C   C79       1.0  0.23770  0.20790  0.62400  1.0000 0.0325408645
C   C80       1.0  0.20790  0.23770  0.87600  1.0000 0.0325408645
C   C81       1.0  0.72200  0.83020  0.44420  1.0000 -0.1101657921
C   C82       1.0  0.83020  0.72200  0.05580  1.0000 -0.1001261995
C   C83       1.0  0.27800  0.16980  0.55580  1.0000 -0.1101657921
C   C84       1.0  0.16980  0.27800  0.94420  1.0000 -0.1101657921
N   N1        1.0  0.67190  0.24790  0.22050  1.0000 0.4827981025
N   N2        1.0  0.24790  0.67190  0.27950  1.0000 0.4827981025
N   N3        1.0  0.32810  0.75210  0.77950  1.0000 0.4827981025
N   N4        1.0  0.75210  0.32810  0.72050  1.0000 0.4827981025
N   N5        1.0  0.79590  0.18550  0.55730  1.0000 0.5100644673
N   N6        1.0  0.18550  0.79590  0.94270  1.0000 0.5100644673
N   N7        1.0  0.20410  0.81450  0.44270  1.0000 0.5100644673
N   N8        1.0  0.81450  0.20410  0.05730  1.0000 0.5017878249
N   N9        1.0  0.71000  0.37720  0.40710  1.0000 0.5100644673
N   N10       1.0  0.37720  0.71000  0.09290  1.0000 0.5100644673
N   N11       1.0  0.29000  0.62280  0.59290  1.0000 0.5100644673
N   N12       1.0  0.62280  0.29000  0.90710  1.0000 0.5100644673
N   N13       1.0  0.87040  0.15860  0.32840  1.0000 0.5100644673
N   N14       1.0  0.15860  0.87040  0.17160  1.0000 0.5100644673
N   N15       1.0  0.12960  0.84140  0.67160  1.0000 0.5100644673
N   N16       1.0  0.84140  0.12960  0.82840  1.0000 0.5100644673
N   N17       1.0  0.62260  0.78020  0.18370  1.0000 0.449254846
N   N18       1.0  0.78020  0.62260  0.31630  1.0000 0.4445460394
N   N19       1.0  0.37740  0.21980  0.81630  1.0000 0.449254846
N   N20       1.0  0.21980  0.37740  0.68370  1.0000 0.449254846
N   N21       1.0  0.83690  0.77110  0.39970  1.0000 0.5017878249
N   N22       1.0  0.77110  0.83690  0.10030  1.0000 0.5017878249
N   N23       1.0  0.16310  0.22890  0.60030  1.0000 0.5017878249
N   N24       1.0  0.22890  0.16310  0.89970  1.0000 0.5017878249
O   O1        1.0  0.53890  0.08970  0.39160  1.0000 -0.6493138567
O   O2        1.0  0.08970  0.53890  0.10840  1.0000 -0.6493138567
O   O3        1.0  0.46110  0.91030  0.60840  1.0000 -0.6493138567
O   O4        1.0  0.91030  0.46110  0.89160  1.0000 -0.6493138567
O   O5        1.0  0.59760  0.05680  0.54450  1.0000 -0.6493138567
O   O6        1.0  0.05680  0.59760  0.95550  1.0000 -0.6493138567
O   O7        1.0  0.40240  0.94320  0.45550  1.0000 -0.6493138567
O   O8        1.0  0.94320  0.40240  0.04450  1.0000 -0.6493138567
O   O9        1.0  0.90970  0.45250  0.23880  1.0000 -0.6406675175
O   O10       1.0  0.45250  0.90970  0.26120  1.0000 -0.6406675175
O   O11       1.0  0.09030  0.54750  0.76120  1.0000 -0.6406675175
O   O12       1.0  0.54750  0.09030  0.73880  1.0000 -0.6406675175
O   O13       1.0  0.99560  0.35820  0.24880  1.0000 -0.5978725002
O   O14       1.0  0.35820  0.99560  0.25120  1.0000 -0.5978725002
O   O15       1.0  0.00440  0.64180  0.75120  1.0000 -0.5978725002
O   O16       1.0  0.64180  0.00440  0.74880  1.0000 -0.5978725002
O   O17       1.0  0.63380  0.23200  0.15710  1.0000 -0.241077774
O   O18       1.0  0.23200  0.63380  0.34290  1.0000 -0.241077774
O   O19       1.0  0.36620  0.76800  0.84290  1.0000 -0.241077774
O   O20       1.0  0.76800  0.36620  0.65710  1.0000 -0.241077774
O   O21       1.0  0.70630  0.28890  0.19620  1.0000 -0.294292216
O   O22       1.0  0.28890  0.70630  0.30380  1.0000 -0.2997746594
O   O23       1.0  0.29370  0.71110  0.80380  1.0000 -0.2997746594
O   O24       1.0  0.71110  0.29370  0.69620  1.0000 -0.2997746594
O   O25       1.0  0.81420  0.12940  0.61920  1.0000 -0.3610492394
O   O26       1.0  0.12940  0.81420  0.88080  1.0000 -0.3610492394
O   O27       1.0  0.18580  0.87060  0.38080  1.0000 -0.3610492394
O   O28       1.0  0.87060  0.18580  0.11920  1.0000 -0.3610492394
O   O29       1.0  0.83060  0.22540  0.55540  1.0000 -0.241077774
O   O30       1.0  0.22540  0.83060  0.94460  1.0000 -0.241077774
O   O31       1.0  0.16940  0.77460  0.44460  1.0000 -0.241077774
O   O32       1.0  0.77460  0.16940  0.05540  1.0000 -0.241077774
O   O33       1.0  0.66890  0.34450  0.43760  1.0000 -0.2997746594
O   O34       1.0  0.34450  0.66890  0.06240  1.0000 -0.2997746594
O   O35       1.0  0.33110  0.65550  0.56240  1.0000 -0.2997746594
O   O36       1.0  0.65550  0.33110  0.93760  1.0000 -0.2997746594
O   O37       1.0  0.70690  0.43710  0.42040  1.0000 -0.2544455772
O   O38       1.0  0.43710  0.70690  0.07960  1.0000 -0.2588909015
O   O39       1.0  0.29310  0.56290  0.57960  1.0000 -0.2544455772
O   O40       1.0  0.56290  0.29310  0.92040  1.0000 -0.2544455772
O   O41       1.0  0.82420  0.12560  0.31450  1.0000 -0.329294917
O   O42       1.0  0.12560  0.82420  0.18550  1.0000 -0.329294917
O   O43       1.0  0.17580  0.87440  0.68550  1.0000 -0.329294917
O   O44       1.0  0.87440  0.17580  0.81450  1.0000 -0.329294917
O   O45       1.0  0.93420  0.12980  0.33170  1.0000 -0.2997746594
O   O46       1.0  0.12980  0.93420  0.16830  1.0000 -0.2997746594
O   O47       1.0  0.06580  0.87020  0.66830  1.0000 -0.2997746594
O   O48       1.0  0.87020  0.06580  0.83170  1.0000 -0.2997746594
O   O49       1.0  0.55090  0.94030  0.45970  1.0000 -0.7285828188
O   O50       1.0  0.94030  0.55090  0.04030  1.0000 -0.7285828188
O   O51       1.0  0.44910  0.05970  0.54030  1.0000 -0.7285828188
O   O52       1.0  0.05970  0.44910  0.95970  1.0000 -0.7285828188
O   O53       1.0  0.63250  0.89750  0.58220  1.0000 -0.5588631973
O   O54       1.0  0.89750  0.63250  0.91780  1.0000 -0.5588631973
O   O55       1.0  0.36750  0.10250  0.41780  1.0000 -0.5588631973
O   O56       1.0  0.10250  0.36750  0.08220  1.0000 -0.5588631973
O   O57       1.0  0.64900  0.76380  0.11000  1.0000 -0.2013954516
O   O58       1.0  0.76380  0.64900  0.39000  1.0000 -0.1934398458
O   O59       1.0  0.35100  0.23620  0.89000  1.0000 -0.2013954516
O   O60       1.0  0.23620  0.35100  0.61000  1.0000 -0.2013954516
O   O61       1.0  0.56090  0.80090  0.15900  1.0000 -0.1729236439
O   O62       1.0  0.80090  0.56090  0.34100  1.0000 -0.1729236439
O   O63       1.0  0.43910  0.19910  0.84100  1.0000 -0.1729236439
O   O64       1.0  0.19910  0.43910  0.65900  1.0000 -0.1729236439
O   O65       1.0  0.87790  0.76070  0.33820  1.0000 -0.3214795783
O   O66       1.0  0.76070  0.87790  0.16180  1.0000 -0.3214795783
O   O67       1.0  0.12210  0.23930  0.66180  1.0000 -0.3214795783
O   O68       1.0  0.23930  0.12210  0.83820  1.0000 -0.3214795783
O   O69       1.0  0.85640  0.76060  0.48990  1.0000 -0.3103935391
O   O70       1.0  0.76060  0.85640  0.01010  1.0000 -0.3103935391
O   O71       1.0  0.14360  0.23940  0.51010  1.0000 -0.3103935391
O   O72       1.0  0.23940  0.14360  0.98990  1.0000 -0.3103935391
