# DDEC6 charges by PACMAN v1.1 (https://github.com/mtap-research/PACMAN-charge/)
data_2012[CoGd][nan]3[ASR]1
_chemical_formula_sum              "Gd24 Co16 H296 C576 N96 O192"
_cell_length_a       18.5617
_cell_length_b       18.7144
_cell_length_c       49.0783
_cell_angle_alpha    90
_cell_angle_beta     90
_cell_angle_gamma    90

_symmetry_space_group_name_H-M    "P 1"
_symmetry_Int_Tables_number       1

loop_
  _symmetry_equiv_pos_as_xyz
  'x, y, z'

loop_
  _atom_site_type_symbol
  _atom_site_label
  _atom_site_symmetry_multiplicity
  _atom_site_fract_x
  _atom_site_fract_y
  _atom_site_fract_z
  _atom_site_occupancy
  _atom_site_charge
Gd  Gd1       1.0  0.69844  0.07956  0.37855  1.0000 2.1041878558
Gd  Gd2       1.0  0.19844  0.92044  0.12145  1.0000 2.1041878558
Gd  Gd3       1.0  0.30156  0.42044  0.87855  1.0000 2.1041878558
Gd  Gd4       1.0  0.80156  0.57956  0.62145  1.0000 2.1041878558
Gd  Gd5       1.0  0.30156  0.92044  0.62145  1.0000 2.1041878558
Gd  Gd6       1.0  0.80156  0.07956  0.87855  1.0000 2.1041878558
Gd  Gd7       1.0  0.69844  0.57956  0.12145  1.0000 2.1041878558
Gd  Gd8       1.0  0.19844  0.42044  0.37855  1.0000 2.1041878558
Gd  Gd9       1.0  0.85831  0.90317  0.37754  1.0000 2.0812655784
Gd  Gd10      1.0  0.35831  0.09683  0.12246  1.0000 2.0812655784
Gd  Gd11      1.0  0.14169  0.59683  0.87754  1.0000 2.0812655784
Gd  Gd12      1.0  0.64169  0.40317  0.62246  1.0000 2.0812655784
Gd  Gd13      1.0  0.14169  0.09683  0.62246  1.0000 2.0812655784
Gd  Gd14      1.0  0.64169  0.90317  0.87754  1.0000 2.0812655784
Gd  Gd15      1.0  0.85831  0.40317  0.12246  1.0000 2.0812655784
Gd  Gd16      1.0  0.35831  0.59683  0.37754  1.0000 2.0812655784
Gd  Gd17      1.0  0.80320  0.02016  0.12423  1.0000 1.9064515926
Gd  Gd18      1.0  0.30320  0.97984  0.37577  1.0000 1.9064515926
Gd  Gd19      1.0  0.19680  0.47984  0.62423  1.0000 1.9064515926
Gd  Gd20      1.0  0.69680  0.52016  0.87577  1.0000 1.9064515926
Gd  Gd21      1.0  0.19680  0.97984  0.87577  1.0000 1.9064515926
Gd  Gd22      1.0  0.69680  0.02016  0.62423  1.0000 1.9064515926
Gd  Gd23      1.0  0.80320  0.52016  0.37577  1.0000 1.9064515926
Gd  Gd24      1.0  0.30320  0.47984  0.12423  1.0000 1.9064515926
Co  Co1       1.0  0.53599  0.88284  0.24637  1.0000 0.4502647839
Co  Co2       1.0  0.03599  0.11716  0.25363  1.0000 0.4502647839
Co  Co3       1.0  0.46401  0.61716  0.74637  1.0000 0.4502647839
Co  Co4       1.0  0.96401  0.38284  0.75363  1.0000 0.4502647839
Co  Co5       1.0  0.46401  0.11716  0.75363  1.0000 0.4502647839
Co  Co6       1.0  0.96401  0.88284  0.74637  1.0000 0.4502647839
Co  Co7       1.0  0.53599  0.38284  0.25363  1.0000 0.4502647839
Co  Co8       1.0  0.03599  0.61716  0.24637  1.0000 0.4502647839
Co  Co9       1.0  0.88782  0.75302  0.00188  1.0000 0.4308269306
Co  Co10      1.0  0.38782  0.24698  0.49812  1.0000 0.4308269306
Co  Co11      1.0  0.11218  0.74698  0.50188  1.0000 0.4308269306
Co  Co12      1.0  0.61218  0.25302  0.99812  1.0000 0.4308269306
Co  Co13      1.0  0.11218  0.24698  0.99812  1.0000 0.4308269306
Co  Co14      1.0  0.61218  0.75302  0.50188  1.0000 0.4308269306
Co  Co15      1.0  0.88782  0.25302  0.49812  1.0000 0.4308269306
Co  Co16      1.0  0.38782  0.74698  0.00188  1.0000 0.4308269306
H   H1        1.0  0.83220  0.16830  0.44940  1.0000 0.1200618316
H   H2        1.0  0.33220  0.83170  0.05060  1.0000 0.1200618316
H   H3        1.0  0.16780  0.33170  0.94940  1.0000 0.1200618316
H   H4        1.0  0.66780  0.66830  0.55060  1.0000 0.1200618316
H   H5        1.0  0.16780  0.83170  0.55060  1.0000 0.1200618316
H   H6        1.0  0.66780  0.16830  0.94940  1.0000 0.1200618316
H   H7        1.0  0.83220  0.66830  0.05060  1.0000 0.1200618316
H   H8        1.0  0.33220  0.33170  0.44940  1.0000 0.1200618316
H   H9        1.0  0.97430  0.00950  0.43840  1.0000 0.129763189
H   H10       1.0  0.47430  0.99050  0.06160  1.0000 0.129763189
H   H11       1.0  0.02570  0.49050  0.93840  1.0000 0.129763189
H   H12       1.0  0.52570  0.50950  0.56160  1.0000 0.129763189
H   H13       1.0  0.02570  0.99050  0.56160  1.0000 0.129763189
H   H14       1.0  0.52570  0.00950  0.93840  1.0000 0.129763189
H   H15       1.0  0.97430  0.50950  0.06160  1.0000 0.129763189
H   H16       1.0  0.47430  0.49050  0.43840  1.0000 0.129763189
H   H17       1.0  0.03400  0.04850  0.47710  1.0000 0.129763189
H   H18       1.0  0.53400  0.95150  0.02290  1.0000 0.129763189
H   H19       1.0  0.96600  0.45150  0.97710  1.0000 0.129763189
H   H20       1.0  0.46600  0.54850  0.52290  1.0000 0.129763189
H   H21       1.0  0.96600  0.95150  0.52290  1.0000 0.129763189
H   H22       1.0  0.46600  0.04850  0.97710  1.0000 0.129763189
H   H23       1.0  0.03400  0.54850  0.02290  1.0000 0.129763189
H   H24       1.0  0.53400  0.45150  0.47710  1.0000 0.129763189
H   H25       1.0  0.08600  0.09030  0.51410  1.0000 0.129763189
H   H26       1.0  0.58600  0.90970  0.98590  1.0000 0.129763189
H   H27       1.0  0.91400  0.40970  0.01410  1.0000 0.129763189
H   H28       1.0  0.41400  0.59030  0.48590  1.0000 0.129763189
H   H29       1.0  0.91400  0.90970  0.48590  1.0000 0.129763189
H   H30       1.0  0.41400  0.09030  0.01410  1.0000 0.129763189
H   H31       1.0  0.08600  0.59030  0.98590  1.0000 0.129763189
H   H32       1.0  0.58600  0.40970  0.51410  1.0000 0.129763189
H   H33       1.0  0.12400  0.13070  0.55600  1.0000 0.1200618316
H   H34       1.0  0.62400  0.86930  0.94400  1.0000 0.1200618316
H   H35       1.0  0.87600  0.36930  0.05600  1.0000 0.1200618316
H   H36       1.0  0.37600  0.63070  0.44400  1.0000 0.1200618316
H   H37       1.0  0.87600  0.86930  0.44400  1.0000 0.1200618316
H   H38       1.0  0.37600  0.13070  0.05600  1.0000 0.1200618316
H   H39       1.0  0.12400  0.63070  0.94400  1.0000 0.1200618316
H   H40       1.0  0.62400  0.36930  0.55600  1.0000 0.1200618316
H   H41       1.0  0.96420  0.27200  0.55530  1.0000 0.111149837
H   H42       1.0  0.46420  0.72800  0.94470  1.0000 0.111149837
H   H43       1.0  0.03580  0.22800  0.05530  1.0000 0.111149837
H   H44       1.0  0.53580  0.77200  0.44470  1.0000 0.111149837
H   H45       1.0  0.03580  0.72800  0.44470  1.0000 0.111149837
H   H46       1.0  0.53580  0.27200  0.05530  1.0000 0.111149837
H   H47       1.0  0.96420  0.77200  0.94470  1.0000 0.111149837
H   H48       1.0  0.46420  0.22800  0.55530  1.0000 0.111149837
H   H49       1.0  0.70600  0.82060  0.45650  1.0000 0.1200618316
H   H50       1.0  0.20600  0.17940  0.04350  1.0000 0.1200618316
H   H51       1.0  0.29400  0.67940  0.95650  1.0000 0.1200618316
H   H52       1.0  0.79400  0.32060  0.54350  1.0000 0.1200618316
H   H53       1.0  0.29400  0.17940  0.54350  1.0000 0.1200618316
H   H54       1.0  0.79400  0.82060  0.95650  1.0000 0.1200618316
H   H55       1.0  0.70600  0.32060  0.04350  1.0000 0.1200618316
H   H56       1.0  0.20600  0.67940  0.45650  1.0000 0.1200618316
H   H57       1.0  0.58430  0.97910  0.42700  1.0000 0.129763189
H   H58       1.0  0.08430  0.02090  0.07300  1.0000 0.129763189
H   H59       1.0  0.41570  0.52090  0.92700  1.0000 0.129763189
H   H60       1.0  0.91570  0.47910  0.57300  1.0000 0.129763189
H   H61       1.0  0.41570  0.02090  0.57300  1.0000 0.129763189
H   H62       1.0  0.91570  0.97910  0.92700  1.0000 0.129763189
H   H63       1.0  0.58430  0.47910  0.07300  1.0000 0.129763189
H   H64       1.0  0.08430  0.52090  0.42700  1.0000 0.129763189
H   H65       1.0  0.50480  0.96020  0.46240  1.0000 0.129763189
H   H66       1.0  0.00480  0.03980  0.03760  1.0000 0.129763189
H   H67       1.0  0.49520  0.53980  0.96240  1.0000 0.129763189
H   H68       1.0  0.99520  0.46020  0.53760  1.0000 0.129763189
H   H69       1.0  0.49520  0.03980  0.53760  1.0000 0.129763189
H   H70       1.0  0.99520  0.96020  0.96240  1.0000 0.129763189
H   H71       1.0  0.50480  0.46020  0.03760  1.0000 0.129763189
H   H72       1.0  0.00480  0.53980  0.46240  1.0000 0.129763189
H   H73       1.0  0.43620  0.93950  0.49810  1.0000 0.129763189
H   H74       1.0  0.93620  0.06050  0.00190  1.0000 0.129763189
H   H75       1.0  0.56380  0.56050  0.99810  1.0000 0.129763189
H   H76       1.0  0.06380  0.43950  0.50190  1.0000 0.129763189
H   H77       1.0  0.56380  0.06050  0.50190  1.0000 0.129763189
H   H78       1.0  0.06380  0.93950  0.99810  1.0000 0.129763189
H   H79       1.0  0.43620  0.43950  0.00190  1.0000 0.129763189
H   H80       1.0  0.93620  0.56050  0.49810  1.0000 0.129763189
H   H81       1.0  0.37470  0.91540  0.53810  1.0000 0.1200618316
H   H82       1.0  0.87470  0.08460  0.96190  1.0000 0.1200618316
H   H83       1.0  0.62530  0.58460  0.03810  1.0000 0.1200618316
H   H84       1.0  0.12530  0.41540  0.46190  1.0000 0.1200618316
H   H85       1.0  0.62530  0.08460  0.46190  1.0000 0.1200618316
H   H86       1.0  0.12530  0.91540  0.03810  1.0000 0.1200618316
H   H87       1.0  0.37470  0.41540  0.96190  1.0000 0.1200618316
H   H88       1.0  0.87470  0.58460  0.53810  1.0000 0.1200618316
H   H89       1.0  0.51210  0.75460  0.55200  1.0000 0.111149837
H   H90       1.0  0.01210  0.24540  0.94800  1.0000 0.111149837
H   H91       1.0  0.48790  0.74540  0.05200  1.0000 0.111149837
H   H92       1.0  0.98790  0.25460  0.44800  1.0000 0.111149837
H   H93       1.0  0.48790  0.24540  0.44800  1.0000 0.111149837
H   H94       1.0  0.98790  0.75460  0.05200  1.0000 0.111149837
H   H95       1.0  0.51210  0.25460  0.94800  1.0000 0.111149837
H   H96       1.0  0.01210  0.74540  0.55200  1.0000 0.111149837
H   H97       1.0  0.60900  0.94900  0.29830  1.0000 0.111149837
H   H98       1.0  0.10900  0.05100  0.20170  1.0000 0.111149837
H   H99       1.0  0.39100  0.55100  0.79830  1.0000 0.111149837
H   H100      1.0  0.89100  0.44900  0.70170  1.0000 0.111149837
H   H101      1.0  0.39100  0.05100  0.70170  1.0000 0.111149837
H   H102      1.0  0.89100  0.94900  0.79830  1.0000 0.111149837
H   H103      1.0  0.60900  0.44900  0.20170  1.0000 0.111149837
H   H104      1.0  0.10900  0.55100  0.29830  1.0000 0.111149837
H   H105      1.0  0.75220  0.80350  0.32410  1.0000 0.1413256828
H   H106      1.0  0.25220  0.19650  0.17590  1.0000 0.1413256828
H   H107      1.0  0.24780  0.69650  0.82410  1.0000 0.1413256828
H   H108      1.0  0.74780  0.30350  0.67590  1.0000 0.1413256828
H   H109      1.0  0.24780  0.19650  0.67590  1.0000 0.1413256828
H   H110      1.0  0.74780  0.80350  0.82410  1.0000 0.1413256828
H   H111      1.0  0.75220  0.30350  0.17590  1.0000 0.1413256828
H   H112      1.0  0.25220  0.69650  0.32410  1.0000 0.1413256828
H   H113      1.0  0.72790  0.73670  0.28570  1.0000 0.129763189
H   H114      1.0  0.22790  0.26330  0.21430  1.0000 0.129763189
H   H115      1.0  0.27210  0.76330  0.78570  1.0000 0.129763189
H   H116      1.0  0.77210  0.23670  0.71430  1.0000 0.129763189
H   H117      1.0  0.27210  0.26330  0.71430  1.0000 0.129763189
H   H118      1.0  0.77210  0.73670  0.78570  1.0000 0.129763189
H   H119      1.0  0.72790  0.23670  0.21430  1.0000 0.129763189
H   H120      1.0  0.22790  0.76330  0.28570  1.0000 0.129763189
H   H121      1.0  0.71240  0.68750  0.24660  1.0000 0.129763189
H   H122      1.0  0.21240  0.31250  0.25340  1.0000 0.129763189
H   H123      1.0  0.28760  0.81250  0.74660  1.0000 0.129763189
H   H124      1.0  0.78760  0.18750  0.75340  1.0000 0.129763189
H   H125      1.0  0.28760  0.31250  0.75340  1.0000 0.129763189
H   H126      1.0  0.78760  0.68750  0.74660  1.0000 0.129763189
H   H127      1.0  0.71240  0.18750  0.25340  1.0000 0.129763189
H   H128      1.0  0.21240  0.81250  0.24660  1.0000 0.129763189
H   H129      1.0  0.68660  0.63920  0.20340  1.0000 0.129763189
H   H130      1.0  0.18660  0.36080  0.29660  1.0000 0.129763189
H   H131      1.0  0.31340  0.86080  0.70340  1.0000 0.129763189
H   H132      1.0  0.81340  0.13920  0.79660  1.0000 0.129763189
H   H133      1.0  0.31340  0.36080  0.79660  1.0000 0.129763189
H   H134      1.0  0.81340  0.63920  0.70340  1.0000 0.129763189
H   H135      1.0  0.68660  0.13920  0.29660  1.0000 0.129763189
H   H136      1.0  0.18660  0.86080  0.20340  1.0000 0.129763189
H   H137      1.0  0.54330  0.79420  0.19210  1.0000 0.102656158
H   H138      1.0  0.04330  0.20580  0.30790  1.0000 0.102656158
H   H139      1.0  0.45670  0.70580  0.69210  1.0000 0.102656158
H   H140      1.0  0.95670  0.29420  0.80790  1.0000 0.102656158
H   H141      1.0  0.45670  0.20580  0.80790  1.0000 0.102656158
H   H142      1.0  0.95670  0.79420  0.69210  1.0000 0.102656158
H   H143      1.0  0.54330  0.29420  0.30790  1.0000 0.102656158
H   H144      1.0  0.04330  0.70580  0.19210  1.0000 0.102656158
H   H145      1.0  0.51870  0.79580  0.30200  1.0000 0.111149837
H   H146      1.0  0.01870  0.20420  0.19800  1.0000 0.111149837
H   H147      1.0  0.48130  0.70420  0.80200  1.0000 0.111149837
H   H148      1.0  0.98130  0.29580  0.69800  1.0000 0.111149837
H   H149      1.0  0.48130  0.20420  0.69800  1.0000 0.111149837
H   H150      1.0  0.98130  0.79580  0.80200  1.0000 0.111149837
H   H151      1.0  0.51870  0.29580  0.19800  1.0000 0.111149837
H   H152      1.0  0.01870  0.70420  0.30200  1.0000 0.111149837
H   H153      1.0  0.36570  0.64980  0.28940  1.0000 0.1200618316
H   H154      1.0  0.86570  0.35020  0.21060  1.0000 0.1200618316
H   H155      1.0  0.63430  0.85020  0.78940  1.0000 0.1200618316
H   H156      1.0  0.13430  0.14980  0.71060  1.0000 0.1200618316
H   H157      1.0  0.63430  0.35020  0.71060  1.0000 0.1200618316
H   H158      1.0  0.13430  0.64980  0.78940  1.0000 0.1200618316
H   H159      1.0  0.36570  0.14980  0.21060  1.0000 0.1200618316
H   H160      1.0  0.86570  0.85020  0.28940  1.0000 0.1200618316
H   H161      1.0  0.34910  0.69770  0.24570  1.0000 0.1200618316
H   H162      1.0  0.84910  0.30230  0.25430  1.0000 0.1200618316
H   H163      1.0  0.65090  0.80230  0.74570  1.0000 0.1200618316
H   H164      1.0  0.15090  0.19770  0.75430  1.0000 0.1200618316
H   H165      1.0  0.65090  0.30230  0.75430  1.0000 0.1200618316
H   H166      1.0  0.15090  0.69770  0.74570  1.0000 0.1200618316
H   H167      1.0  0.34910  0.19770  0.25430  1.0000 0.1200618316
H   H168      1.0  0.84910  0.80230  0.24570  1.0000 0.1200618316
H   H169      1.0  0.33540  0.74900  0.20700  1.0000 0.129763189
H   H170      1.0  0.83540  0.25100  0.29300  1.0000 0.129763189
H   H171      1.0  0.66460  0.75100  0.70700  1.0000 0.129763189
H   H172      1.0  0.16460  0.24900  0.79300  1.0000 0.129763189
H   H173      1.0  0.66460  0.25100  0.79300  1.0000 0.129763189
H   H174      1.0  0.16460  0.74900  0.70700  1.0000 0.129763189
H   H175      1.0  0.33540  0.24900  0.29300  1.0000 0.129763189
H   H176      1.0  0.83540  0.75100  0.20700  1.0000 0.129763189
H   H177      1.0  0.30840  0.82390  0.17060  1.0000 0.129763189
H   H178      1.0  0.80840  0.17610  0.32940  1.0000 0.129763189
H   H179      1.0  0.69160  0.67610  0.67060  1.0000 0.129763189
H   H180      1.0  0.19160  0.32390  0.82940  1.0000 0.129763189
H   H181      1.0  0.69160  0.17610  0.82940  1.0000 0.129763189
H   H182      1.0  0.19160  0.82390  0.67060  1.0000 0.129763189
H   H183      1.0  0.30840  0.32390  0.32940  1.0000 0.129763189
H   H184      1.0  0.80840  0.67610  0.17060  1.0000 0.129763189
H   H185      1.0  0.46270  0.95700  0.19620  1.0000 0.1200618316
H   H186      1.0  0.96270  0.04300  0.30380  1.0000 0.1200618316
H   H187      1.0  0.53730  0.54300  0.69620  1.0000 0.1200618316
H   H188      1.0  0.03730  0.45700  0.80380  1.0000 0.1200618316
H   H189      1.0  0.53730  0.04300  0.80380  1.0000 0.1200618316
H   H190      1.0  0.03730  0.95700  0.69620  1.0000 0.1200618316
H   H191      1.0  0.46270  0.45700  0.30380  1.0000 0.1200618316
H   H192      1.0  0.96270  0.54300  0.19620  1.0000 0.1200618316
H   H193      1.0  0.43750  0.91830  0.29490  1.0000 0.1200618316
H   H194      1.0  0.93750  0.08170  0.20510  1.0000 0.1200618316
H   H195      1.0  0.56250  0.58170  0.79490  1.0000 0.1200618316
H   H196      1.0  0.06250  0.41830  0.70510  1.0000 0.1200618316
H   H197      1.0  0.56250  0.08170  0.70510  1.0000 0.1200618316
H   H198      1.0  0.06250  0.91830  0.79490  1.0000 0.1200618316
H   H199      1.0  0.43750  0.41830  0.20510  1.0000 0.1200618316
H   H200      1.0  0.93750  0.58170  0.29490  1.0000 0.1200618316
H   H201      1.0  0.44670  0.12890  0.30640  1.0000 0.111149837
H   H202      1.0  0.94670  0.87110  0.19360  1.0000 0.111149837
H   H203      1.0  0.55330  0.37110  0.80640  1.0000 0.111149837
H   H204      1.0  0.05330  0.62890  0.69360  1.0000 0.111149837
H   H205      1.0  0.55330  0.87110  0.69360  1.0000 0.111149837
H   H206      1.0  0.05330  0.12890  0.80640  1.0000 0.111149837
H   H207      1.0  0.44670  0.62890  0.19360  1.0000 0.111149837
H   H208      1.0  0.94670  0.37110  0.30640  1.0000 0.111149837
H   H209      1.0  0.51270  0.13890  0.26680  1.0000 0.1200618316
H   H210      1.0  0.01270  0.86110  0.23320  1.0000 0.1200618316
H   H211      1.0  0.48730  0.36110  0.76680  1.0000 0.1200618316
H   H212      1.0  0.98730  0.63890  0.73320  1.0000 0.1200618316
H   H213      1.0  0.48730  0.86110  0.73320  1.0000 0.1200618316
H   H214      1.0  0.98730  0.13890  0.76680  1.0000 0.1200618316
H   H215      1.0  0.51270  0.63890  0.23320  1.0000 0.1200618316
H   H216      1.0  0.01270  0.36110  0.26680  1.0000 0.1200618316
H   H217      1.0  0.56240  0.13920  0.22500  1.0000 0.1200618316
H   H218      1.0  0.06240  0.86080  0.27500  1.0000 0.1200618316
H   H219      1.0  0.43760  0.36080  0.72500  1.0000 0.1200618316
H   H220      1.0  0.93760  0.63920  0.77500  1.0000 0.1200618316
H   H221      1.0  0.43760  0.86080  0.77500  1.0000 0.1200618316
H   H222      1.0  0.93760  0.13920  0.72500  1.0000 0.1200618316
H   H223      1.0  0.56240  0.63920  0.27500  1.0000 0.1200618316
H   H224      1.0  0.06240  0.36080  0.22500  1.0000 0.1200618316
H   H225      1.0  0.63030  0.12840  0.18630  1.0000 0.129763189
H   H226      1.0  0.13030  0.87160  0.31370  1.0000 0.129763189
H   H227      1.0  0.36970  0.37160  0.68630  1.0000 0.129763189
H   H228      1.0  0.86970  0.62840  0.81370  1.0000 0.129763189
H   H229      1.0  0.36970  0.87160  0.81370  1.0000 0.129763189
H   H230      1.0  0.86970  0.12840  0.68630  1.0000 0.129763189
H   H231      1.0  0.63030  0.62840  0.31370  1.0000 0.129763189
H   H232      1.0  0.13030  0.37160  0.18630  1.0000 0.129763189
H   H233      1.0  0.63920  0.91850  0.19730  1.0000 0.111149837
H   H234      1.0  0.13920  0.08150  0.30270  1.0000 0.111149837
H   H235      1.0  0.36080  0.58150  0.69730  1.0000 0.111149837
H   H236      1.0  0.86080  0.41850  0.80270  1.0000 0.111149837
H   H237      1.0  0.36080  0.08150  0.80270  1.0000 0.111149837
H   H238      1.0  0.86080  0.91850  0.69730  1.0000 0.111149837
H   H239      1.0  0.63920  0.41850  0.30270  1.0000 0.111149837
H   H240      1.0  0.13920  0.58150  0.19730  1.0000 0.111149837
H   H241      1.0  0.86890  0.83980  0.05470  1.0000 0.111149837
H   H242      1.0  0.36890  0.16020  0.44530  1.0000 0.111149837
H   H243      1.0  0.13110  0.66020  0.55470  1.0000 0.111149837
H   H244      1.0  0.63110  0.33980  0.94530  1.0000 0.111149837
H   H245      1.0  0.13110  0.16020  0.94530  1.0000 0.111149837
H   H246      1.0  0.63110  0.83980  0.55470  1.0000 0.111149837
H   H247      1.0  0.86890  0.33980  0.44530  1.0000 0.111149837
H   H248      1.0  0.36890  0.66020  0.05470  1.0000 0.111149837
H   H249      1.0  0.65560  0.86380  0.06420  1.0000 0.129763189
H   H250      1.0  0.15560  0.13620  0.43580  1.0000 0.129763189
H   H251      1.0  0.34440  0.63620  0.56420  1.0000 0.129763189
H   H252      1.0  0.84440  0.36380  0.93580  1.0000 0.129763189
H   H253      1.0  0.34440  0.13620  0.93580  1.0000 0.129763189
H   H254      1.0  0.84440  0.86380  0.56420  1.0000 0.129763189
H   H255      1.0  0.65560  0.36380  0.43580  1.0000 0.129763189
H   H256      1.0  0.15560  0.63620  0.06420  1.0000 0.129763189
H   H257      1.0  0.63960  0.79210  0.02600  1.0000 0.1200618316
H   H258      1.0  0.13960  0.20790  0.47400  1.0000 0.111149837
H   H259      1.0  0.36040  0.70790  0.52600  1.0000 0.1200618316
H   H260      1.0  0.86040  0.29210  0.97400  1.0000 0.111149837
H   H261      1.0  0.36040  0.20790  0.97400  1.0000 0.111149837
H   H262      1.0  0.86040  0.79210  0.52600  1.0000 0.1200618316
H   H263      1.0  0.63960  0.29210  0.47400  1.0000 0.1200618316
H   H264      1.0  0.13960  0.70790  0.02600  1.0000 0.1200618316
H   H265      1.0  0.63280  0.72200  0.99020  1.0000 0.1200618316
H   H266      1.0  0.13280  0.27800  0.50980  1.0000 0.1200618316
H   H267      1.0  0.36720  0.77800  0.49020  1.0000 0.1200618316
H   H268      1.0  0.86720  0.22200  0.00980  1.0000 0.1200618316
H   H269      1.0  0.36720  0.27800  0.00980  1.0000 0.1200618316
H   H270      1.0  0.86720  0.72200  0.49020  1.0000 0.1200618316
H   H271      1.0  0.63280  0.22200  0.50980  1.0000 0.1200618316
H   H272      1.0  0.13280  0.77800  0.99020  1.0000 0.1200618316
H   H273      1.0  0.63660  0.64440  0.95300  1.0000 0.129763189
H   H274      1.0  0.13660  0.35560  0.54700  1.0000 0.129763189
H   H275      1.0  0.36340  0.85560  0.45300  1.0000 0.129763189
H   H276      1.0  0.86340  0.14440  0.04700  1.0000 0.129763189
H   H277      1.0  0.36340  0.35560  0.04700  1.0000 0.129763189
H   H278      1.0  0.86340  0.64440  0.45300  1.0000 0.129763189
H   H279      1.0  0.63660  0.14440  0.54700  1.0000 0.129763189
H   H280      1.0  0.13660  0.85560  0.95300  1.0000 0.129763189
H   H281      1.0  0.85080  0.64730  0.95620  1.0000 0.1200618316
H   H282      1.0  0.35080  0.35270  0.54380  1.0000 0.1200618316
H   H283      1.0  0.14920  0.85270  0.45620  1.0000 0.1200618316
H   H284      1.0  0.64920  0.14730  0.04380  1.0000 0.1200618316
H   H285      1.0  0.14920  0.35270  0.04380  1.0000 0.1200618316
H   H286      1.0  0.64920  0.64730  0.45620  1.0000 0.1200618316
H   H287      1.0  0.85080  0.14730  0.54380  1.0000 0.1200618316
H   H288      1.0  0.35080  0.85270  0.95620  1.0000 0.1200618316
H   H289      1.0  0.51620  0.67470  0.14900  1.0000 0.3674545683
H   H290      1.0  0.01620  0.32530  0.35100  1.0000 0.3674545683
H   H291      1.0  0.48380  0.82530  0.64900  1.0000 0.3674545683
H   H292      1.0  0.98380  0.17470  0.85100  1.0000 0.3674545683
H   H293      1.0  0.48380  0.32530  0.85100  1.0000 0.3674545683
H   H294      1.0  0.98380  0.67470  0.64900  1.0000 0.3674545683
H   H295      1.0  0.51620  0.17470  0.35100  1.0000 0.3674545683
H   H296      1.0  0.01620  0.82530  0.14900  1.0000 0.3674545683
C   C1        1.0  0.84680  0.05440  0.41808  1.0000 0.6460245348
C   C2        1.0  0.34680  0.94560  0.08192  1.0000 0.6460245348
C   C3        1.0  0.15320  0.44560  0.91808  1.0000 0.6460245348
C   C4        1.0  0.65320  0.55440  0.58192  1.0000 0.6460245348
C   C5        1.0  0.15320  0.94560  0.58192  1.0000 0.6460245348
C   C6        1.0  0.65320  0.05440  0.91808  1.0000 0.6460245348
C   C7        1.0  0.84680  0.55440  0.08192  1.0000 0.6460245348
C   C8        1.0  0.34680  0.44560  0.41808  1.0000 0.6460245348
C   C9        1.0  0.87230  0.14290  0.45534  1.0000 0.0596980673
C   C10       1.0  0.37230  0.85710  0.04466  1.0000 0.0596980673
C   C11       1.0  0.12770  0.35710  0.95534  1.0000 0.0596980673
C   C12       1.0  0.62770  0.64290  0.54466  1.0000 0.0596980673
C   C13       1.0  0.12770  0.85710  0.54466  1.0000 0.0596980673
C   C14       1.0  0.62770  0.14290  0.95534  1.0000 0.0596980673
C   C15       1.0  0.87230  0.64290  0.04466  1.0000 0.0596980673
C   C16       1.0  0.37230  0.35710  0.45534  1.0000 0.0596980673
C   C17       1.0  0.89360  0.08160  0.44119  1.0000 -0.0614377371
C   C18       1.0  0.39360  0.91840  0.05881  1.0000 -0.0614377371
C   C19       1.0  0.10640  0.41840  0.94119  1.0000 -0.0614377371
C   C20       1.0  0.60640  0.58160  0.55881  1.0000 -0.0614377371
C   C21       1.0  0.10640  0.91840  0.55881  1.0000 -0.0614377371
C   C22       1.0  0.60640  0.08160  0.94119  1.0000 -0.0614377371
C   C23       1.0  0.89360  0.58160  0.05881  1.0000 -0.0614377371
C   C24       1.0  0.39360  0.41840  0.44119  1.0000 -0.0614377371
C   C25       1.0  0.95660  0.04760  0.44855  1.0000 -0.0614377371
C   C26       1.0  0.45660  0.95240  0.05145  1.0000 -0.0614377371
C   C27       1.0  0.04340  0.45240  0.94855  1.0000 -0.0614377371
C   C28       1.0  0.54340  0.54760  0.55145  1.0000 -0.0614377371
C   C29       1.0  0.04340  0.95240  0.55145  1.0000 -0.0614377371
C   C30       1.0  0.54340  0.04760  0.94855  1.0000 -0.0614377371
C   C31       1.0  0.95660  0.54760  0.05145  1.0000 -0.0614377371
C   C32       1.0  0.45660  0.45240  0.44855  1.0000 -0.0614377371
C   C33       1.0  0.99250  0.07190  0.47136  1.0000 -0.1789494257
C   C34       1.0  0.49250  0.92810  0.02864  1.0000 -0.1789494257
C   C35       1.0  0.00750  0.42810  0.97136  1.0000 -0.1789494257
C   C36       1.0  0.50750  0.57190  0.52864  1.0000 -0.1789494257
C   C37       1.0  0.00750  0.92810  0.52864  1.0000 -0.1789494257
C   C38       1.0  0.50750  0.07190  0.97136  1.0000 -0.1789494257
C   C39       1.0  0.99250  0.57190  0.02864  1.0000 -0.1789494257
C   C40       1.0  0.49250  0.42810  0.47136  1.0000 -0.1789494257
C   C41       1.0  0.96830  0.12900  0.48544  1.0000 0.1413256828
C   C42       1.0  0.46830  0.87100  0.01456  1.0000 0.1413256828
C   C43       1.0  0.03170  0.37100  0.98544  1.0000 0.1413256828
C   C44       1.0  0.53170  0.62900  0.51456  1.0000 0.1413256828
C   C45       1.0  0.03170  0.87100  0.51456  1.0000 0.1413256828
C   C46       1.0  0.53170  0.12900  0.98544  1.0000 0.1413256828
C   C47       1.0  0.96830  0.62900  0.01456  1.0000 0.1413256828
C   C48       1.0  0.46830  0.37100  0.48544  1.0000 0.1413256828
C   C49       1.0  0.00020  0.15500  0.51136  1.0000 0.1413256828
C   C50       1.0  0.50020  0.84500  0.98864  1.0000 0.1413256828
C   C51       1.0  0.99980  0.34500  0.01136  1.0000 0.1413256828
C   C52       1.0  0.49980  0.65500  0.48864  1.0000 0.1413256828
C   C53       1.0  0.99980  0.84500  0.48864  1.0000 0.1413256828
C   C54       1.0  0.49980  0.15500  0.01136  1.0000 0.1413256828
C   C55       1.0  0.00020  0.65500  0.98864  1.0000 0.1413256828
C   C56       1.0  0.50020  0.34500  0.51136  1.0000 0.1413256828
C   C57       1.0  0.06090  0.12650  0.52294  1.0000 -0.1881981772
C   C58       1.0  0.56090  0.87350  0.97706  1.0000 -0.1881981772
C   C59       1.0  0.93910  0.37350  0.02294  1.0000 -0.1881981772
C   C60       1.0  0.43910  0.62650  0.47706  1.0000 -0.1881981772
C   C61       1.0  0.93910  0.87350  0.47706  1.0000 -0.1881981772
C   C62       1.0  0.43910  0.12650  0.02294  1.0000 -0.1881981772
C   C63       1.0  0.06090  0.62650  0.97706  1.0000 -0.1881981772
C   C64       1.0  0.56090  0.37350  0.52294  1.0000 -0.1881981772
C   C65       1.0  0.08420  0.15140  0.54756  1.0000 -0.079843685
C   C66       1.0  0.58420  0.84860  0.95244  1.0000 -0.079843685
C   C67       1.0  0.91580  0.34860  0.04756  1.0000 -0.079843685
C   C68       1.0  0.41580  0.65140  0.45244  1.0000 -0.079843685
C   C69       1.0  0.91580  0.84860  0.45244  1.0000 -0.079843685
C   C70       1.0  0.41580  0.15140  0.04756  1.0000 -0.079843685
C   C71       1.0  0.08420  0.65140  0.95244  1.0000 -0.079843685
C   C72       1.0  0.58420  0.34860  0.54756  1.0000 -0.079843685
C   C73       1.0  0.04830  0.20740  0.55983  1.0000 -0.0682353002
C   C74       1.0  0.54830  0.79260  0.94017  1.0000 -0.0682353002
C   C75       1.0  0.95170  0.29260  0.05983  1.0000 -0.0682353002
C   C76       1.0  0.45170  0.70740  0.44017  1.0000 -0.0682353002
C   C77       1.0  0.95170  0.79260  0.44017  1.0000 -0.0682353002
C   C78       1.0  0.45170  0.20740  0.05983  1.0000 -0.0682353002
C   C79       1.0  0.04830  0.70740  0.94017  1.0000 -0.0682353002
C   C80       1.0  0.54830  0.29260  0.55983  1.0000 -0.0682353002
C   C81       1.0  0.98880  0.23470  0.54694  1.0000 0.0177174967
C   C82       1.0  0.48880  0.76530  0.95306  1.0000 0.0177174967
C   C83       1.0  0.01120  0.26530  0.04694  1.0000 0.0177174967
C   C84       1.0  0.51120  0.73470  0.45306  1.0000 0.0177174967
C   C85       1.0  0.01120  0.76530  0.45306  1.0000 0.0177174967
C   C86       1.0  0.51120  0.23470  0.04694  1.0000 0.0177174967
C   C87       1.0  0.98880  0.73470  0.95306  1.0000 0.0177174967
C   C88       1.0  0.48880  0.26530  0.54694  1.0000 0.0177174967
C   C89       1.0  0.07340  0.24180  0.58600  1.0000 0.5995332695
C   C90       1.0  0.57340  0.75820  0.91400  1.0000 0.5995332695
C   C91       1.0  0.92660  0.25820  0.08600  1.0000 0.5995332695
C   C92       1.0  0.42660  0.74180  0.41400  1.0000 0.5995332695
C   C93       1.0  0.92660  0.75820  0.41400  1.0000 0.5995332695
C   C94       1.0  0.42660  0.24180  0.08600  1.0000 0.5995332695
C   C95       1.0  0.07340  0.74180  0.91400  1.0000 0.5995332695
C   C96       1.0  0.57340  0.25820  0.58600  1.0000 0.5995332695
C   C97       1.0  0.71200  0.91940  0.41669  1.0000 0.6292018987
C   C98       1.0  0.21200  0.08060  0.08331  1.0000 0.6292018987
C   C99       1.0  0.28800  0.58060  0.91669  1.0000 0.6292018987
C   C100      1.0  0.78800  0.41940  0.58331  1.0000 0.6292018987
C   C101      1.0  0.28800  0.08060  0.58331  1.0000 0.6292018987
C   C102      1.0  0.78800  0.91940  0.91669  1.0000 0.6292018987
C   C103      1.0  0.71200  0.41940  0.08331  1.0000 0.6292018987
C   C104      1.0  0.21200  0.58060  0.41669  1.0000 0.6292018987
C   C105      1.0  0.66540  0.84960  0.45765  1.0000 0.0596980673
C   C106      1.0  0.16540  0.15040  0.04235  1.0000 0.0596980673
C   C107      1.0  0.33460  0.65040  0.95765  1.0000 0.0596980673
C   C108      1.0  0.83460  0.34960  0.54235  1.0000 0.0596980673
C   C109      1.0  0.33460  0.15040  0.54235  1.0000 0.0596980673
C   C110      1.0  0.83460  0.84960  0.95765  1.0000 0.0596980673
C   C111      1.0  0.66540  0.34960  0.04235  1.0000 0.0596980673
C   C112      1.0  0.16540  0.65040  0.45765  1.0000 0.0596980673
C   C113      1.0  0.65710  0.90370  0.43838  1.0000 -0.0682353002
C   C114      1.0  0.15710  0.09630  0.06162  1.0000 -0.0682353002
C   C115      1.0  0.34290  0.59630  0.93838  1.0000 -0.0682353002
C   C116      1.0  0.84290  0.40370  0.56162  1.0000 -0.0682353002
C   C117      1.0  0.34290  0.09630  0.56162  1.0000 -0.0682353002
C   C118      1.0  0.84290  0.90370  0.93838  1.0000 -0.0682353002
C   C119      1.0  0.65710  0.40370  0.06162  1.0000 -0.0682353002
C   C120      1.0  0.15710  0.59630  0.43838  1.0000 -0.0682353002
C   C121      1.0  0.59400  0.94440  0.44002  1.0000 -0.0487543245
C   C122      1.0  0.09400  0.05560  0.05998  1.0000 -0.0487543245
C   C123      1.0  0.40600  0.55560  0.94002  1.0000 -0.0487543245
C   C124      1.0  0.90600  0.44440  0.55998  1.0000 -0.0487543245
C   C125      1.0  0.40600  0.05560  0.55998  1.0000 -0.0487543245
C   C126      1.0  0.90600  0.94440  0.94002  1.0000 -0.0487543245
C   C127      1.0  0.59400  0.44440  0.05998  1.0000 -0.0487543245
C   C128      1.0  0.09400  0.55560  0.44002  1.0000 -0.0487543245
C   C129      1.0  0.54630  0.93250  0.46107  1.0000 -0.1789494257
C   C130      1.0  0.04630  0.06750  0.03893  1.0000 -0.1789494257
C   C131      1.0  0.45370  0.56750  0.96107  1.0000 -0.1789494257
C   C132      1.0  0.95370  0.43250  0.53893  1.0000 -0.1789494257
C   C133      1.0  0.45370  0.06750  0.53893  1.0000 -0.1789494257
C   C134      1.0  0.95370  0.93250  0.96107  1.0000 -0.1789494257
C   C135      1.0  0.54630  0.43250  0.03893  1.0000 -0.1789494257
C   C136      1.0  0.04630  0.56750  0.46107  1.0000 -0.1789494257
C   C137      1.0  0.55970  0.88000  0.48012  1.0000 0.1413256828
C   C138      1.0  0.05970  0.12000  0.01988  1.0000 0.1413256828
C   C139      1.0  0.44030  0.62000  0.98012  1.0000 0.1413256828
C   C140      1.0  0.94030  0.38000  0.51988  1.0000 0.1413256828
C   C141      1.0  0.44030  0.12000  0.51988  1.0000 0.1413256828
C   C142      1.0  0.94030  0.88000  0.98012  1.0000 0.1413256828
C   C143      1.0  0.55970  0.38000  0.01988  1.0000 0.1413256828
C   C144      1.0  0.05970  0.62000  0.48012  1.0000 0.1413256828
C   C145      1.0  0.51280  0.86460  0.50323  1.0000 0.1413256828
C   C146      1.0  0.01280  0.13540  0.99677  1.0000 0.1413256828
C   C147      1.0  0.48720  0.63540  0.00323  1.0000 0.1413256828
C   C148      1.0  0.98720  0.36460  0.49677  1.0000 0.1413256828
C   C149      1.0  0.48720  0.13540  0.49677  1.0000 0.1413256828
C   C150      1.0  0.98720  0.86460  0.00323  1.0000 0.1413256828
C   C151      1.0  0.51280  0.36460  0.99677  1.0000 0.1413256828
C   C152      1.0  0.01280  0.63540  0.50323  1.0000 0.1413256828
C   C153      1.0  0.45210  0.90340  0.50964  1.0000 -0.1789494257
C   C154      1.0  0.95210  0.09660  0.99036  1.0000 -0.1789494257
C   C155      1.0  0.54790  0.59660  0.00964  1.0000 -0.1789494257
C   C156      1.0  0.04790  0.40340  0.49036  1.0000 -0.1789494257
C   C157      1.0  0.54790  0.09660  0.49036  1.0000 -0.1789494257
C   C158      1.0  0.04790  0.90340  0.00964  1.0000 -0.1789494257
C   C159      1.0  0.45210  0.40340  0.99036  1.0000 -0.1789494257
C   C160      1.0  0.95210  0.59660  0.50964  1.0000 -0.1789494257
C   C161      1.0  0.41490  0.88830  0.53337  1.0000 -0.0682353002
C   C162      1.0  0.91490  0.11170  0.96663  1.0000 -0.0682353002
C   C163      1.0  0.58510  0.61170  0.03337  1.0000 -0.0682353002
C   C164      1.0  0.08510  0.38830  0.46663  1.0000 -0.0682353002
C   C165      1.0  0.58510  0.11170  0.46663  1.0000 -0.0682353002
C   C166      1.0  0.08510  0.88830  0.03337  1.0000 -0.0682353002
C   C167      1.0  0.41490  0.38830  0.96663  1.0000 -0.0682353002
C   C168      1.0  0.91490  0.61170  0.53337  1.0000 -0.0682353002
C   C169      1.0  0.43740  0.83290  0.55010  1.0000 -0.0614377371
C   C170      1.0  0.93740  0.16710  0.94990  1.0000 -0.0614377371
C   C171      1.0  0.56260  0.66710  0.05010  1.0000 -0.0614377371
C   C172      1.0  0.06260  0.33290  0.44990  1.0000 -0.0614377371
C   C173      1.0  0.56260  0.16710  0.44990  1.0000 -0.0614377371
C   C174      1.0  0.06260  0.83290  0.05010  1.0000 -0.0614377371
C   C175      1.0  0.43740  0.33290  0.94990  1.0000 -0.0614377371
C   C176      1.0  0.93740  0.66710  0.55010  1.0000 -0.0614377371
C   C177      1.0  0.49710  0.79300  0.54140  1.0000 0.027947348
C   C178      1.0  0.99710  0.20700  0.95860  1.0000 0.027947348
C   C179      1.0  0.50290  0.70700  0.04140  1.0000 0.027947348
C   C180      1.0  0.00290  0.29300  0.45860  1.0000 0.027947348
C   C181      1.0  0.50290  0.20700  0.45860  1.0000 0.027947348
C   C182      1.0  0.00290  0.79300  0.04140  1.0000 0.027947348
C   C183      1.0  0.49710  0.29300  0.95860  1.0000 0.027947348
C   C184      1.0  0.99710  0.70700  0.54140  1.0000 0.027947348
C   C185      1.0  0.39910  0.81510  0.57642  1.0000 0.5818334915
C   C186      1.0  0.89910  0.18490  0.92358  1.0000 0.5818334915
C   C187      1.0  0.60090  0.68490  0.07642  1.0000 0.5818334915
C   C188      1.0  0.10090  0.31510  0.42358  1.0000 0.5818334915
C   C189      1.0  0.60090  0.18490  0.42358  1.0000 0.5818334915
C   C190      1.0  0.10090  0.81510  0.07642  1.0000 0.5818334915
C   C191      1.0  0.39910  0.31510  0.92358  1.0000 0.5818334915
C   C192      1.0  0.89910  0.68490  0.57642  1.0000 0.5818334915
C   C193      1.0  0.70470  0.93150  0.33901  1.0000 0.6399610288
C   C194      1.0  0.20470  0.06850  0.16099  1.0000 0.6399610288
C   C195      1.0  0.29530  0.56850  0.83901  1.0000 0.6399610288
C   C196      1.0  0.79530  0.43150  0.66099  1.0000 0.6399610288
C   C197      1.0  0.29530  0.06850  0.66099  1.0000 0.6399610288
C   C198      1.0  0.79530  0.93150  0.83901  1.0000 0.6399610288
C   C199      1.0  0.70470  0.43150  0.16099  1.0000 0.6399610288
C   C200      1.0  0.20470  0.56850  0.33901  1.0000 0.6399610288
C   C201      1.0  0.63370  0.90630  0.29570  1.0000 0.0688544683
C   C202      1.0  0.13370  0.09370  0.20430  1.0000 0.0688544683
C   C203      1.0  0.36630  0.59370  0.79570  1.0000 0.0688544683
C   C204      1.0  0.86630  0.40630  0.70430  1.0000 0.0688544683
C   C205      1.0  0.36630  0.09370  0.70430  1.0000 0.0688544683
C   C206      1.0  0.86630  0.90630  0.79570  1.0000 0.0688544683
C   C207      1.0  0.63370  0.40630  0.20430  1.0000 0.0688544683
C   C208      1.0  0.13370  0.59370  0.29570  1.0000 0.0688544683
C   C209      1.0  0.68510  0.88590  0.31528  1.0000 -0.079843685
C   C210      1.0  0.18510  0.11410  0.18472  1.0000 -0.079843685
C   C211      1.0  0.31490  0.61410  0.81528  1.0000 -0.079843685
C   C212      1.0  0.81490  0.38590  0.68472  1.0000 -0.079843685
C   C213      1.0  0.31490  0.11410  0.68472  1.0000 -0.079843685
C   C214      1.0  0.81490  0.88590  0.81528  1.0000 -0.079843685
C   C215      1.0  0.68510  0.38590  0.18472  1.0000 -0.079843685
C   C216      1.0  0.18510  0.61410  0.31528  1.0000 -0.079843685
C   C217      1.0  0.71940  0.82020  0.31122  1.0000 -0.0422699512
C   C218      1.0  0.21940  0.17980  0.18878  1.0000 -0.0487543245
C   C219      1.0  0.28060  0.67980  0.81122  1.0000 -0.0422699512
C   C220      1.0  0.78060  0.32020  0.68878  1.0000 -0.0422699512
C   C221      1.0  0.28060  0.17980  0.68878  1.0000 -0.0422699512
C   C222      1.0  0.78060  0.82020  0.81122  1.0000 -0.0422699512
C   C223      1.0  0.71940  0.32020  0.18878  1.0000 -0.0422699512
C   C224      1.0  0.21940  0.67980  0.31122  1.0000 -0.0422699512
C   C225      1.0  0.70500  0.78030  0.28851  1.0000 -0.1881981772
C   C226      1.0  0.20500  0.21970  0.21149  1.0000 -0.1881981772
C   C227      1.0  0.29500  0.71970  0.78851  1.0000 -0.1881981772
C   C228      1.0  0.79500  0.28030  0.71149  1.0000 -0.1881981772
C   C229      1.0  0.29500  0.21970  0.71149  1.0000 -0.1881981772
C   C230      1.0  0.79500  0.78030  0.78851  1.0000 -0.1881981772
C   C231      1.0  0.70500  0.28030  0.21149  1.0000 -0.1881981772
C   C232      1.0  0.20500  0.71970  0.28851  1.0000 -0.1881981772
C   C233      1.0  0.65600  0.80600  0.26988  1.0000 0.1481818122
C   C234      1.0  0.15600  0.19400  0.23012  1.0000 0.1481818122
C   C235      1.0  0.34400  0.69400  0.76988  1.0000 0.1481818122
C   C236      1.0  0.84400  0.30600  0.73012  1.0000 0.1481818122
C   C237      1.0  0.34400  0.19400  0.73012  1.0000 0.1481818122
C   C238      1.0  0.84400  0.80600  0.76988  1.0000 0.1481818122
C   C239      1.0  0.65600  0.30600  0.23012  1.0000 0.1481818122
C   C240      1.0  0.15600  0.69400  0.26988  1.0000 0.1481818122
C   C241      1.0  0.64290  0.76950  0.24340  1.0000 0.1481818122
C   C242      1.0  0.14290  0.23050  0.25660  1.0000 0.1481818122
C   C243      1.0  0.35710  0.73050  0.74340  1.0000 0.1481818122
C   C244      1.0  0.85710  0.26950  0.75660  1.0000 0.1481818122
C   C245      1.0  0.35710  0.23050  0.75660  1.0000 0.1481818122
C   C246      1.0  0.85710  0.76950  0.74340  1.0000 0.1481818122
C   C247      1.0  0.64290  0.26950  0.25660  1.0000 0.1481818122
C   C248      1.0  0.14290  0.73050  0.24340  1.0000 0.1481818122
C   C249      1.0  0.67870  0.70910  0.23525  1.0000 -0.1974356743
C   C250      1.0  0.17870  0.29090  0.26475  1.0000 -0.1974356743
C   C251      1.0  0.32130  0.79090  0.73525  1.0000 -0.1974356743
C   C252      1.0  0.82130  0.20910  0.76475  1.0000 -0.1974356743
C   C253      1.0  0.32130  0.29090  0.76475  1.0000 -0.1974356743
C   C254      1.0  0.82130  0.70910  0.73525  1.0000 -0.1974356743
C   C255      1.0  0.67870  0.20910  0.26475  1.0000 -0.1974356743
C   C256      1.0  0.17870  0.79090  0.23525  1.0000 -0.1974356743
C   C257      1.0  0.66340  0.68050  0.20930  1.0000 -0.0614377371
C   C258      1.0  0.16340  0.31950  0.29070  1.0000 -0.0614377371
C   C259      1.0  0.33660  0.81950  0.70930  1.0000 -0.0614377371
C   C260      1.0  0.83660  0.18050  0.79070  1.0000 -0.0614377371
C   C261      1.0  0.33660  0.31950  0.79070  1.0000 -0.0614377371
C   C262      1.0  0.83660  0.68050  0.70930  1.0000 -0.0614377371
C   C263      1.0  0.66340  0.18050  0.29070  1.0000 -0.0614377371
C   C264      1.0  0.16340  0.81950  0.20930  1.0000 -0.0614377371
C   C265      1.0  0.61450  0.71360  0.19300  1.0000 -0.0882567555
C   C266      1.0  0.11450  0.28640  0.30700  1.0000 -0.0882567555
C   C267      1.0  0.38550  0.78640  0.69300  1.0000 -0.0882567555
C   C268      1.0  0.88550  0.21360  0.80700  1.0000 -0.0882567555
C   C269      1.0  0.38550  0.28640  0.80700  1.0000 -0.0882567555
C   C270      1.0  0.88550  0.71360  0.69300  1.0000 -0.0882567555
C   C271      1.0  0.61450  0.21360  0.30700  1.0000 -0.0882567555
C   C272      1.0  0.11450  0.78640  0.19300  1.0000 -0.0882567555
C   C273      1.0  0.57830  0.77310  0.20297  1.0000 0.0177174967
C   C274      1.0  0.07830  0.22690  0.29703  1.0000 0.0177174967
C   C275      1.0  0.42170  0.72690  0.70297  1.0000 0.0177174967
C   C276      1.0  0.92170  0.27310  0.79703  1.0000 0.0177174967
C   C277      1.0  0.42170  0.22690  0.79703  1.0000 0.0177174967
C   C278      1.0  0.92170  0.77310  0.70297  1.0000 0.0177174967
C   C279      1.0  0.57830  0.27310  0.29703  1.0000 0.0177174967
C   C280      1.0  0.07830  0.72690  0.20297  1.0000 0.0177174967
C   C281      1.0  0.59660  0.68600  0.16516  1.0000 0.5934952333
C   C282      1.0  0.09660  0.31400  0.33484  1.0000 0.5934952333
C   C283      1.0  0.40340  0.81400  0.66516  1.0000 0.5934952333
C   C284      1.0  0.90340  0.18600  0.83484  1.0000 0.5934952333
C   C285      1.0  0.40340  0.31400  0.83484  1.0000 0.5934952333
C   C286      1.0  0.90340  0.68600  0.66516  1.0000 0.5934952333
C   C287      1.0  0.59660  0.18600  0.33484  1.0000 0.5934952333
C   C288      1.0  0.09660  0.81400  0.16516  1.0000 0.5934952333
C   C289      1.0  0.45090  0.69300  0.32932  1.0000 0.5934952333
C   C290      1.0  0.95090  0.30700  0.17068  1.0000 0.5934952333
C   C291      1.0  0.54910  0.80700  0.82932  1.0000 0.5934952333
C   C292      1.0  0.04910  0.19300  0.67068  1.0000 0.5934952333
C   C293      1.0  0.54910  0.30700  0.67068  1.0000 0.5934952333
C   C294      1.0  0.04910  0.69300  0.82932  1.0000 0.5934952333
C   C295      1.0  0.45090  0.19300  0.17068  1.0000 0.5934952333
C   C296      1.0  0.95090  0.80700  0.32932  1.0000 0.5934952333
C   C297      1.0  0.48360  0.77620  0.29067  1.0000 0.027947348
C   C298      1.0  0.98360  0.22380  0.20933  1.0000 0.027947348
C   C299      1.0  0.51640  0.72380  0.79067  1.0000 0.027947348
C   C300      1.0  0.01640  0.27620  0.70933  1.0000 0.027947348
C   C301      1.0  0.51640  0.22380  0.70933  1.0000 0.027947348
C   C302      1.0  0.01640  0.77620  0.79067  1.0000 0.027947348
C   C303      1.0  0.48360  0.27620  0.20933  1.0000 0.027947348
C   C304      1.0  0.98360  0.72380  0.29067  1.0000 0.027947348
C   C305      1.0  0.44210  0.71930  0.30061  1.0000 -0.0682353002
C   C306      1.0  0.94210  0.28070  0.19939  1.0000 -0.0682353002
C   C307      1.0  0.55790  0.78070  0.80061  1.0000 -0.0682353002
C   C308      1.0  0.05790  0.21930  0.69939  1.0000 -0.0682353002
C   C309      1.0  0.55790  0.28070  0.69939  1.0000 -0.0682353002
C   C310      1.0  0.05790  0.71930  0.80061  1.0000 -0.0682353002
C   C311      1.0  0.44210  0.21930  0.19939  1.0000 -0.0682353002
C   C312      1.0  0.94210  0.78070  0.30061  1.0000 -0.0682353002
C   C313      1.0  0.39260  0.68890  0.28364  1.0000 -0.0682353002
C   C314      1.0  0.89260  0.31110  0.21636  1.0000 -0.0682353002
C   C315      1.0  0.60740  0.81110  0.78364  1.0000 -0.0682353002
C   C316      1.0  0.10740  0.18890  0.71636  1.0000 -0.0682353002
C   C317      1.0  0.60740  0.31110  0.71636  1.0000 -0.0682353002
C   C318      1.0  0.10740  0.68890  0.78364  1.0000 -0.0682353002
C   C319      1.0  0.39260  0.18890  0.21636  1.0000 -0.0682353002
C   C320      1.0  0.89260  0.81110  0.28364  1.0000 -0.0682353002
C   C321      1.0  0.38290  0.71740  0.25751  1.0000 -0.1974356743
C   C322      1.0  0.88290  0.28260  0.24249  1.0000 -0.1974356743
C   C323      1.0  0.61710  0.78260  0.75751  1.0000 -0.1974356743
C   C324      1.0  0.11710  0.21740  0.74249  1.0000 -0.1974356743
C   C325      1.0  0.61710  0.28260  0.74249  1.0000 -0.1974356743
C   C326      1.0  0.11710  0.71740  0.75751  1.0000 -0.1974356743
C   C327      1.0  0.38290  0.21740  0.24249  1.0000 -0.1974356743
C   C328      1.0  0.88290  0.78260  0.25751  1.0000 -0.1974356743
C   C329      1.0  0.42390  0.77450  0.24965  1.0000 0.1413256828
C   C330      1.0  0.92390  0.22550  0.25035  1.0000 0.1413256828
C   C331      1.0  0.57610  0.72550  0.74965  1.0000 0.1413256828
C   C332      1.0  0.07610  0.27450  0.75035  1.0000 0.1413256828
C   C333      1.0  0.57610  0.22550  0.75035  1.0000 0.1413256828
C   C334      1.0  0.07610  0.77450  0.74965  1.0000 0.1413256828
C   C335      1.0  0.42390  0.27450  0.25035  1.0000 0.1413256828
C   C336      1.0  0.92390  0.72550  0.24965  1.0000 0.1413256828
C   C337      1.0  0.41040  0.81400  0.22370  1.0000 0.1413256828
C   C338      1.0  0.91040  0.18600  0.27630  1.0000 0.1413256828
C   C339      1.0  0.58960  0.68600  0.72370  1.0000 0.1413256828
C   C340      1.0  0.08960  0.31400  0.77630  1.0000 0.1413256828
C   C341      1.0  0.58960  0.18600  0.77630  1.0000 0.1413256828
C   C342      1.0  0.08960  0.81400  0.72370  1.0000 0.1413256828
C   C343      1.0  0.41040  0.31400  0.27630  1.0000 0.1413256828
C   C344      1.0  0.91040  0.68600  0.22370  1.0000 0.1413256828
C   C345      1.0  0.35910  0.79240  0.20498  1.0000 -0.1974356743
C   C346      1.0  0.85910  0.20760  0.29502  1.0000 -0.1974356743
C   C347      1.0  0.64090  0.70760  0.70498  1.0000 -0.1974356743
C   C348      1.0  0.14090  0.29240  0.79502  1.0000 -0.1974356743
C   C349      1.0  0.64090  0.20760  0.79502  1.0000 -0.1974356743
C   C350      1.0  0.14090  0.79240  0.70498  1.0000 -0.1974356743
C   C351      1.0  0.35910  0.29240  0.29502  1.0000 -0.1974356743
C   C352      1.0  0.85910  0.70760  0.20498  1.0000 -0.1974356743
C   C353      1.0  0.34360  0.83670  0.18313  1.0000 -0.0614377371
C   C354      1.0  0.84360  0.16330  0.31687  1.0000 -0.0614377371
C   C355      1.0  0.65640  0.66330  0.68313  1.0000 -0.0614377371
C   C356      1.0  0.15640  0.33670  0.81687  1.0000 -0.0614377371
C   C357      1.0  0.65640  0.16330  0.81687  1.0000 -0.0614377371
C   C358      1.0  0.15640  0.83670  0.68313  1.0000 -0.0614377371
C   C359      1.0  0.34360  0.33670  0.31687  1.0000 -0.0614377371
C   C360      1.0  0.84360  0.66330  0.18313  1.0000 -0.0614377371
C   C361      1.0  0.38060  0.89960  0.18015  1.0000 -0.0682353002
C   C362      1.0  0.88060  0.10040  0.31985  1.0000 -0.0682353002
C   C363      1.0  0.61940  0.60040  0.68015  1.0000 -0.0682353002
C   C364      1.0  0.11940  0.39960  0.81985  1.0000 -0.0682353002
C   C365      1.0  0.61940  0.10040  0.81985  1.0000 -0.0682353002
C   C366      1.0  0.11940  0.89960  0.68015  1.0000 -0.0682353002
C   C367      1.0  0.38060  0.39960  0.31985  1.0000 -0.0682353002
C   C368      1.0  0.88060  0.60040  0.18015  1.0000 -0.0682353002
C   C369      1.0  0.43570  0.91570  0.19873  1.0000 0.0688544683
C   C370      1.0  0.93570  0.08430  0.30127  1.0000 0.0688544683
C   C371      1.0  0.56430  0.58430  0.69873  1.0000 0.0688544683
C   C372      1.0  0.06430  0.41570  0.80127  1.0000 0.0688544683
C   C373      1.0  0.56430  0.08430  0.80127  1.0000 0.0688544683
C   C374      1.0  0.06430  0.91570  0.69873  1.0000 0.0688544683
C   C375      1.0  0.43570  0.41570  0.30127  1.0000 0.0688544683
C   C376      1.0  0.93570  0.58430  0.19873  1.0000 0.0688544683
C   C377      1.0  0.35930  0.95190  0.15767  1.0000 0.6399610288
C   C378      1.0  0.85930  0.04810  0.34233  1.0000 0.6399610288
C   C379      1.0  0.64070  0.54810  0.65767  1.0000 0.6399610288
C   C380      1.0  0.14070  0.45190  0.84233  1.0000 0.6399610288
C   C381      1.0  0.64070  0.04810  0.84233  1.0000 0.6399610288
C   C382      1.0  0.14070  0.95190  0.65767  1.0000 0.6399610288
C   C383      1.0  0.35930  0.45190  0.34233  1.0000 0.6399610288
C   C384      1.0  0.85930  0.54810  0.15767  1.0000 0.6399610288
C   C385      1.0  0.38810  0.01150  0.32992  1.0000 0.5626231702
C   C386      1.0  0.88810  0.98850  0.17008  1.0000 0.5626231702
C   C387      1.0  0.61190  0.48850  0.82992  1.0000 0.5626231702
C   C388      1.0  0.11190  0.51150  0.67008  1.0000 0.5626231702
C   C389      1.0  0.61190  0.98850  0.67008  1.0000 0.5626231702
C   C390      1.0  0.11190  0.01150  0.82992  1.0000 0.5626231702
C   C391      1.0  0.38810  0.51150  0.17008  1.0000 0.5626231702
C   C392      1.0  0.88810  0.48850  0.32992  1.0000 0.5626231702
C   C393      1.0  0.45340  0.96320  0.28936  1.0000 0.046418059
C   C394      1.0  0.95340  0.03680  0.21064  1.0000 0.046418059
C   C395      1.0  0.54660  0.53680  0.78936  1.0000 0.046418059
C   C396      1.0  0.04660  0.46320  0.71064  1.0000 0.046418059
C   C397      1.0  0.54660  0.03680  0.71064  1.0000 0.046418059
C   C398      1.0  0.04660  0.96320  0.78936  1.0000 0.046418059
C   C399      1.0  0.45340  0.46320  0.21064  1.0000 0.046418059
C   C400      1.0  0.95340  0.53680  0.28936  1.0000 0.046418059
C   C401      1.0  0.43330  0.02160  0.30464  1.0000 -0.0422699512
C   C402      1.0  0.93330  0.97840  0.19536  1.0000 -0.0422699512
C   C403      1.0  0.56670  0.47840  0.80464  1.0000 -0.0422699512
C   C404      1.0  0.06670  0.52160  0.69536  1.0000 -0.0422699512
C   C405      1.0  0.56670  0.97840  0.69536  1.0000 -0.0422699512
C   C406      1.0  0.06670  0.02160  0.80464  1.0000 -0.0422699512
C   C407      1.0  0.43330  0.52160  0.19536  1.0000 -0.0422699512
C   C408      1.0  0.93330  0.47840  0.30464  1.0000 -0.0422699512
C   C409      1.0  0.45770  0.08840  0.29625  1.0000 -0.079843685
C   C410      1.0  0.95770  0.91160  0.20375  1.0000 -0.079843685
C   C411      1.0  0.54230  0.41160  0.79625  1.0000 -0.079843685
C   C412      1.0  0.04230  0.58840  0.70375  1.0000 -0.079843685
C   C413      1.0  0.54230  0.91160  0.70375  1.0000 -0.079843685
C   C414      1.0  0.04230  0.08840  0.79625  1.0000 -0.079843685
C   C415      1.0  0.45770  0.58840  0.20375  1.0000 -0.079843685
C   C416      1.0  0.95770  0.41160  0.29625  1.0000 -0.079843685
C   C417      1.0  0.49770  0.09440  0.27304  1.0000 -0.1881981772
C   C418      1.0  0.99770  0.90560  0.22696  1.0000 -0.1881981772
C   C419      1.0  0.50230  0.40560  0.77304  1.0000 -0.1881981772
C   C420      1.0  0.00230  0.59440  0.72696  1.0000 -0.1881981772
C   C421      1.0  0.50230  0.90560  0.72696  1.0000 -0.1881981772
C   C422      1.0  0.00230  0.09440  0.77304  1.0000 -0.1881981772
C   C423      1.0  0.49770  0.59440  0.22696  1.0000 -0.1881981772
C   C424      1.0  0.99770  0.40560  0.27304  1.0000 -0.1881981772
C   C425      1.0  0.51560  0.03280  0.25894  1.0000 0.1481818122
C   C426      1.0  0.01560  0.96720  0.24106  1.0000 0.1481818122
C   C427      1.0  0.48440  0.46720  0.75894  1.0000 0.1481818122
C   C428      1.0  0.98440  0.53280  0.74106  1.0000 0.1481818122
C   C429      1.0  0.48440  0.96720  0.74106  1.0000 0.1481818122
C   C430      1.0  0.98440  0.03280  0.75894  1.0000 0.1481818122
C   C431      1.0  0.51560  0.53280  0.24106  1.0000 0.1481818122
C   C432      1.0  0.01560  0.46720  0.25894  1.0000 0.1481818122
C   C433      1.0  0.55950  0.03260  0.23356  1.0000 0.1413256828
C   C434      1.0  0.05950  0.96740  0.26644  1.0000 0.1413256828
C   C435      1.0  0.44050  0.46740  0.73356  1.0000 0.1413256828
C   C436      1.0  0.94050  0.53260  0.76644  1.0000 0.1413256828
C   C437      1.0  0.44050  0.96740  0.76644  1.0000 0.1413256828
C   C438      1.0  0.94050  0.03260  0.73356  1.0000 0.1413256828
C   C439      1.0  0.55950  0.53260  0.26644  1.0000 0.1413256828
C   C440      1.0  0.05950  0.46740  0.23356  1.0000 0.1413256828
C   C441      1.0  0.57790  0.09450  0.21912  1.0000 -0.1881981772
C   C442      1.0  0.07790  0.90550  0.28088  1.0000 -0.1881981772
C   C443      1.0  0.42210  0.40550  0.71912  1.0000 -0.1881981772
C   C444      1.0  0.92210  0.59450  0.78088  1.0000 -0.1881981772
C   C445      1.0  0.42210  0.90550  0.78088  1.0000 -0.1881981772
C   C446      1.0  0.92210  0.09450  0.71912  1.0000 -0.1881981772
C   C447      1.0  0.57790  0.59450  0.28088  1.0000 -0.1881981772
C   C448      1.0  0.07790  0.40550  0.21912  1.0000 -0.1881981772
C   C449      1.0  0.61880  0.08790  0.19644  1.0000 -0.0487543245
C   C450      1.0  0.11880  0.91210  0.30356  1.0000 -0.0487543245
C   C451      1.0  0.38120  0.41210  0.69644  1.0000 -0.0487543245
C   C452      1.0  0.88120  0.58790  0.80356  1.0000 -0.0487543245
C   C453      1.0  0.38120  0.91210  0.80356  1.0000 -0.0487543245
C   C454      1.0  0.88120  0.08790  0.69644  1.0000 -0.0487543245
C   C455      1.0  0.61880  0.58790  0.30356  1.0000 -0.0487543245
C   C456      1.0  0.11880  0.41210  0.19644  1.0000 -0.0487543245
C   C457      1.0  0.64360  0.02230  0.18809  1.0000 -0.0422699512
C   C458      1.0  0.14360  0.97770  0.31191  1.0000 -0.0422699512
C   C459      1.0  0.35640  0.47770  0.68809  1.0000 -0.0422699512
C   C460      1.0  0.85640  0.52230  0.81191  1.0000 -0.0422699512
C   C461      1.0  0.35640  0.97770  0.81191  1.0000 -0.0422699512
C   C462      1.0  0.85640  0.02230  0.68809  1.0000 -0.0422699512
C   C463      1.0  0.64360  0.52230  0.31191  1.0000 -0.0422699512
C   C464      1.0  0.14360  0.47770  0.18809  1.0000 -0.0422699512
C   C465      1.0  0.62290  0.96310  0.20298  1.0000 0.046418059
C   C466      1.0  0.12290  0.03690  0.29702  1.0000 0.046418059
C   C467      1.0  0.37710  0.53690  0.70298  1.0000 0.046418059
C   C468      1.0  0.87710  0.46310  0.79702  1.0000 0.046418059
C   C469      1.0  0.37710  0.03690  0.79702  1.0000 0.046418059
C   C470      1.0  0.87710  0.96310  0.70298  1.0000 0.046418059
C   C471      1.0  0.62290  0.46310  0.29702  1.0000 0.046418059
C   C472      1.0  0.12290  0.53690  0.20298  1.0000 0.046418059
C   C473      1.0  0.69210  0.01410  0.16350  1.0000 0.5626231702
C   C474      1.0  0.19210  0.98590  0.33650  1.0000 0.5626231702
C   C475      1.0  0.30790  0.48590  0.66350  1.0000 0.5626231702
C   C476      1.0  0.80790  0.51410  0.83650  1.0000 0.5626231702
C   C477      1.0  0.30790  0.98590  0.83650  1.0000 0.5626231702
C   C478      1.0  0.80790  0.01410  0.66350  1.0000 0.5626231702
C   C479      1.0  0.69210  0.51410  0.33650  1.0000 0.5626231702
C   C480      1.0  0.19210  0.48590  0.16350  1.0000 0.5626231702
C   C481      1.0  0.77700  0.90360  0.08865  1.0000 0.5626231702
C   C482      1.0  0.27700  0.09640  0.41135  1.0000 0.5626231702
C   C483      1.0  0.22300  0.59640  0.58865  1.0000 0.5626231702
C   C484      1.0  0.72300  0.40360  0.91135  1.0000 0.5626231702
C   C485      1.0  0.22300  0.09640  0.91135  1.0000 0.5626231702
C   C486      1.0  0.72300  0.90360  0.58865  1.0000 0.5626231702
C   C487      1.0  0.77700  0.40360  0.41135  1.0000 0.5626231702
C   C488      1.0  0.27700  0.59640  0.08865  1.0000 0.5626231702
C   C489      1.0  0.82220  0.83020  0.04888  1.0000 0.0596980673
C   C490      1.0  0.32220  0.16980  0.45112  1.0000 0.0596980673
C   C491      1.0  0.17780  0.66980  0.54888  1.0000 0.0596980673
C   C492      1.0  0.67780  0.33020  0.95112  1.0000 0.0596980673
C   C493      1.0  0.17780  0.16980  0.95112  1.0000 0.0596980673
C   C494      1.0  0.67780  0.83020  0.54888  1.0000 0.0596980673
C   C495      1.0  0.82220  0.33020  0.45112  1.0000 0.0596980673
C   C496      1.0  0.32220  0.66980  0.04888  1.0000 0.0596980673
C   C497      1.0  0.76400  0.85830  0.06404  1.0000 -0.0422699512
C   C498      1.0  0.26400  0.14170  0.43596  1.0000 -0.0422699512
C   C499      1.0  0.23600  0.64170  0.56404  1.0000 -0.0422699512
C   C500      1.0  0.73600  0.35830  0.93596  1.0000 -0.0422699512
C   C501      1.0  0.23600  0.14170  0.93596  1.0000 -0.0422699512
C   C502      1.0  0.73600  0.85830  0.56404  1.0000 -0.0422699512
C   C503      1.0  0.76400  0.35830  0.43596  1.0000 -0.0422699512
C   C504      1.0  0.26400  0.64170  0.06404  1.0000 -0.0422699512
C   C505      1.0  0.69520  0.84490  0.05510  1.0000 -0.0422699512
C   C506      1.0  0.19520  0.15510  0.44490  1.0000 -0.0422699512
C   C507      1.0  0.30480  0.65510  0.55510  1.0000 -0.0422699512
C   C508      1.0  0.80480  0.34490  0.94490  1.0000 -0.0422699512
C   C509      1.0  0.30480  0.15510  0.94490  1.0000 -0.0422699512
C   C510      1.0  0.80480  0.84490  0.55510  1.0000 -0.0422699512
C   C511      1.0  0.69520  0.34490  0.44490  1.0000 -0.0422699512
C   C512      1.0  0.19520  0.65510  0.05510  1.0000 -0.0422699512
C   C513      1.0  0.68590  0.80250  0.03213  1.0000 -0.1789494257
C   C514      1.0  0.18590  0.19750  0.46787  1.0000 -0.1789494257
C   C515      1.0  0.31410  0.69750  0.53213  1.0000 -0.1789494257
C   C516      1.0  0.81410  0.30250  0.96787  1.0000 -0.1789494257
C   C517      1.0  0.31410  0.19750  0.96787  1.0000 -0.1789494257
C   C518      1.0  0.81410  0.80250  0.53213  1.0000 -0.1789494257
C   C519      1.0  0.68590  0.30250  0.46787  1.0000 -0.1789494257
C   C520      1.0  0.18590  0.69750  0.03213  1.0000 -0.1789494257
C   C521      1.0  0.74410  0.77610  0.01839  1.0000 0.129763189
C   C522      1.0  0.24410  0.22390  0.48161  1.0000 0.129763189
C   C523      1.0  0.25590  0.72390  0.51839  1.0000 0.129763189
C   C524      1.0  0.75590  0.27610  0.98161  1.0000 0.129763189
C   C525      1.0  0.25590  0.22390  0.98161  1.0000 0.129763189
C   C526      1.0  0.75590  0.77610  0.51839  1.0000 0.129763189
C   C527      1.0  0.74410  0.27610  0.48161  1.0000 0.129763189
C   C528      1.0  0.24410  0.72390  0.01839  1.0000 0.129763189
C   C529      1.0  0.74070  0.72790  0.99480  1.0000 0.1481818122
C   C530      1.0  0.24070  0.27210  0.50520  1.0000 0.1481818122
C   C531      1.0  0.25930  0.77210  0.49480  1.0000 0.1481818122
C   C532      1.0  0.75930  0.22790  0.00520  1.0000 0.1481818122
C   C533      1.0  0.25930  0.27210  0.00520  1.0000 0.1481818122
C   C534      1.0  0.75930  0.72790  0.49480  1.0000 0.1481818122
C   C535      1.0  0.74070  0.22790  0.50520  1.0000 0.1481818122
C   C536      1.0  0.24070  0.77210  0.99480  1.0000 0.1481818122
C   C537      1.0  0.67660  0.70610  0.98330  1.0000 -0.1789494257
C   C538      1.0  0.17660  0.29390  0.51670  1.0000 -0.1789494257
C   C539      1.0  0.32340  0.79390  0.48330  1.0000 -0.1789494257
C   C540      1.0  0.82340  0.20610  0.01670  1.0000 -0.1789494257
C   C541      1.0  0.32340  0.29390  0.01670  1.0000 -0.1789494257
C   C542      1.0  0.82340  0.70610  0.48330  1.0000 -0.1789494257
C   C543      1.0  0.67660  0.20610  0.51670  1.0000 -0.1789494257
C   C544      1.0  0.17660  0.79390  0.98330  1.0000 -0.1789494257
C   C545      1.0  0.67910  0.65980  0.96120  1.0000 -0.0614377371
C   C546      1.0  0.17910  0.34020  0.53880  1.0000 -0.0614377371
C   C547      1.0  0.32090  0.84020  0.46120  1.0000 -0.0614377371
C   C548      1.0  0.82090  0.15980  0.03880  1.0000 -0.0614377371
C   C549      1.0  0.32090  0.34020  0.03880  1.0000 -0.0614377371
C   C550      1.0  0.82090  0.65980  0.46120  1.0000 -0.0614377371
C   C551      1.0  0.67910  0.15980  0.53880  1.0000 -0.0614377371
C   C552      1.0  0.17910  0.84020  0.96120  1.0000 -0.0614377371
C   C553      1.0  0.74220  0.63780  0.95190  1.0000 -0.0213466167
C   C554      1.0  0.24220  0.36220  0.54810  1.0000 -0.0213466167
C   C555      1.0  0.25780  0.86220  0.45190  1.0000 -0.0213466167
C   C556      1.0  0.75780  0.13780  0.04810  1.0000 -0.0213466167
C   C557      1.0  0.25780  0.36220  0.04810  1.0000 -0.0213466167
C   C558      1.0  0.75780  0.63780  0.45190  1.0000 -0.0213466167
C   C559      1.0  0.74220  0.13780  0.54810  1.0000 -0.0213466167
C   C560      1.0  0.24220  0.86220  0.95190  1.0000 -0.0213466167
C   C561      1.0  0.80690  0.66220  0.96330  1.0000 0.0177174967
C   C562      1.0  0.30690  0.33780  0.53670  1.0000 0.0177174967
C   C563      1.0  0.19310  0.83780  0.46330  1.0000 0.0177174967
C   C564      1.0  0.69310  0.16220  0.03670  1.0000 0.0177174967
C   C565      1.0  0.19310  0.33780  0.03670  1.0000 0.0177174967
C   C566      1.0  0.69310  0.66220  0.46330  1.0000 0.0177174967
C   C567      1.0  0.80690  0.16220  0.53670  1.0000 0.0177174967
C   C568      1.0  0.30690  0.83780  0.96330  1.0000 0.0177174967
C   C569      1.0  0.74070  0.58830  0.92650  1.0000 0.5484205581
C   C570      1.0  0.24070  0.41170  0.57350  1.0000 0.5484205581
C   C571      1.0  0.25930  0.91170  0.42650  1.0000 0.5484205581
C   C572      1.0  0.75930  0.08830  0.07350  1.0000 0.5484205581
C   C573      1.0  0.25930  0.41170  0.07350  1.0000 0.5484205581
C   C574      1.0  0.75930  0.58830  0.42650  1.0000 0.5484205581
C   C575      1.0  0.74070  0.08830  0.57350  1.0000 0.5484205581
C   C576      1.0  0.24070  0.91170  0.92650  1.0000 0.5484205581
N   N1        1.0  0.96390  0.21050  0.52266  1.0000 -0.2213011579
N   N2        1.0  0.46390  0.78950  0.97734  1.0000 -0.2213011579
N   N3        1.0  0.03610  0.28950  0.02266  1.0000 -0.2213011579
N   N4        1.0  0.53610  0.71050  0.47734  1.0000 -0.2213011579
N   N5        1.0  0.03610  0.78950  0.47734  1.0000 -0.2213011579
N   N6        1.0  0.53610  0.21050  0.02266  1.0000 -0.2213011579
N   N7        1.0  0.96390  0.71050  0.97734  1.0000 -0.2213011579
N   N8        1.0  0.46390  0.28950  0.52266  1.0000 -0.2213011579
N   N9        1.0  0.90820  0.16590  0.47713  1.0000 -0.210682199
N   N10       1.0  0.40820  0.83410  0.02287  1.0000 -0.210682199
N   N11       1.0  0.09180  0.33410  0.97713  1.0000 -0.210682199
N   N12       1.0  0.59180  0.66590  0.52287  1.0000 -0.210682199
N   N13       1.0  0.09180  0.83410  0.52287  1.0000 -0.210682199
N   N14       1.0  0.59180  0.16590  0.97713  1.0000 -0.210682199
N   N15       1.0  0.90820  0.66590  0.02287  1.0000 -0.210682199
N   N16       1.0  0.40820  0.33410  0.47713  1.0000 -0.210682199
N   N17       1.0  0.53300  0.80800  0.51867  1.0000 -0.210682199
N   N18       1.0  0.03300  0.19200  0.98133  1.0000 -0.210682199
N   N19       1.0  0.46700  0.69200  0.01867  1.0000 -0.210682199
N   N20       1.0  0.96700  0.30800  0.48133  1.0000 -0.210682199
N   N21       1.0  0.46700  0.19200  0.48133  1.0000 -0.210682199
N   N22       1.0  0.96700  0.80800  0.01867  1.0000 -0.210682199
N   N23       1.0  0.53300  0.30800  0.98133  1.0000 -0.210682199
N   N24       1.0  0.03300  0.69200  0.51867  1.0000 -0.210682199
N   N25       1.0  0.61860  0.83720  0.47760  1.0000 -0.1974356743
N   N26       1.0  0.11860  0.16280  0.02240  1.0000 -0.1974356743
N   N27       1.0  0.38140  0.66280  0.97760  1.0000 -0.1974356743
N   N28       1.0  0.88140  0.33720  0.52240  1.0000 -0.1974356743
N   N29       1.0  0.38140  0.16280  0.52240  1.0000 -0.1974356743
N   N30       1.0  0.88140  0.83720  0.97760  1.0000 -0.1974356743
N   N31       1.0  0.61860  0.33720  0.02240  1.0000 -0.1974356743
N   N32       1.0  0.11860  0.66280  0.47760  1.0000 -0.1974356743
N   N33       1.0  0.61850  0.86780  0.27370  1.0000 -0.2213011579
N   N34       1.0  0.11850  0.13220  0.22630  1.0000 -0.2213011579
N   N35       1.0  0.38150  0.63220  0.77370  1.0000 -0.2213011579
N   N36       1.0  0.88150  0.36780  0.72630  1.0000 -0.2213011579
N   N37       1.0  0.38150  0.13220  0.72630  1.0000 -0.2213011579
N   N38       1.0  0.88150  0.86780  0.77370  1.0000 -0.2213011579
N   N39       1.0  0.61850  0.36780  0.22630  1.0000 -0.2213011579
N   N40       1.0  0.11850  0.63220  0.27370  1.0000 -0.2213011579
N   N41       1.0  0.59140  0.80150  0.22753  1.0000 -0.2213011579
N   N42       1.0  0.09140  0.19850  0.27247  1.0000 -0.2213011579
N   N43       1.0  0.40860  0.69850  0.72753  1.0000 -0.2213011579
N   N44       1.0  0.90860  0.30150  0.77247  1.0000 -0.2213011579
N   N45       1.0  0.40860  0.19850  0.77247  1.0000 -0.2213011579
N   N46       1.0  0.90860  0.80150  0.72753  1.0000 -0.2213011579
N   N47       1.0  0.59140  0.30150  0.27247  1.0000 -0.2213011579
N   N48       1.0  0.09140  0.69850  0.22753  1.0000 -0.2213011579
N   N49       1.0  0.47510  0.80370  0.26561  1.0000 -0.2213011579
N   N50       1.0  0.97510  0.19630  0.23439  1.0000 -0.2213011579
N   N51       1.0  0.52490  0.69630  0.76561  1.0000 -0.2213011579
N   N52       1.0  0.02490  0.30370  0.73439  1.0000 -0.2213011579
N   N53       1.0  0.52490  0.19630  0.73439  1.0000 -0.2213011579
N   N54       1.0  0.02490  0.80370  0.76561  1.0000 -0.2213011579
N   N55       1.0  0.47510  0.30370  0.23439  1.0000 -0.2213011579
N   N56       1.0  0.97510  0.69630  0.26561  1.0000 -0.2213011579
N   N57       1.0  0.45040  0.87420  0.21972  1.0000 -0.2213011579
N   N58       1.0  0.95040  0.12580  0.28028  1.0000 -0.2213011579
N   N59       1.0  0.54960  0.62580  0.71972  1.0000 -0.2213011579
N   N60       1.0  0.04960  0.37420  0.78028  1.0000 -0.2213011579
N   N61       1.0  0.54960  0.12580  0.78028  1.0000 -0.2213011579
N   N62       1.0  0.04960  0.87420  0.71972  1.0000 -0.2213011579
N   N63       1.0  0.45040  0.37420  0.28028  1.0000 -0.2213011579
N   N64       1.0  0.95040  0.62580  0.21972  1.0000 -0.2213011579
N   N65       1.0  0.49430  0.96730  0.26715  1.0000 -0.210682199
N   N66       1.0  0.99430  0.03270  0.23285  1.0000 -0.210682199
N   N67       1.0  0.50570  0.53270  0.76715  1.0000 -0.210682199
N   N68       1.0  0.00570  0.46730  0.73285  1.0000 -0.210682199
N   N69       1.0  0.50570  0.03270  0.73285  1.0000 -0.210682199
N   N70       1.0  0.00570  0.96730  0.76715  1.0000 -0.210682199
N   N71       1.0  0.49430  0.46730  0.23285  1.0000 -0.210682199
N   N72       1.0  0.99430  0.53270  0.26715  1.0000 -0.210682199
N   N73       1.0  0.58070  0.96600  0.22507  1.0000 -0.2283879795
N   N74       1.0  0.08070  0.03400  0.27493  1.0000 -0.2283879795
N   N75       1.0  0.41930  0.53400  0.72507  1.0000 -0.2283879795
N   N76       1.0  0.91930  0.46600  0.77493  1.0000 -0.2283879795
N   N77       1.0  0.41930  0.03400  0.77493  1.0000 -0.2283879795
N   N78       1.0  0.91930  0.96600  0.72507  1.0000 -0.2283879795
N   N79       1.0  0.58070  0.46600  0.27493  1.0000 -0.2283879795
N   N80       1.0  0.08070  0.53400  0.22507  1.0000 -0.2283879795
N   N81       1.0  0.81280  0.79080  0.02667  1.0000 -0.2213011579
N   N82       1.0  0.31280  0.20920  0.47333  1.0000 -0.2213011579
N   N83       1.0  0.18720  0.70920  0.52667  1.0000 -0.2213011579
N   N84       1.0  0.68720  0.29080  0.97333  1.0000 -0.2213011579
N   N85       1.0  0.18720  0.20920  0.97333  1.0000 -0.2213011579
N   N86       1.0  0.68720  0.79080  0.52667  1.0000 -0.2213011579
N   N87       1.0  0.81280  0.29080  0.47333  1.0000 -0.2213011579
N   N88       1.0  0.31280  0.70920  0.02667  1.0000 -0.2213011579
N   N89       1.0  0.80500  0.70830  0.98515  1.0000 -0.210682199
N   N90       1.0  0.30500  0.29170  0.51485  1.0000 -0.210682199
N   N91       1.0  0.19500  0.79170  0.48515  1.0000 -0.210682199
N   N92       1.0  0.69500  0.20830  0.01485  1.0000 -0.210682199
N   N93       1.0  0.19500  0.29170  0.01485  1.0000 -0.210682199
N   N94       1.0  0.69500  0.70830  0.48515  1.0000 -0.210682199
N   N95       1.0  0.80500  0.20830  0.51485  1.0000 -0.210682199
N   N96       1.0  0.30500  0.79170  0.98515  1.0000 -0.210682199
O   O1        1.0  0.79350  0.09060  0.41172  1.0000 -0.6342826389
O   O2        1.0  0.29350  0.90940  0.08828  1.0000 -0.6342826389
O   O3        1.0  0.20650  0.40940  0.91172  1.0000 -0.6342826389
O   O4        1.0  0.70650  0.59060  0.58828  1.0000 -0.6342826389
O   O5        1.0  0.20650  0.90940  0.58828  1.0000 -0.6342826389
O   O6        1.0  0.70650  0.09060  0.91172  1.0000 -0.6342826389
O   O7        1.0  0.79350  0.59060  0.08828  1.0000 -0.6342826389
O   O8        1.0  0.29350  0.40940  0.41172  1.0000 -0.6342826389
O   O9        1.0  0.86830  0.99690  0.40740  1.0000 -0.7112139367
O   O10       1.0  0.36830  0.00310  0.09260  1.0000 -0.7112139367
O   O11       1.0  0.13170  0.50310  0.90740  1.0000 -0.7112139367
O   O12       1.0  0.63170  0.49690  0.59260  1.0000 -0.7112139367
O   O13       1.0  0.13170  0.00310  0.59260  1.0000 -0.7112139367
O   O14       1.0  0.63170  0.99690  0.90740  1.0000 -0.7112139367
O   O15       1.0  0.86830  0.49690  0.09260  1.0000 -0.7112139367
O   O16       1.0  0.36830  0.50310  0.40740  1.0000 -0.7112139367
O   O17       1.0  0.05540  0.30400  0.59033  1.0000 -0.5324837842
O   O18       1.0  0.55540  0.69600  0.90967  1.0000 -0.5324837842
O   O19       1.0  0.94460  0.19600  0.09033  1.0000 -0.5324837842
O   O20       1.0  0.44460  0.80400  0.40967  1.0000 -0.5324837842
O   O21       1.0  0.94460  0.69600  0.40967  1.0000 -0.5324837842
O   O22       1.0  0.44460  0.30400  0.09033  1.0000 -0.5324837842
O   O23       1.0  0.05540  0.80400  0.90967  1.0000 -0.5324837842
O   O24       1.0  0.55540  0.19600  0.59033  1.0000 -0.5324837842
O   O25       1.0  0.11510  0.20460  0.60074  1.0000 -0.6903017141
O   O26       1.0  0.61510  0.79540  0.89926  1.0000 -0.6903017141
O   O27       1.0  0.88490  0.29540  0.10074  1.0000 -0.6903017141
O   O28       1.0  0.38490  0.70460  0.39926  1.0000 -0.6903017141
O   O29       1.0  0.88490  0.79540  0.39926  1.0000 -0.6903017141
O   O30       1.0  0.38490  0.20460  0.10074  1.0000 -0.6903017141
O   O31       1.0  0.11510  0.70460  0.89926  1.0000 -0.6903017141
O   O32       1.0  0.61510  0.29540  0.60074  1.0000 -0.6903017141
O   O33       1.0  0.70090  0.97490  0.40351  1.0000 -0.6903017141
O   O34       1.0  0.20090  0.02510  0.09649  1.0000 -0.6903017141
O   O35       1.0  0.29910  0.52510  0.90351  1.0000 -0.6903017141
O   O36       1.0  0.79910  0.47490  0.59649  1.0000 -0.6903017141
O   O37       1.0  0.29910  0.02510  0.59649  1.0000 -0.6903017141
O   O38       1.0  0.79910  0.97490  0.90351  1.0000 -0.6903017141
O   O39       1.0  0.70090  0.47490  0.09649  1.0000 -0.6903017141
O   O40       1.0  0.20090  0.52510  0.40351  1.0000 -0.6903017141
O   O41       1.0  0.76310  0.87690  0.41312  1.0000 -0.6248158716
O   O42       1.0  0.26310  0.12310  0.08688  1.0000 -0.6248158716
O   O43       1.0  0.23690  0.62310  0.91312  1.0000 -0.6248158716
O   O44       1.0  0.73690  0.37690  0.58688  1.0000 -0.6248158716
O   O45       1.0  0.23690  0.12310  0.58688  1.0000 -0.6248158716
O   O46       1.0  0.73690  0.87690  0.91312  1.0000 -0.6248158716
O   O47       1.0  0.76310  0.37690  0.08688  1.0000 -0.6248158716
O   O48       1.0  0.26310  0.62310  0.41312  1.0000 -0.6248158716
O   O49       1.0  0.40800  0.75500  0.58616  1.0000 -0.5490502022
O   O50       1.0  0.90800  0.24500  0.91384  1.0000 -0.5490502022
O   O51       1.0  0.59200  0.74500  0.08616  1.0000 -0.5490502022
O   O52       1.0  0.09200  0.25500  0.41384  1.0000 -0.5490502022
O   O53       1.0  0.59200  0.24500  0.41384  1.0000 -0.5490502022
O   O54       1.0  0.09200  0.75500  0.08616  1.0000 -0.5490502022
O   O55       1.0  0.40800  0.25500  0.91384  1.0000 -0.5490502022
O   O56       1.0  0.90800  0.74500  0.58616  1.0000 -0.5490502022
O   O57       1.0  0.67060  0.98790  0.34299  1.0000 -0.6461956702
O   O58       1.0  0.17060  0.01210  0.15701  1.0000 -0.6461956702
O   O59       1.0  0.32940  0.51210  0.84299  1.0000 -0.6461956702
O   O60       1.0  0.82940  0.48790  0.65701  1.0000 -0.6461956702
O   O61       1.0  0.32940  0.01210  0.65701  1.0000 -0.6461956702
O   O62       1.0  0.82940  0.98790  0.84299  1.0000 -0.6461956702
O   O63       1.0  0.67060  0.48790  0.15701  1.0000 -0.6461956702
O   O64       1.0  0.17060  0.51210  0.34299  1.0000 -0.6461956702
O   O65       1.0  0.64030  0.64290  0.15495  1.0000 -0.7014696744
O   O66       1.0  0.14030  0.35710  0.34505  1.0000 -0.7014696744
O   O67       1.0  0.35970  0.85710  0.65495  1.0000 -0.7014696744
O   O68       1.0  0.85970  0.14290  0.84505  1.0000 -0.7014696744
O   O69       1.0  0.35970  0.35710  0.84505  1.0000 -0.7014696744
O   O70       1.0  0.85970  0.64290  0.65495  1.0000 -0.7014696744
O   O71       1.0  0.64030  0.14290  0.34505  1.0000 -0.7014696744
O   O72       1.0  0.14030  0.85710  0.15495  1.0000 -0.7014696744
O   O73       1.0  0.54010  0.70850  0.15458  1.0000 -0.4004892908
O   O74       1.0  0.04010  0.29150  0.34542  1.0000 -0.4004892908
O   O75       1.0  0.45990  0.79150  0.65458  1.0000 -0.4004892908
O   O76       1.0  0.95990  0.20850  0.84542  1.0000 -0.4004892908
O   O77       1.0  0.45990  0.29150  0.84542  1.0000 -0.4004892908
O   O78       1.0  0.95990  0.70850  0.65458  1.0000 -0.4004892908
O   O79       1.0  0.54010  0.20850  0.34542  1.0000 -0.4004892908
O   O80       1.0  0.04010  0.79150  0.15458  1.0000 -0.4004892908
O   O81       1.0  0.51060  0.70030  0.33999  1.0000 -0.5324837842
O   O82       1.0  0.01060  0.29970  0.16001  1.0000 -0.5324837842
O   O83       1.0  0.48940  0.79970  0.83999  1.0000 -0.5324837842
O   O84       1.0  0.98940  0.20030  0.66001  1.0000 -0.5324837842
O   O85       1.0  0.48940  0.29970  0.66001  1.0000 -0.5324837842
O   O86       1.0  0.98940  0.70030  0.83999  1.0000 -0.5324837842
O   O87       1.0  0.51060  0.20030  0.16001  1.0000 -0.5324837842
O   O88       1.0  0.01060  0.79970  0.33999  1.0000 -0.5324837842
O   O89       1.0  0.39890  0.66250  0.33994  1.0000 -0.6697497867
O   O90       1.0  0.89890  0.33750  0.16006  1.0000 -0.6697497867
O   O91       1.0  0.60110  0.83750  0.83994  1.0000 -0.6697497867
O   O92       1.0  0.10110  0.16250  0.66006  1.0000 -0.6697497867
O   O93       1.0  0.60110  0.33750  0.66006  1.0000 -0.6697497867
O   O94       1.0  0.10110  0.66250  0.83994  1.0000 -0.6697497867
O   O95       1.0  0.39890  0.16250  0.16006  1.0000 -0.6697497867
O   O96       1.0  0.89890  0.83750  0.33994  1.0000 -0.6697497867
O   O97       1.0  0.30340  0.93740  0.14510  1.0000 -0.7014696744
O   O98       1.0  0.80340  0.06260  0.35490  1.0000 -0.7014696744
O   O99       1.0  0.69660  0.56260  0.64510  1.0000 -0.7014696744
O   O100      1.0  0.19660  0.43740  0.85490  1.0000 -0.7014696744
O   O101      1.0  0.69660  0.06260  0.85490  1.0000 -0.7014696744
O   O102      1.0  0.19660  0.93740  0.64510  1.0000 -0.7014696744
O   O103      1.0  0.30340  0.43740  0.35490  1.0000 -0.7014696744
O   O104      1.0  0.80340  0.56260  0.14510  1.0000 -0.7014696744
O   O105      1.0  0.39810  0.00640  0.15424  1.0000 -0.6461956702
O   O106      1.0  0.89810  0.99360  0.34576  1.0000 -0.6461956702
O   O107      1.0  0.60190  0.49360  0.65424  1.0000 -0.6461956702
O   O108      1.0  0.10190  0.50640  0.84576  1.0000 -0.6461956702
O   O109      1.0  0.60190  0.99360  0.84576  1.0000 -0.6461956702
O   O110      1.0  0.10190  0.00640  0.65424  1.0000 -0.6461956702
O   O111      1.0  0.39810  0.50640  0.34576  1.0000 -0.6461956702
O   O112      1.0  0.89810  0.49360  0.15424  1.0000 -0.6461956702
O   O113      1.0  0.35800  0.95130  0.33263  1.0000 -0.6409115695
O   O114      1.0  0.85800  0.04870  0.16737  1.0000 -0.6409115695
O   O115      1.0  0.64200  0.54870  0.83263  1.0000 -0.6409115695
O   O116      1.0  0.14200  0.45130  0.66737  1.0000 -0.6409115695
O   O117      1.0  0.64200  0.04870  0.66737  1.0000 -0.6409115695
O   O118      1.0  0.14200  0.95130  0.83263  1.0000 -0.6409115695
O   O119      1.0  0.35800  0.45130  0.16737  1.0000 -0.6409115695
O   O120      1.0  0.85800  0.54870  0.33263  1.0000 -0.6409115695
O   O121      1.0  0.38350  0.05960  0.34719  1.0000 -0.5998346212
O   O122      1.0  0.88350  0.94040  0.15281  1.0000 -0.5998346212
O   O123      1.0  0.61650  0.44040  0.84719  1.0000 -0.5998346212
O   O124      1.0  0.11650  0.55960  0.65281  1.0000 -0.5998346212
O   O125      1.0  0.61650  0.94040  0.65281  1.0000 -0.5998346212
O   O126      1.0  0.11650  0.05960  0.84719  1.0000 -0.5998346212
O   O127      1.0  0.38350  0.55960  0.15281  1.0000 -0.5998346212
O   O128      1.0  0.88350  0.44040  0.34719  1.0000 -0.5998346212
O   O129      1.0  0.72640  0.95740  0.16057  1.0000 -0.5873649731
O   O130      1.0  0.22640  0.04260  0.33943  1.0000 -0.5873649731
O   O131      1.0  0.27360  0.54260  0.66057  1.0000 -0.5873649731
O   O132      1.0  0.77360  0.45740  0.83943  1.0000 -0.5873649731
O   O133      1.0  0.27360  0.04260  0.83943  1.0000 -0.5873649731
O   O134      1.0  0.77360  0.95740  0.66057  1.0000 -0.5873649731
O   O135      1.0  0.72640  0.45740  0.33943  1.0000 -0.5873649731
O   O136      1.0  0.22640  0.54260  0.16057  1.0000 -0.5873649731
O   O137      1.0  0.69820  0.06520  0.14791  1.0000 -0.5873649731
O   O138      1.0  0.19820  0.93480  0.35209  1.0000 -0.5873649731
O   O139      1.0  0.30180  0.43480  0.64791  1.0000 -0.5873649731
O   O140      1.0  0.80180  0.56520  0.85209  1.0000 -0.5873649731
O   O141      1.0  0.30180  0.93480  0.85209  1.0000 -0.5873649731
O   O142      1.0  0.80180  0.06520  0.64791  1.0000 -0.5873649731
O   O143      1.0  0.69820  0.56520  0.35209  1.0000 -0.5873649731
O   O144      1.0  0.19820  0.43480  0.14791  1.0000 -0.5873649731
O   O145      1.0  0.72420  0.92970  0.10082  1.0000 -0.584277501
O   O146      1.0  0.22420  0.07030  0.39918  1.0000 -0.584277501
O   O147      1.0  0.27580  0.57030  0.60082  1.0000 -0.584277501
O   O148      1.0  0.77580  0.42970  0.89918  1.0000 -0.584277501
O   O149      1.0  0.27580  0.07030  0.89918  1.0000 -0.584277501
O   O150      1.0  0.77580  0.92970  0.60082  1.0000 -0.584277501
O   O151      1.0  0.72420  0.42970  0.39918  1.0000 -0.584277501
O   O152      1.0  0.22420  0.57030  0.10082  1.0000 -0.584277501
O   O153      1.0  0.84060  0.91670  0.09511  1.0000 -0.5998346212
O   O154      1.0  0.34060  0.08330  0.40489  1.0000 -0.5998346212
O   O155      1.0  0.15940  0.58330  0.59511  1.0000 -0.5998346212
O   O156      1.0  0.65940  0.41670  0.90489  1.0000 -0.5998346212
O   O157      1.0  0.15940  0.08330  0.90489  1.0000 -0.5998346212
O   O158      1.0  0.65940  0.91670  0.59511  1.0000 -0.5998346212
O   O159      1.0  0.84060  0.41670  0.40489  1.0000 -0.5998346212
O   O160      1.0  0.34060  0.58330  0.09511  1.0000 -0.5998346212
O   O161      1.0  0.68490  0.55650  0.92195  1.0000 -0.5998346212
O   O162      1.0  0.18490  0.44350  0.57805  1.0000 -0.5998346212
O   O163      1.0  0.31510  0.94350  0.42195  1.0000 -0.5998346212
O   O164      1.0  0.81510  0.05650  0.07805  1.0000 -0.5998346212
O   O165      1.0  0.31510  0.44350  0.07805  1.0000 -0.5998346212
O   O166      1.0  0.81510  0.55650  0.42195  1.0000 -0.5998346212
O   O167      1.0  0.68490  0.05650  0.57805  1.0000 -0.5998346212
O   O168      1.0  0.18490  0.94350  0.92195  1.0000 -0.5998346212
O   O169      1.0  0.79560  0.58550  0.91379  1.0000 -0.5209674142
O   O170      1.0  0.29560  0.41450  0.58621  1.0000 -0.5209674142
O   O171      1.0  0.20440  0.91450  0.41379  1.0000 -0.5209674142
O   O172      1.0  0.70440  0.08550  0.08621  1.0000 -0.5209674142
O   O173      1.0  0.20440  0.41450  0.08621  1.0000 -0.5209674142
O   O174      1.0  0.70440  0.58550  0.41379  1.0000 -0.5209674142
O   O175      1.0  0.79560  0.08550  0.58621  1.0000 -0.5209674142
O   O176      1.0  0.29560  0.91450  0.91379  1.0000 -0.5209674142
O   O177      1.0  0.36260  0.86420  0.58593  1.0000 -0.7014696744
O   O178      1.0  0.86260  0.13580  0.91407  1.0000 -0.7014696744
O   O179      1.0  0.63740  0.63580  0.08593  1.0000 -0.7014696744
O   O180      1.0  0.13740  0.36420  0.41407  1.0000 -0.7014696744
O   O181      1.0  0.63740  0.13580  0.41407  1.0000 -0.7014696744
O   O182      1.0  0.13740  0.86420  0.08593  1.0000 -0.7014696744
O   O183      1.0  0.36260  0.36420  0.91407  1.0000 -0.7014696744
O   O184      1.0  0.86260  0.63580  0.58593  1.0000 -0.7014696744
O   O185      1.0  0.75640  0.90950  0.35321  1.0000 -0.7014696744
O   O186      1.0  0.25640  0.09050  0.14679  1.0000 -0.7014696744
O   O187      1.0  0.24360  0.59050  0.85321  1.0000 -0.7014696744
O   O188      1.0  0.74360  0.40950  0.64679  1.0000 -0.7014696744
O   O189      1.0  0.24360  0.09050  0.64679  1.0000 -0.7014696744
O   O190      1.0  0.74360  0.90950  0.85321  1.0000 -0.7014696744
O   O191      1.0  0.75640  0.40950  0.14679  1.0000 -0.7014696744
O   O192      1.0  0.25640  0.59050  0.35321  1.0000 -0.7014696744
