# DDEC6 charges by PACMAN v1.1 (https://github.com/mtap-research/PACMAN-charge/)
data_2012[Mg][bcu]3[ASR]1
_chemical_formula_sum              "Mg6 H48 C64 N8 O36"
_cell_length_a       12.847
_cell_length_b       14.844
_cell_length_c       15.148
_cell_angle_alpha    90
_cell_angle_beta     90
_cell_angle_gamma    90

_symmetry_space_group_name_H-M    "P 1"
_symmetry_Int_Tables_number       1

loop_
  _symmetry_equiv_pos_as_xyz
  'x, y, z'

loop_
  _atom_site_type_symbol
  _atom_site_label
  _atom_site_symmetry_multiplicity
  _atom_site_fract_x
  _atom_site_fract_y
  _atom_site_fract_z
  _atom_site_occupancy
  _atom_site_charge
Mg  Mg1       1.0  0.44329  0.76236  0.00000  1.0000 1.3575046261
Mg  Mg2       1.0  0.55671  0.23764  0.00000  1.0000 1.3575046261
Mg  Mg3       1.0  0.94329  0.73764  0.50000  1.0000 1.3575046261
Mg  Mg4       1.0  0.05671  0.26236  0.50000  1.0000 1.3575046261
Mg  Mg5       1.0  0.00000  0.50000  0.50000  1.0000 1.3893995484
Mg  Mg6       1.0  0.50000  0.00000  0.00000  1.0000 1.3893995484
H   H1        1.0  0.58300  0.53490  0.87660  1.0000 0.1280570303
H   H2        1.0  0.41700  0.46510  0.87660  1.0000 0.1280570303
H   H3        1.0  0.08300  0.96510  0.62340  1.0000 0.1280570303
H   H4        1.0  0.91700  0.03490  0.62340  1.0000 0.1280570303
H   H5        1.0  0.41700  0.46510  0.12340  1.0000 0.1280570303
H   H6        1.0  0.58300  0.53490  0.12340  1.0000 0.1280570303
H   H7        1.0  0.91700  0.03490  0.37660  1.0000 0.1280570303
H   H8        1.0  0.08300  0.96510  0.37660  1.0000 0.1280570303
H   H9        1.0  0.77420  0.44640  0.68610  1.0000 0.1460118641
H   H10       1.0  0.22580  0.55360  0.68610  1.0000 0.1460118641
H   H11       1.0  0.27420  0.05360  0.81390  1.0000 0.1460118641
H   H12       1.0  0.72580  0.94640  0.81390  1.0000 0.1460118641
H   H13       1.0  0.22580  0.55360  0.31390  1.0000 0.1460118641
H   H14       1.0  0.77420  0.44640  0.31390  1.0000 0.1460118641
H   H15       1.0  0.72580  0.94640  0.18610  1.0000 0.1460118641
H   H16       1.0  0.27420  0.05360  0.18610  1.0000 0.1460118641
H   H17       1.0  0.74760  0.71120  0.73280  1.0000 0.1171851841
H   H18       1.0  0.25240  0.28880  0.73280  1.0000 0.1171851841
H   H19       1.0  0.24760  0.78880  0.76720  1.0000 0.1171851841
H   H20       1.0  0.75240  0.21120  0.76720  1.0000 0.1171851841
H   H21       1.0  0.25240  0.28880  0.26720  1.0000 0.1171851841
H   H22       1.0  0.74760  0.71120  0.26720  1.0000 0.1171851841
H   H23       1.0  0.75240  0.21120  0.23280  1.0000 0.1171851841
H   H24       1.0  0.24760  0.78880  0.23280  1.0000 0.1171851841
H   H25       1.0  0.67560  0.34220  0.77670  1.0000 0.2991890174
H   H26       1.0  0.32440  0.65780  0.77670  1.0000 0.2991890174
H   H27       1.0  0.17560  0.15780  0.72330  1.0000 0.2991890174
H   H28       1.0  0.82440  0.84220  0.72330  1.0000 0.2991890174
H   H29       1.0  0.32440  0.65780  0.22330  1.0000 0.2991890174
H   H30       1.0  0.67560  0.34220  0.22330  1.0000 0.2991890174
H   H31       1.0  0.82440  0.84220  0.27670  1.0000 0.2991890174
H   H32       1.0  0.17560  0.15780  0.27670  1.0000 0.2991890174
H   H33       1.0  0.60350  0.37530  0.84660  1.0000 0.2991890174
H   H34       1.0  0.39650  0.62470  0.84660  1.0000 0.2991890174
H   H35       1.0  0.10350  0.12470  0.65340  1.0000 0.2991890174
H   H36       1.0  0.89650  0.87530  0.65340  1.0000 0.2991890174
H   H37       1.0  0.39650  0.62470  0.15340  1.0000 0.2991890174
H   H38       1.0  0.60350  0.37530  0.15340  1.0000 0.2991890174
H   H39       1.0  0.89650  0.87530  0.34660  1.0000 0.2991890174
H   H40       1.0  0.10350  0.12470  0.34660  1.0000 0.2991890174
H   H41       1.0  0.91200  0.34600  0.45420  1.0000 0.3794769619
H   H42       1.0  0.08800  0.65400  0.45420  1.0000 0.3794769619
H   H43       1.0  0.41200  0.15400  0.04580  1.0000 0.3794769619
H   H44       1.0  0.58800  0.84600  0.04580  1.0000 0.3794769619
H   H45       1.0  0.08800  0.65400  0.54580  1.0000 0.3794769619
H   H46       1.0  0.91200  0.34600  0.54580  1.0000 0.3794769619
H   H47       1.0  0.58800  0.84600  0.95420  1.0000 0.3794769619
H   H48       1.0  0.41200  0.15400  0.95420  1.0000 0.3794769619
C   C1        1.0  0.65940  0.63433  0.81359  1.0000 -0.0037605696
C   C2        1.0  0.34060  0.36567  0.81359  1.0000 -0.0037605696
C   C3        1.0  0.15940  0.86567  0.68641  1.0000 -0.0037605696
C   C4        1.0  0.84060  0.13433  0.68641  1.0000 -0.0037605696
C   C5        1.0  0.34060  0.36567  0.18641  1.0000 -0.0037605696
C   C6        1.0  0.65940  0.63433  0.18641  1.0000 -0.0037605696
C   C7        1.0  0.84060  0.13433  0.31359  1.0000 -0.0037605696
C   C8        1.0  0.15940  0.86567  0.31359  1.0000 -0.0037605696
C   C9        1.0  0.67380  0.47519  0.78420  1.0000 0.2620195944
C   C10       1.0  0.32620  0.52481  0.78420  1.0000 0.2620195944
C   C11       1.0  0.17380  0.02481  0.71580  1.0000 0.2620195944
C   C12       1.0  0.82620  0.97519  0.71580  1.0000 0.2620195944
C   C13       1.0  0.32620  0.52481  0.21580  1.0000 0.2620195944
C   C14       1.0  0.67380  0.47519  0.21580  1.0000 0.2620195944
C   C15       1.0  0.82620  0.97519  0.28420  1.0000 0.2620195944
C   C16       1.0  0.17380  0.02481  0.28420  1.0000 0.2620195944
C   C17       1.0  0.63100  0.54653  0.83202  1.0000 -0.196572988
C   C18       1.0  0.36900  0.45347  0.83202  1.0000 -0.196572988
C   C19       1.0  0.13100  0.95347  0.66798  1.0000 -0.196572988
C   C20       1.0  0.86900  0.04653  0.66798  1.0000 -0.196572988
C   C21       1.0  0.36900  0.45347  0.16798  1.0000 -0.196572988
C   C22       1.0  0.63100  0.54653  0.16798  1.0000 -0.196572988
C   C23       1.0  0.86900  0.04653  0.33202  1.0000 -0.196572988
C   C24       1.0  0.13100  0.95347  0.33202  1.0000 -0.196572988
C   C25       1.0  0.61380  0.71019  0.86717  1.0000 0.5874723394
C   C26       1.0  0.38620  0.28981  0.86717  1.0000 0.5874723394
C   C27       1.0  0.11380  0.78981  0.63283  1.0000 0.5874723394
C   C28       1.0  0.88620  0.21019  0.63283  1.0000 0.5874723394
C   C29       1.0  0.38620  0.28981  0.13283  1.0000 0.5874723394
C   C30       1.0  0.61380  0.71019  0.13283  1.0000 0.5874723394
C   C31       1.0  0.88620  0.21019  0.36717  1.0000 0.5874723394
C   C32       1.0  0.11380  0.78981  0.36717  1.0000 0.5874723394
C   C33       1.0  0.74460  0.49359  0.71776  1.0000 -0.1859706367
C   C34       1.0  0.25540  0.50641  0.71776  1.0000 -0.1859706367
C   C35       1.0  0.24460  0.00641  0.78224  1.0000 -0.1859706367
C   C36       1.0  0.75540  0.99359  0.78224  1.0000 -0.1859706367
C   C37       1.0  0.25540  0.50641  0.28224  1.0000 -0.1859706367
C   C38       1.0  0.74460  0.49359  0.28224  1.0000 -0.1859706367
C   C39       1.0  0.75540  0.99359  0.21776  1.0000 -0.1859706367
C   C40       1.0  0.24460  0.00641  0.21776  1.0000 -0.1859706367
C   C41       1.0  0.77207  0.58153  0.69787  1.0000 0.0035504869
C   C42       1.0  0.22793  0.41847  0.69787  1.0000 0.0035504869
C   C43       1.0  0.27207  0.91847  0.80213  1.0000 0.0035504869
C   C44       1.0  0.72793  0.08153  0.80213  1.0000 0.0035504869
C   C45       1.0  0.22793  0.41847  0.30213  1.0000 0.0035504869
C   C46       1.0  0.77207  0.58153  0.30213  1.0000 0.0035504869
C   C47       1.0  0.72793  0.08153  0.19787  1.0000 0.0035504869
C   C48       1.0  0.27207  0.91847  0.19787  1.0000 0.0035504869
C   C49       1.0  0.72936  0.65206  0.74594  1.0000 -0.1281800351
C   C50       1.0  0.27064  0.34794  0.74594  1.0000 -0.1281800351
C   C51       1.0  0.22936  0.84794  0.75406  1.0000 -0.1281800351
C   C52       1.0  0.77064  0.15206  0.75406  1.0000 -0.1281800351
C   C53       1.0  0.27064  0.34794  0.25406  1.0000 -0.1281800351
C   C54       1.0  0.72936  0.65206  0.25406  1.0000 -0.1281800351
C   C55       1.0  0.77064  0.15206  0.24594  1.0000 -0.1281800351
C   C56       1.0  0.22936  0.84794  0.24594  1.0000 -0.1281800351
C   C57       1.0  0.84867  0.59860  0.62463  1.0000 0.6210957964
C   C58       1.0  0.15133  0.40140  0.62463  1.0000 0.6210957964
C   C59       1.0  0.34867  0.90140  0.87537  1.0000 0.6210957964
C   C60       1.0  0.65133  0.09860  0.87537  1.0000 0.6210957964
C   C61       1.0  0.15133  0.40140  0.37537  1.0000 0.6210957964
C   C62       1.0  0.84867  0.59860  0.37537  1.0000 0.6210957964
C   C63       1.0  0.65133  0.09860  0.12463  1.0000 0.6210957964
C   C64       1.0  0.34867  0.90140  0.12463  1.0000 0.6210957964
N   N1        1.0  0.64760  0.38610  0.80520  1.0000 -0.5675930778
N   N2        1.0  0.35240  0.61390  0.80520  1.0000 -0.5675930778
N   N3        1.0  0.14760  0.11390  0.69480  1.0000 -0.5675930778
N   N4        1.0  0.85240  0.88610  0.69480  1.0000 -0.5675930778
N   N5        1.0  0.35240  0.61390  0.19480  1.0000 -0.5675930778
N   N6        1.0  0.64760  0.38610  0.19480  1.0000 -0.5675930778
N   N7        1.0  0.85240  0.88610  0.30520  1.0000 -0.5675930778
N   N8        1.0  0.14760  0.11390  0.30520  1.0000 -0.5675930778
O   O1        1.0  0.52884  0.69490  0.90546  1.0000 -0.646486337
O   O2        1.0  0.47116  0.30510  0.90546  1.0000 -0.646486337
O   O3        1.0  0.02884  0.80510  0.59454  1.0000 -0.646486337
O   O4        1.0  0.97116  0.19490  0.59454  1.0000 -0.646486337
O   O5        1.0  0.47116  0.30510  0.09454  1.0000 -0.646486337
O   O6        1.0  0.52884  0.69490  0.09454  1.0000 -0.646486337
O   O7        1.0  0.97116  0.19490  0.40546  1.0000 -0.646486337
O   O8        1.0  0.02884  0.80510  0.40546  1.0000 -0.646486337
O   O9        1.0  0.66320  0.78325  0.87087  1.0000 -0.5187042902
O   O10       1.0  0.33680  0.21675  0.87087  1.0000 -0.5187042902
O   O11       1.0  0.16320  0.71675  0.62913  1.0000 -0.5187042902
O   O12       1.0  0.83680  0.28325  0.62913  1.0000 -0.5187042902
O   O13       1.0  0.33680  0.21675  0.12913  1.0000 -0.5187042902
O   O14       1.0  0.66320  0.78325  0.12913  1.0000 -0.5187042902
O   O15       1.0  0.83680  0.28325  0.37087  1.0000 -0.5187042902
O   O16       1.0  0.16320  0.71675  0.37087  1.0000 -0.5187042902
O   O17       1.0  0.85858  0.67731  0.59850  1.0000 -0.6170986692
O   O18       1.0  0.14142  0.32269  0.59850  1.0000 -0.6170986692
O   O19       1.0  0.35858  0.82269  0.90150  1.0000 -0.6170986692
O   O20       1.0  0.64142  0.17731  0.90150  1.0000 -0.6170986692
O   O21       1.0  0.14142  0.32269  0.40150  1.0000 -0.6170986692
O   O22       1.0  0.85858  0.67731  0.40150  1.0000 -0.6170986692
O   O23       1.0  0.64142  0.17731  0.09850  1.0000 -0.6170986692
O   O24       1.0  0.35858  0.82269  0.09850  1.0000 -0.6170986692
O   O25       1.0  0.89596  0.53228  0.59514  1.0000 -0.6037332813
O   O26       1.0  0.10404  0.46772  0.59514  1.0000 -0.6037332813
O   O27       1.0  0.39596  0.96772  0.90486  1.0000 -0.6037332813
O   O28       1.0  0.60404  0.03228  0.90486  1.0000 -0.6037332813
O   O29       1.0  0.10404  0.46772  0.40486  1.0000 -0.6037332813
O   O30       1.0  0.89596  0.53228  0.40486  1.0000 -0.6037332813
O   O31       1.0  0.60404  0.03228  0.09514  1.0000 -0.6037332813
O   O32       1.0  0.39596  0.96772  0.09514  1.0000 -0.6037332813
O   O33       1.0  0.94004  0.36731  0.50000  1.0000 -0.8024992149
O   O34       1.0  0.05996  0.63269  0.50000  1.0000 -0.8024992149
O   O35       1.0  0.44004  0.13269  0.00000  1.0000 -0.8024992149
O   O36       1.0  0.55996  0.86731  0.00000  1.0000 -0.8024992149
