# DDEC6 charges by PACMAN v1.1 (https://github.com/mtap-research/PACMAN-charge/)
data_2012[Zn][scu]3[ASR]3
_chemical_formula_sum              "Zn16 H80 C148 O80"
_cell_length_a       12.5059
_cell_length_b       26.1708
_cell_length_c       26.2509
_cell_angle_alpha    90
_cell_angle_beta     90
_cell_angle_gamma    90

_symmetry_space_group_name_H-M    "P 1"
_symmetry_Int_Tables_number       1

loop_
  _symmetry_equiv_pos_as_xyz
  'x, y, z'

loop_
  _atom_site_type_symbol
  _atom_site_label
  _atom_site_symmetry_multiplicity
  _atom_site_fract_x
  _atom_site_fract_y
  _atom_site_fract_z
  _atom_site_occupancy
  _atom_site_charge
Zn  Zn1       1.0  0.48667  0.19657  0.25000  1.0000 0.9602185141
Zn  Zn2       1.0  0.51333  0.80343  0.75000  1.0000 0.9602185141
Zn  Zn3       1.0  0.48667  0.30343  0.75000  1.0000 0.9602185141
Zn  Zn4       1.0  0.51333  0.69657  0.25000  1.0000 0.9602185141
Zn  Zn5       1.0  0.65016  0.27934  0.25000  1.0000 0.9470195424
Zn  Zn6       1.0  0.34984  0.72066  0.75000  1.0000 0.9470195424
Zn  Zn7       1.0  0.65016  0.22066  0.75000  1.0000 0.9470195424
Zn  Zn8       1.0  0.34984  0.77934  0.25000  1.0000 0.9470195424
Zn  Zn9       1.0  0.58104  0.99340  0.54116  1.0000 0.9602185141
Zn  Zn10      1.0  0.41896  0.00660  0.04116  1.0000 0.9602185141
Zn  Zn11      1.0  0.58104  0.50660  0.45884  1.0000 0.9602185141
Zn  Zn12      1.0  0.41896  0.49340  0.95884  1.0000 0.9602185141
Zn  Zn13      1.0  0.41896  0.00660  0.45884  1.0000 0.9602185141
Zn  Zn14      1.0  0.58104  0.99340  0.95884  1.0000 0.9602185141
Zn  Zn15      1.0  0.41896  0.49340  0.54116  1.0000 0.9602185141
Zn  Zn16      1.0  0.58104  0.50660  0.04116  1.0000 0.9602185141
H   H1        1.0  0.92280  0.26010  0.44590  1.0000 0.101940179
H   H2        1.0  0.07720  0.73990  0.94590  1.0000 0.101940179
H   H3        1.0  0.92280  0.23990  0.55410  1.0000 0.101940179
H   H4        1.0  0.07720  0.76010  0.05410  1.0000 0.101940179
H   H5        1.0  0.07720  0.73990  0.55410  1.0000 0.101940179
H   H6        1.0  0.92280  0.26010  0.05410  1.0000 0.101940179
H   H7        1.0  0.07720  0.76010  0.44590  1.0000 0.101940179
H   H8        1.0  0.92280  0.23990  0.94590  1.0000 0.101940179
H   H9        1.0  0.01640  0.22510  0.42600  1.0000 0.101940179
H   H10       1.0  0.98360  0.77490  0.92600  1.0000 0.101940179
H   H11       1.0  0.01640  0.27490  0.57400  1.0000 0.101940179
H   H12       1.0  0.98360  0.72510  0.07400  1.0000 0.101940179
H   H13       1.0  0.98360  0.77490  0.57400  1.0000 0.101940179
H   H14       1.0  0.01640  0.22510  0.07400  1.0000 0.101940179
H   H15       1.0  0.98360  0.72510  0.42600  1.0000 0.101940179
H   H16       1.0  0.01640  0.27490  0.92600  1.0000 0.101940179
H   H17       1.0  0.83780  0.21850  0.38150  1.0000 0.129898113
H   H18       1.0  0.16220  0.78150  0.88150  1.0000 0.129898113
H   H19       1.0  0.83780  0.28150  0.61850  1.0000 0.129898113
H   H20       1.0  0.16220  0.71850  0.11850  1.0000 0.129898113
H   H21       1.0  0.16220  0.78150  0.61850  1.0000 0.129898113
H   H22       1.0  0.83780  0.21850  0.11850  1.0000 0.129898113
H   H23       1.0  0.16220  0.71850  0.38150  1.0000 0.129898113
H   H24       1.0  0.83780  0.28150  0.88150  1.0000 0.129898113
H   H25       1.0  0.60030  0.11510  0.37490  1.0000 0.1404453795
H   H26       1.0  0.39970  0.88490  0.87490  1.0000 0.1404453795
H   H27       1.0  0.60030  0.38490  0.62510  1.0000 0.1404453795
H   H28       1.0  0.39970  0.61510  0.12510  1.0000 0.1404453795
H   H29       1.0  0.39970  0.88490  0.62510  1.0000 0.1404453795
H   H30       1.0  0.60030  0.11510  0.12510  1.0000 0.1404453795
H   H31       1.0  0.39970  0.61510  0.37490  1.0000 0.1404453795
H   H32       1.0  0.60030  0.38490  0.87490  1.0000 0.1404453795
H   H33       1.0  0.80430  0.11350  0.49220  1.0000 0.1460348766
H   H34       1.0  0.19570  0.88650  0.99220  1.0000 0.1460348766
H   H35       1.0  0.80430  0.38650  0.50780  1.0000 0.1460348766
H   H36       1.0  0.19570  0.61350  0.00780  1.0000 0.1460348766
H   H37       1.0  0.19570  0.88650  0.50780  1.0000 0.1460348766
H   H38       1.0  0.80430  0.11350  0.00780  1.0000 0.1460348766
H   H39       1.0  0.19570  0.61350  0.49220  1.0000 0.1460348766
H   H40       1.0  0.80430  0.38650  0.99220  1.0000 0.1460348766
H   H41       1.0  0.06830  0.17620  0.52630  1.0000 0.101940179
H   H42       1.0  0.93170  0.82380  0.02630  1.0000 0.101940179
H   H43       1.0  0.06830  0.32380  0.47370  1.0000 0.101940179
H   H44       1.0  0.93170  0.67620  0.97370  1.0000 0.101940179
H   H45       1.0  0.93170  0.82380  0.47370  1.0000 0.101940179
H   H46       1.0  0.06830  0.17620  0.97370  1.0000 0.101940179
H   H47       1.0  0.93170  0.67620  0.52630  1.0000 0.101940179
H   H48       1.0  0.06830  0.32380  0.02630  1.0000 0.101940179
H   H49       1.0  0.16030  0.19530  0.49010  1.0000 0.101940179
H   H50       1.0  0.83970  0.80470  0.99010  1.0000 0.101940179
H   H51       1.0  0.16030  0.30470  0.50990  1.0000 0.101940179
H   H52       1.0  0.83970  0.69530  0.00990  1.0000 0.101940179
H   H53       1.0  0.83970  0.80470  0.50990  1.0000 0.101940179
H   H54       1.0  0.16030  0.19530  0.00990  1.0000 0.101940179
H   H55       1.0  0.83970  0.69530  0.49010  1.0000 0.101940179
H   H56       1.0  0.16030  0.30470  0.99010  1.0000 0.101940179
H   H57       1.0  0.25120  0.13330  0.52870  1.0000 0.129898113
H   H58       1.0  0.74880  0.86670  0.02870  1.0000 0.129898113
H   H59       1.0  0.25120  0.36670  0.47130  1.0000 0.129898113
H   H60       1.0  0.74880  0.63330  0.97130  1.0000 0.129898113
H   H61       1.0  0.74880  0.86670  0.47130  1.0000 0.129898113
H   H62       1.0  0.25120  0.13330  0.97130  1.0000 0.129898113
H   H63       1.0  0.74880  0.63330  0.52870  1.0000 0.129898113
H   H64       1.0  0.25120  0.36670  0.02870  1.0000 0.129898113
H   H65       1.0  0.28710  0.24470  0.63330  1.0000 0.1404453795
H   H66       1.0  0.71290  0.75530  0.13330  1.0000 0.1404453795
H   H67       1.0  0.28710  0.25530  0.36670  1.0000 0.1460348766
H   H68       1.0  0.71290  0.74470  0.86670  1.0000 0.1460348766
H   H69       1.0  0.71290  0.75530  0.36670  1.0000 0.1460348766
H   H70       1.0  0.28710  0.24470  0.86670  1.0000 0.1460348766
H   H71       1.0  0.71290  0.74470  0.63330  1.0000 0.1404453795
H   H72       1.0  0.28710  0.25530  0.13330  1.0000 0.1404453795
H   H73       1.0  0.49050  0.12630  0.63180  1.0000 0.1404453795
H   H74       1.0  0.50950  0.87370  0.13180  1.0000 0.1404453795
H   H75       1.0  0.49050  0.37370  0.36820  1.0000 0.1404453795
H   H76       1.0  0.50950  0.62630  0.86820  1.0000 0.1404453795
H   H77       1.0  0.50950  0.87370  0.36820  1.0000 0.1404453795
H   H78       1.0  0.49050  0.12630  0.86820  1.0000 0.1404453795
H   H79       1.0  0.50950  0.62630  0.63180  1.0000 0.1404453795
H   H80       1.0  0.49050  0.37370  0.13180  1.0000 0.1404453795
C   C1        1.0  0.67010  0.19460  0.32229  1.0000 0.5986871671
C   C2        1.0  0.32990  0.80540  0.82229  1.0000 0.5986871671
C   C3        1.0  0.67010  0.30540  0.67771  1.0000 0.5986871671
C   C4        1.0  0.32990  0.69460  0.17771  1.0000 0.5986871671
C   C5        1.0  0.32990  0.80540  0.67771  1.0000 0.5986871671
C   C6        1.0  0.67010  0.19460  0.17771  1.0000 0.5986871671
C   C7        1.0  0.32990  0.69460  0.32229  1.0000 0.5986871671
C   C8        1.0  0.67010  0.30540  0.82229  1.0000 0.5986871671
C   C9        1.0  0.97210  0.23315  0.45530  1.0000 -0.083550478
C   C10       1.0  0.02790  0.76685  0.95530  1.0000 -0.0863044199
C   C11       1.0  0.97210  0.26685  0.54470  1.0000 -0.0863044199
C   C12       1.0  0.02790  0.73315  0.04470  1.0000 -0.083550478
C   C13       1.0  0.02790  0.76685  0.54470  1.0000 -0.0863044199
C   C14       1.0  0.97210  0.23315  0.04470  1.0000 -0.083550478
C   C15       1.0  0.02790  0.73315  0.45530  1.0000 -0.083550478
C   C16       1.0  0.97210  0.26685  0.95530  1.0000 -0.0863044199
C   C17       1.0  0.83400  0.17055  0.44144  1.0000 0.2604009928
C   C18       1.0  0.16600  0.82945  0.94144  1.0000 0.2604009928
C   C19       1.0  0.83400  0.32945  0.55856  1.0000 0.2547465514
C   C20       1.0  0.16600  0.67055  0.05856  1.0000 0.2604009928
C   C21       1.0  0.16600  0.82945  0.55856  1.0000 0.2547465514
C   C22       1.0  0.83400  0.17055  0.05856  1.0000 0.2604009928
C   C23       1.0  0.16600  0.67055  0.44144  1.0000 0.2604009928
C   C24       1.0  0.83400  0.32945  0.94144  1.0000 0.2604009928
C   C25       1.0  0.80150  0.19093  0.39559  1.0000 -0.2397293944
C   C26       1.0  0.19850  0.80907  0.89559  1.0000 -0.2397293944
C   C27       1.0  0.80150  0.30907  0.60441  1.0000 -0.2397293944
C   C28       1.0  0.19850  0.69093  0.10441  1.0000 -0.2397293944
C   C29       1.0  0.19850  0.80907  0.60441  1.0000 -0.2397293944
C   C30       1.0  0.80150  0.19093  0.10441  1.0000 -0.2397293944
C   C31       1.0  0.19850  0.69093  0.39559  1.0000 -0.2397293944
C   C32       1.0  0.80150  0.30907  0.89559  1.0000 -0.2397293944
C   C33       1.0  0.71400  0.16989  0.37061  1.0000 0.0017572687
C   C34       1.0  0.28600  0.83011  0.87061  1.0000 0.0017572687
C   C35       1.0  0.71400  0.33011  0.62939  1.0000 0.0017572687
C   C36       1.0  0.28600  0.66989  0.12939  1.0000 0.0017572687
C   C37       1.0  0.28600  0.83011  0.62939  1.0000 0.0017572687
C   C38       1.0  0.71400  0.16989  0.12939  1.0000 0.0017572687
C   C39       1.0  0.28600  0.66989  0.37061  1.0000 0.0017572687
C   C40       1.0  0.71400  0.33011  0.87061  1.0000 0.0017572687
C   C41       1.0  0.65970  0.12861  0.39141  1.0000 -0.1132295947
C   C42       1.0  0.34030  0.87139  0.89141  1.0000 -0.1132295947
C   C43       1.0  0.65970  0.37139  0.60859  1.0000 -0.1132295947
C   C44       1.0  0.34030  0.62861  0.10859  1.0000 -0.1132295947
C   C45       1.0  0.34030  0.87139  0.60859  1.0000 -0.1175377815
C   C46       1.0  0.65970  0.12861  0.10859  1.0000 -0.1132295947
C   C47       1.0  0.34030  0.62861  0.39141  1.0000 -0.1132295947
C   C48       1.0  0.65970  0.37139  0.89141  1.0000 -0.1132295947
C   C49       1.0  0.69430  0.10764  0.43690  1.0000 -0.009763541
C   C50       1.0  0.30570  0.89236  0.93690  1.0000 -0.009763541
C   C51       1.0  0.69430  0.39236  0.56310  1.0000 -0.009763541
C   C52       1.0  0.30570  0.60764  0.06310  1.0000 -0.009763541
C   C53       1.0  0.30570  0.89236  0.56310  1.0000 -0.009763541
C   C54       1.0  0.69430  0.10764  0.06310  1.0000 -0.009763541
C   C55       1.0  0.30570  0.60764  0.43690  1.0000 -0.009763541
C   C56       1.0  0.69430  0.39236  0.93690  1.0000 -0.009763541
C   C57       1.0  0.78090  0.12794  0.46184  1.0000 -0.2053867329
C   C58       1.0  0.21910  0.87206  0.96184  1.0000 -0.2053867329
C   C59       1.0  0.78090  0.37206  0.53816  1.0000 -0.2004759779
C   C60       1.0  0.21910  0.62794  0.03816  1.0000 -0.2004759779
C   C61       1.0  0.21910  0.87206  0.53816  1.0000 -0.2004759779
C   C62       1.0  0.78090  0.12794  0.03816  1.0000 -0.2004759779
C   C63       1.0  0.21910  0.62794  0.46184  1.0000 -0.2053867329
C   C64       1.0  0.78090  0.37206  0.96184  1.0000 -0.2004759779
C   C65       1.0  0.63070  0.06499  0.46153  1.0000 0.5986871671
C   C66       1.0  0.36930  0.93501  0.96153  1.0000 0.5986871671
C   C67       1.0  0.63070  0.43501  0.53847  1.0000 0.5986871671
C   C68       1.0  0.36930  0.56499  0.03847  1.0000 0.5986871671
C   C69       1.0  0.36930  0.93501  0.53847  1.0000 0.5986871671
C   C70       1.0  0.63070  0.06499  0.03847  1.0000 0.5986871671
C   C71       1.0  0.36930  0.56499  0.46153  1.0000 0.5986871671
C   C72       1.0  0.63070  0.43501  0.96153  1.0000 0.5986871671
C   C73       1.0  0.04150  0.25000  0.50000  1.0000 0.0421701286
C   C74       1.0  0.95850  0.75000  0.00000  1.0000 0.0451487366
C   C75       1.0  0.95850  0.75000  0.50000  1.0000 0.0421701286
C   C76       1.0  0.04150  0.25000  0.00000  1.0000 0.0421701286
C   C77       1.0  0.11230  0.20535  0.51731  1.0000 -0.083550478
C   C78       1.0  0.88770  0.79465  0.01731  1.0000 -0.083550478
C   C79       1.0  0.11230  0.29465  0.48269  1.0000 -0.083550478
C   C80       1.0  0.88770  0.70535  0.98269  1.0000 -0.083550478
C   C81       1.0  0.88770  0.79465  0.48269  1.0000 -0.083550478
C   C82       1.0  0.11230  0.20535  0.98269  1.0000 -0.083550478
C   C83       1.0  0.88770  0.70535  0.51731  1.0000 -0.083550478
C   C84       1.0  0.11230  0.29465  0.01731  1.0000 -0.083550478
C   C85       1.0  0.37770  0.12222  0.57661  1.0000 0.0017572687
C   C86       1.0  0.62230  0.87778  0.07661  1.0000 0.0017572687
C   C87       1.0  0.37770  0.37778  0.42339  1.0000 0.0017572687
C   C88       1.0  0.62230  0.62222  0.92339  1.0000 0.0017572687
C   C89       1.0  0.62230  0.87778  0.42339  1.0000 0.0017572687
C   C90       1.0  0.37770  0.12222  0.92339  1.0000 0.0017572687
C   C91       1.0  0.62230  0.62222  0.57661  1.0000 0.0017572687
C   C92       1.0  0.37770  0.37778  0.07661  1.0000 0.0017572687
C   C93       1.0  0.28770  0.14721  0.55624  1.0000 -0.2561677594
C   C94       1.0  0.71230  0.85279  0.05624  1.0000 -0.2561677594
C   C95       1.0  0.28770  0.35279  0.44376  1.0000 -0.2561677594
C   C96       1.0  0.71230  0.64721  0.94376  1.0000 -0.2561677594
C   C97       1.0  0.71230  0.85279  0.44376  1.0000 -0.2561677594
C   C98       1.0  0.28770  0.14721  0.94376  1.0000 -0.2561677594
C   C99       1.0  0.71230  0.64721  0.55624  1.0000 -0.2561677594
C   C100      1.0  0.28770  0.35279  0.05624  1.0000 -0.2561677594
C   C101      1.0  0.25410  0.19278  0.57770  1.0000 0.2604009928
C   C102      1.0  0.74590  0.80722  0.07770  1.0000 0.2604009928
C   C103      1.0  0.25410  0.30722  0.42230  1.0000 0.2604009928
C   C104      1.0  0.74590  0.69278  0.92230  1.0000 0.2604009928
C   C105      1.0  0.74590  0.80722  0.42230  1.0000 0.2604009928
C   C106      1.0  0.25410  0.19278  0.92230  1.0000 0.2604009928
C   C107      1.0  0.74590  0.69278  0.57770  1.0000 0.2604009928
C   C108      1.0  0.25410  0.30722  0.07770  1.0000 0.2604009928
C   C109      1.0  0.30990  0.21406  0.61906  1.0000 -0.2159148187
C   C110      1.0  0.69010  0.78594  0.11906  1.0000 -0.2159148187
C   C111      1.0  0.30990  0.28594  0.38094  1.0000 -0.2159148187
C   C112      1.0  0.69010  0.71406  0.88094  1.0000 -0.2159148187
C   C113      1.0  0.69010  0.78594  0.38094  1.0000 -0.2159148187
C   C114      1.0  0.30990  0.21406  0.88094  1.0000 -0.2159148187
C   C115      1.0  0.69010  0.71406  0.61906  1.0000 -0.2159148187
C   C116      1.0  0.30990  0.28594  0.11906  1.0000 -0.2159148187
C   C117      1.0  0.41920  0.07472  0.55092  1.0000 0.5986871671
C   C118      1.0  0.58080  0.92528  0.05092  1.0000 0.5986871671
C   C119      1.0  0.41920  0.42528  0.44908  1.0000 0.5986871671
C   C120      1.0  0.58080  0.57472  0.94908  1.0000 0.5986871671
C   C121      1.0  0.58080  0.92528  0.44908  1.0000 0.5986871671
C   C122      1.0  0.41920  0.07472  0.94908  1.0000 0.5986871671
C   C123      1.0  0.58080  0.57472  0.55092  1.0000 0.5986871671
C   C124      1.0  0.41920  0.42528  0.05092  1.0000 0.5986871671
C   C125      1.0  0.39830  0.18940  0.63847  1.0000 -0.009763541
C   C126      1.0  0.60170  0.81060  0.13847  1.0000 -0.009763541
C   C127      1.0  0.39830  0.31060  0.36153  1.0000 -0.009763541
C   C128      1.0  0.60170  0.68940  0.86153  1.0000 -0.009763541
C   C129      1.0  0.60170  0.81060  0.36153  1.0000 -0.009763541
C   C130      1.0  0.39830  0.18940  0.86153  1.0000 -0.009763541
C   C131      1.0  0.60170  0.68940  0.63847  1.0000 -0.009763541
C   C132      1.0  0.39830  0.31060  0.13847  1.0000 -0.009763541
C   C133      1.0  0.43190  0.14318  0.61793  1.0000 -0.1175377815
C   C134      1.0  0.56810  0.85682  0.11793  1.0000 -0.1175377815
C   C135      1.0  0.43190  0.35682  0.38207  1.0000 -0.1175377815
C   C136      1.0  0.56810  0.64318  0.88207  1.0000 -0.1175377815
C   C137      1.0  0.56810  0.85682  0.38207  1.0000 -0.1175377815
C   C138      1.0  0.43190  0.14318  0.88207  1.0000 -0.1175377815
C   C139      1.0  0.56810  0.64318  0.61793  1.0000 -0.1175377815
C   C140      1.0  0.43190  0.35682  0.11793  1.0000 -0.1175377815
C   C141      1.0  0.46080  0.21557  0.68081  1.0000 0.5986871671
C   C142      1.0  0.53920  0.78443  0.18081  1.0000 0.5986871671
C   C143      1.0  0.46080  0.28443  0.31919  1.0000 0.5986871671
C   C144      1.0  0.53920  0.71557  0.81919  1.0000 0.5986871671
C   C145      1.0  0.53920  0.78443  0.31919  1.0000 0.5986871671
C   C146      1.0  0.46080  0.21557  0.81919  1.0000 0.5986871671
C   C147      1.0  0.53920  0.71557  0.68081  1.0000 0.5986871671
C   C148      1.0  0.46080  0.28443  0.18081  1.0000 0.5986871671
O   O1        1.0  0.58970  0.17263  0.30284  1.0000 -0.5504815448
O   O2        1.0  0.41030  0.82737  0.80284  1.0000 -0.5504815448
O   O3        1.0  0.58970  0.32737  0.69716  1.0000 -0.5504815448
O   O4        1.0  0.41030  0.67263  0.19716  1.0000 -0.5504815448
O   O5        1.0  0.41030  0.82737  0.69716  1.0000 -0.5504815448
O   O6        1.0  0.58970  0.17263  0.19716  1.0000 -0.5504815448
O   O7        1.0  0.41030  0.67263  0.30284  1.0000 -0.5504815448
O   O8        1.0  0.58970  0.32737  0.80284  1.0000 -0.5504815448
O   O9        1.0  0.71380  0.23381  0.30586  1.0000 -0.538544163
O   O10       1.0  0.28620  0.76619  0.80586  1.0000 -0.538544163
O   O11       1.0  0.71380  0.26619  0.69414  1.0000 -0.538544163
O   O12       1.0  0.28620  0.73381  0.19414  1.0000 -0.5343890239
O   O13       1.0  0.28620  0.76619  0.69414  1.0000 -0.538544163
O   O14       1.0  0.71380  0.23381  0.19414  1.0000 -0.5343890239
O   O15       1.0  0.28620  0.73381  0.30586  1.0000 -0.538544163
O   O16       1.0  0.71380  0.26619  0.80586  1.0000 -0.538544163
O   O17       1.0  0.91470  0.18888  0.47165  1.0000 -0.2004759779
O   O18       1.0  0.08530  0.81112  0.97165  1.0000 -0.2004759779
O   O19       1.0  0.91470  0.31112  0.52835  1.0000 -0.2004759779
O   O20       1.0  0.08530  0.68888  0.02835  1.0000 -0.2004759779
O   O21       1.0  0.08530  0.81112  0.52835  1.0000 -0.2004759779
O   O22       1.0  0.91470  0.18888  0.02835  1.0000 -0.2004759779
O   O23       1.0  0.08530  0.68888  0.47165  1.0000 -0.2004759779
O   O24       1.0  0.91470  0.31112  0.97165  1.0000 -0.2004759779
O   O25       1.0  0.66700  0.04539  0.50171  1.0000 -0.538544163
O   O26       1.0  0.33300  0.95461  0.00171  1.0000 -0.538544163
O   O27       1.0  0.66700  0.45461  0.49829  1.0000 -0.538544163
O   O28       1.0  0.33300  0.54539  0.99829  1.0000 -0.538544163
O   O29       1.0  0.33300  0.95461  0.49829  1.0000 -0.538544163
O   O30       1.0  0.66700  0.04539  0.99829  1.0000 -0.538544163
O   O31       1.0  0.33300  0.54539  0.50171  1.0000 -0.538544163
O   O32       1.0  0.66700  0.45461  0.00171  1.0000 -0.538544163
O   O33       1.0  0.54510  0.05285  0.43992  1.0000 -0.5504815448
O   O34       1.0  0.45490  0.94715  0.93992  1.0000 -0.5504815448
O   O35       1.0  0.54510  0.44715  0.56008  1.0000 -0.5504815448
O   O36       1.0  0.45490  0.55285  0.06008  1.0000 -0.5504815448
O   O37       1.0  0.45490  0.94715  0.56008  1.0000 -0.5504815448
O   O38       1.0  0.54510  0.05285  0.06008  1.0000 -0.5504815448
O   O39       1.0  0.45490  0.55285  0.43992  1.0000 -0.5504815448
O   O40       1.0  0.54510  0.44715  0.93992  1.0000 -0.5504815448
O   O41       1.0  0.17190  0.22193  0.56042  1.0000 -0.2004759779
O   O42       1.0  0.82810  0.77807  0.06042  1.0000 -0.2004759779
O   O43       1.0  0.17190  0.27807  0.43958  1.0000 -0.2004759779
O   O44       1.0  0.82810  0.72193  0.93958  1.0000 -0.2004759779
O   O45       1.0  0.82810  0.77807  0.43958  1.0000 -0.2004759779
O   O46       1.0  0.17190  0.22193  0.93958  1.0000 -0.2004759779
O   O47       1.0  0.82810  0.72193  0.56042  1.0000 -0.2004759779
O   O48       1.0  0.17190  0.27807  0.06042  1.0000 -0.2004759779
O   O49       1.0  0.37410  0.06134  0.51063  1.0000 -0.5553328444
O   O50       1.0  0.62590  0.93866  0.01063  1.0000 -0.5504815448
O   O51       1.0  0.37410  0.43866  0.48937  1.0000 -0.5504815448
O   O52       1.0  0.62590  0.56134  0.98937  1.0000 -0.5504815448
O   O53       1.0  0.62590  0.93866  0.48937  1.0000 -0.5504815448
O   O54       1.0  0.37410  0.06134  0.98937  1.0000 -0.5504815448
O   O55       1.0  0.62590  0.56134  0.51063  1.0000 -0.5553328444
O   O56       1.0  0.37410  0.43866  0.01063  1.0000 -0.5504815448
O   O57       1.0  0.54410  0.19386  0.69576  1.0000 -0.538544163
O   O58       1.0  0.45590  0.80614  0.19576  1.0000 -0.538544163
O   O59       1.0  0.54410  0.30614  0.30424  1.0000 -0.538544163
O   O60       1.0  0.45590  0.69386  0.80424  1.0000 -0.538544163
O   O61       1.0  0.45590  0.80614  0.30424  1.0000 -0.538544163
O   O62       1.0  0.54410  0.19386  0.80424  1.0000 -0.538544163
O   O63       1.0  0.45590  0.69386  0.69576  1.0000 -0.538544163
O   O64       1.0  0.54410  0.30614  0.19576  1.0000 -0.538544163
O   O65       1.0  0.49780  0.05307  0.57177  1.0000 -0.538544163
O   O66       1.0  0.50220  0.94693  0.07177  1.0000 -0.538544163
O   O67       1.0  0.49780  0.44693  0.42823  1.0000 -0.538544163
O   O68       1.0  0.50220  0.55307  0.92823  1.0000 -0.538544163
O   O69       1.0  0.50220  0.94693  0.42823  1.0000 -0.538544163
O   O70       1.0  0.49780  0.05307  0.92823  1.0000 -0.538544163
O   O71       1.0  0.50220  0.55307  0.57177  1.0000 -0.538544163
O   O72       1.0  0.49780  0.44693  0.07177  1.0000 -0.538544163
O   O73       1.0  0.42390  0.25706  0.69632  1.0000 -0.5504815448
O   O74       1.0  0.57610  0.74294  0.19632  1.0000 -0.5504815448
O   O75       1.0  0.42390  0.24294  0.30368  1.0000 -0.5504815448
O   O76       1.0  0.57610  0.75706  0.80368  1.0000 -0.5504815448
O   O77       1.0  0.57610  0.74294  0.30368  1.0000 -0.5504815448
O   O78       1.0  0.42390  0.25706  0.80368  1.0000 -0.5504815448
O   O79       1.0  0.57610  0.75706  0.69632  1.0000 -0.5504815448
O   O80       1.0  0.42390  0.24294  0.19632  1.0000 -0.5504815448
