# DDEC6 charges by PACMAN v1.1 (https://github.com/mtap-research/PACMAN-charge/)
data_2012[Co][ncb]3[ASR]1
_chemical_formula_sum              "Co12 H72 C120 N12 O52"
_cell_length_a       18.9782
_cell_length_b       18.9782
_cell_length_c       18.9782
_cell_angle_alpha    109.471
_cell_angle_beta     109.471
_cell_angle_gamma    109.471

_symmetry_space_group_name_H-M    "P 1"
_symmetry_Int_Tables_number       1

loop_
  _symmetry_equiv_pos_as_xyz
  'x, y, z'

loop_
  _atom_site_type_symbol
  _atom_site_label
  _atom_site_symmetry_multiplicity
  _atom_site_fract_x
  _atom_site_fract_y
  _atom_site_fract_z
  _atom_site_occupancy
  _atom_site_charge
Co  Co1       1.0  0.11385  0.11385  0.46350  1.0000 1.0157059861
Co  Co2       1.0  0.65035  0.65035  0.53650  1.0000 1.0157059861
Co  Co3       1.0  0.34965  0.88615  0.00000  1.0000 1.0146112573
Co  Co4       1.0  0.88615  0.34965  0.00000  1.0000 1.0146112573
Co  Co5       1.0  0.46350  0.11385  0.11385  1.0000 1.0146112573
Co  Co6       1.0  0.53650  0.65035  0.65035  1.0000 1.0157059861
Co  Co7       1.0  0.00000  0.34965  0.88615  1.0000 1.0157059861
Co  Co8       1.0  0.00000  0.88615  0.34965  1.0000 1.0157059861
Co  Co9       1.0  0.11385  0.46350  0.11385  1.0000 1.0146112573
Co  Co10      1.0  0.65035  0.53650  0.65035  1.0000 1.0157059861
Co  Co11      1.0  0.88615  0.00000  0.34965  1.0000 1.0157059861
Co  Co12      1.0  0.34965  0.00000  0.88615  1.0000 1.0157059861
H   H1        1.0  0.12310  0.36200  0.81430  1.0000 0.1106491049
H   H2        1.0  0.54770  0.30880  0.18570  1.0000 0.1106491049
H   H3        1.0  0.45230  0.63800  0.76110  1.0000 0.1106491049
H   H4        1.0  0.87690  0.69120  0.23890  1.0000 0.1106491049
H   H5        1.0  0.81430  0.12310  0.36200  1.0000 0.1106491049
H   H6        1.0  0.18570  0.54770  0.30880  1.0000 0.1106491049
H   H7        1.0  0.76110  0.45230  0.63800  1.0000 0.1106491049
H   H8        1.0  0.23890  0.87690  0.69120  1.0000 0.1106491049
H   H9        1.0  0.36200  0.81430  0.12310  1.0000 0.1106491049
H   H10       1.0  0.30880  0.18570  0.54770  1.0000 0.1106491049
H   H11       1.0  0.63800  0.76110  0.45230  1.0000 0.1106491049
H   H12       1.0  0.69120  0.23890  0.87690  1.0000 0.1106491049
H   H13       1.0  0.36200  0.12310  0.81430  1.0000 0.1106491049
H   H14       1.0  0.30880  0.54770  0.18570  1.0000 0.1106491049
H   H15       1.0  0.63800  0.45230  0.76110  1.0000 0.1106491049
H   H16       1.0  0.69120  0.87690  0.23890  1.0000 0.1106491049
H   H17       1.0  0.12310  0.81430  0.36200  1.0000 0.1106491049
H   H18       1.0  0.54770  0.18570  0.30880  1.0000 0.1106491049
H   H19       1.0  0.45230  0.76110  0.63800  1.0000 0.1106491049
H   H20       1.0  0.87690  0.23890  0.69120  1.0000 0.1106491049
H   H21       1.0  0.81430  0.36200  0.12310  1.0000 0.1106491049
H   H22       1.0  0.18570  0.30880  0.54770  1.0000 0.1106491049
H   H23       1.0  0.76110  0.63800  0.45230  1.0000 0.1106491049
H   H24       1.0  0.23890  0.69120  0.87690  1.0000 0.1106491049
H   H25       1.0  0.87240  0.15060  0.22620  1.0000 0.1168242352
H   H26       1.0  0.92440  0.64620  0.77380  1.0000 0.1168242352
H   H27       1.0  0.07560  0.84940  0.72180  1.0000 0.1168242352
H   H28       1.0  0.12760  0.35380  0.27820  1.0000 0.1168242352
H   H29       1.0  0.22620  0.87240  0.15060  1.0000 0.1168242352
H   H30       1.0  0.77380  0.92440  0.64620  1.0000 0.1168242352
H   H31       1.0  0.72180  0.07560  0.84940  1.0000 0.1168242352
H   H32       1.0  0.27820  0.12760  0.35380  1.0000 0.1168242352
H   H33       1.0  0.15060  0.22620  0.87240  1.0000 0.1168242352
H   H34       1.0  0.64620  0.77380  0.92440  1.0000 0.1168242352
H   H35       1.0  0.84940  0.72180  0.07560  1.0000 0.1168242352
H   H36       1.0  0.35380  0.27820  0.12760  1.0000 0.1168242352
H   H37       1.0  0.15060  0.87240  0.22620  1.0000 0.1168242352
H   H38       1.0  0.64620  0.92440  0.77380  1.0000 0.1168242352
H   H39       1.0  0.84940  0.07560  0.72180  1.0000 0.1168242352
H   H40       1.0  0.35380  0.12760  0.27820  1.0000 0.1168242352
H   H41       1.0  0.87240  0.22620  0.15060  1.0000 0.1168242352
H   H42       1.0  0.92440  0.77380  0.64620  1.0000 0.1168242352
H   H43       1.0  0.07560  0.72180  0.84940  1.0000 0.1168242352
H   H44       1.0  0.12760  0.27820  0.35380  1.0000 0.1168242352
H   H45       1.0  0.22620  0.15060  0.87240  1.0000 0.1168242352
H   H46       1.0  0.77380  0.64620  0.92440  1.0000 0.1168242352
H   H47       1.0  0.72180  0.84940  0.07560  1.0000 0.1168242352
H   H48       1.0  0.27820  0.35380  0.12760  1.0000 0.1168242352
H   H49       1.0  0.12680  0.28840  0.69100  1.0000 0.1354617161
H   H50       1.0  0.59740  0.43580  0.30900  1.0000 0.1354617161
H   H51       1.0  0.40260  0.71160  0.83840  1.0000 0.1354617161
H   H52       1.0  0.87320  0.56420  0.16160  1.0000 0.1354617161
H   H53       1.0  0.69100  0.12680  0.28840  1.0000 0.1354617161
H   H54       1.0  0.30900  0.59740  0.43580  1.0000 0.1354617161
H   H55       1.0  0.83840  0.40260  0.71160  1.0000 0.1354617161
H   H56       1.0  0.16160  0.87320  0.56420  1.0000 0.1354617161
H   H57       1.0  0.28840  0.69100  0.12680  1.0000 0.1354617161
H   H58       1.0  0.43580  0.30900  0.59740  1.0000 0.1354617161
H   H59       1.0  0.71160  0.83840  0.40260  1.0000 0.1354617161
H   H60       1.0  0.56420  0.16160  0.87320  1.0000 0.1354617161
H   H61       1.0  0.28840  0.12680  0.69100  1.0000 0.1354617161
H   H62       1.0  0.43580  0.59740  0.30900  1.0000 0.1354617161
H   H63       1.0  0.71160  0.40260  0.83840  1.0000 0.1354617161
H   H64       1.0  0.56420  0.87320  0.16160  1.0000 0.1354617161
H   H65       1.0  0.12680  0.69100  0.28840  1.0000 0.1354617161
H   H66       1.0  0.59740  0.30900  0.43580  1.0000 0.1354617161
H   H67       1.0  0.40260  0.83840  0.71160  1.0000 0.1354617161
H   H68       1.0  0.87320  0.16160  0.56420  1.0000 0.1354617161
H   H69       1.0  0.69100  0.28840  0.12680  1.0000 0.1354617161
H   H70       1.0  0.30900  0.43580  0.59740  1.0000 0.1354617161
H   H71       1.0  0.83840  0.71160  0.40260  1.0000 0.1354617161
H   H72       1.0  0.16160  0.56420  0.87320  1.0000 0.1354617161
C   C1        1.0  0.07140  0.31860  0.76400  1.0000 0.1008583938
C   C2        1.0  0.55460  0.30740  0.23600  1.0000 0.1008583938
C   C3        1.0  0.44540  0.68140  0.75280  1.0000 0.1008583938
C   C4        1.0  0.92860  0.69260  0.24720  1.0000 0.1008583938
C   C5        1.0  0.76400  0.07140  0.31860  1.0000 0.1008583938
C   C6        1.0  0.23600  0.55460  0.30740  1.0000 0.1008583938
C   C7        1.0  0.75280  0.44540  0.68140  1.0000 0.1008583938
C   C8        1.0  0.24720  0.92860  0.69260  1.0000 0.1008583938
C   C9        1.0  0.31860  0.76400  0.07140  1.0000 0.1008583938
C   C10       1.0  0.30740  0.23600  0.55460  1.0000 0.1008583938
C   C11       1.0  0.68140  0.75280  0.44540  1.0000 0.1008583938
C   C12       1.0  0.69260  0.24720  0.92860  1.0000 0.1008583938
C   C13       1.0  0.31860  0.07140  0.76400  1.0000 0.1008583938
C   C14       1.0  0.30740  0.55460  0.23600  1.0000 0.1008583938
C   C15       1.0  0.68140  0.44540  0.75280  1.0000 0.1008583938
C   C16       1.0  0.69260  0.92860  0.24720  1.0000 0.1008583938
C   C17       1.0  0.07140  0.76400  0.31860  1.0000 0.1008583938
C   C18       1.0  0.55460  0.23600  0.30740  1.0000 0.1008583938
C   C19       1.0  0.44540  0.75280  0.68140  1.0000 0.1008583938
C   C20       1.0  0.92860  0.24720  0.69260  1.0000 0.1008583938
C   C21       1.0  0.76400  0.31860  0.07140  1.0000 0.1008583938
C   C22       1.0  0.23600  0.30740  0.55460  1.0000 0.1008583938
C   C23       1.0  0.75280  0.68140  0.44540  1.0000 0.1008583938
C   C24       1.0  0.24720  0.69260  0.92860  1.0000 0.1008583938
C   C25       1.0  0.00000  0.14990  0.33610  1.0000 0.589187218
C   C26       1.0  0.81380  0.66390  0.66390  1.0000 0.589187218
C   C27       1.0  0.18620  0.85010  0.85010  1.0000 0.589187218
C   C28       1.0  0.00000  0.33610  0.14990  1.0000 0.589187218
C   C29       1.0  0.33610  0.00000  0.14990  1.0000 0.589187218
C   C30       1.0  0.66390  0.81380  0.66390  1.0000 0.589187218
C   C31       1.0  0.85010  0.18620  0.85010  1.0000 0.589187218
C   C32       1.0  0.14990  0.00000  0.33610  1.0000 0.589187218
C   C33       1.0  0.14990  0.33610  0.00000  1.0000 0.589187218
C   C34       1.0  0.66390  0.66390  0.81380  1.0000 0.589187218
C   C35       1.0  0.85010  0.85010  0.18620  1.0000 0.589187218
C   C36       1.0  0.33610  0.14990  0.00000  1.0000 0.589187218
C   C37       1.0  0.00000  0.20150  0.29230  1.0000 -0.0267727557
C   C38       1.0  0.90920  0.70770  0.70770  1.0000 -0.0267727557
C   C39       1.0  0.09080  0.79850  0.79850  1.0000 -0.0267727557
C   C40       1.0  0.00000  0.29230  0.20150  1.0000 -0.0267727557
C   C41       1.0  0.29230  0.00000  0.20150  1.0000 -0.0267727557
C   C42       1.0  0.70770  0.90920  0.70770  1.0000 -0.0267727557
C   C43       1.0  0.79850  0.09080  0.79850  1.0000 -0.0267727557
C   C44       1.0  0.20150  0.00000  0.29230  1.0000 -0.0267727557
C   C45       1.0  0.20150  0.29230  0.00000  1.0000 -0.0267727557
C   C46       1.0  0.70770  0.70770  0.90920  1.0000 -0.0267727557
C   C47       1.0  0.79850  0.79850  0.09080  1.0000 -0.0267727557
C   C48       1.0  0.29230  0.20150  0.00000  1.0000 -0.0267727557
C   C49       1.0  0.00000  0.15720  0.53800  1.0000 0.5962154698
C   C50       1.0  0.61920  0.46200  0.46200  1.0000 0.5962154698
C   C51       1.0  0.38080  0.84280  0.84280  1.0000 0.5962154698
C   C52       1.0  0.00000  0.53800  0.15720  1.0000 0.5962154698
C   C53       1.0  0.53800  0.00000  0.15720  1.0000 0.5962154698
C   C54       1.0  0.46200  0.61920  0.46200  1.0000 0.5962154698
C   C55       1.0  0.84280  0.38080  0.84280  1.0000 0.5962154698
C   C56       1.0  0.15720  0.00000  0.53800  1.0000 0.5962154698
C   C57       1.0  0.15720  0.53800  0.00000  1.0000 0.5962154698
C   C58       1.0  0.46200  0.46200  0.61920  1.0000 0.5962154698
C   C59       1.0  0.84280  0.84280  0.38080  1.0000 0.5962154698
C   C60       1.0  0.53800  0.15720  0.00000  1.0000 0.5962154698
C   C61       1.0  0.92450  0.18940  0.23530  1.0000 -0.0948177817
C   C62       1.0  0.95410  0.68920  0.76470  1.0000 -0.0948177817
C   C63       1.0  0.04590  0.81060  0.73510  1.0000 -0.095190348
C   C64       1.0  0.07550  0.31080  0.26490  1.0000 -0.0948177817
C   C65       1.0  0.23530  0.92450  0.18940  1.0000 -0.095190348
C   C66       1.0  0.76470  0.95410  0.68920  1.0000 -0.095190348
C   C67       1.0  0.73510  0.04590  0.81060  1.0000 -0.0948177817
C   C68       1.0  0.26490  0.07550  0.31080  1.0000 -0.095190348
C   C69       1.0  0.18940  0.23530  0.92450  1.0000 -0.095190348
C   C70       1.0  0.68920  0.76470  0.95410  1.0000 -0.0948177817
C   C71       1.0  0.81060  0.73510  0.04590  1.0000 -0.095190348
C   C72       1.0  0.31080  0.26490  0.07550  1.0000 -0.0948177817
C   C73       1.0  0.18940  0.92450  0.23530  1.0000 -0.0948177817
C   C74       1.0  0.68920  0.95410  0.76470  1.0000 -0.095190348
C   C75       1.0  0.81060  0.04590  0.73510  1.0000 -0.0948177817
C   C76       1.0  0.31080  0.07550  0.26490  1.0000 -0.095190348
C   C77       1.0  0.92450  0.23530  0.18940  1.0000 -0.0948177817
C   C78       1.0  0.95410  0.76470  0.68920  1.0000 -0.0948177817
C   C79       1.0  0.04590  0.73510  0.81060  1.0000 -0.0948177817
C   C80       1.0  0.07550  0.26490  0.31080  1.0000 -0.095190348
C   C81       1.0  0.23530  0.18940  0.92450  1.0000 -0.095190348
C   C82       1.0  0.76470  0.68920  0.95410  1.0000 -0.0948177817
C   C83       1.0  0.73510  0.81060  0.04590  1.0000 -0.095190348
C   C84       1.0  0.26490  0.31080  0.07550  1.0000 -0.0948177817
C   C85       1.0  0.07430  0.27450  0.68960  1.0000 -0.1537361845
C   C86       1.0  0.58490  0.38470  0.31040  1.0000 -0.1537361845
C   C87       1.0  0.41510  0.72550  0.79980  1.0000 -0.1537361845
C   C88       1.0  0.92570  0.61530  0.20020  1.0000 -0.1537361845
C   C89       1.0  0.68960  0.07430  0.27450  1.0000 -0.1537361845
C   C90       1.0  0.31040  0.58490  0.38470  1.0000 -0.1537361845
C   C91       1.0  0.79980  0.41510  0.72550  1.0000 -0.1537361845
C   C92       1.0  0.20020  0.92570  0.61530  1.0000 -0.1537361845
C   C93       1.0  0.27450  0.68960  0.07430  1.0000 -0.1537361845
C   C94       1.0  0.38470  0.31040  0.58490  1.0000 -0.1537361845
C   C95       1.0  0.72550  0.79980  0.41510  1.0000 -0.1537361845
C   C96       1.0  0.61530  0.20020  0.92570  1.0000 -0.1537361845
C   C97       1.0  0.27450  0.07430  0.68960  1.0000 -0.1537361845
C   C98       1.0  0.38470  0.58490  0.31040  1.0000 -0.1537361845
C   C99       1.0  0.72550  0.41510  0.79980  1.0000 -0.1537361845
C   C100      1.0  0.61530  0.92570  0.20020  1.0000 -0.1537361845
C   C101      1.0  0.07430  0.68960  0.27450  1.0000 -0.1537361845
C   C102      1.0  0.58490  0.31040  0.38470  1.0000 -0.1537361845
C   C103      1.0  0.41510  0.79980  0.72550  1.0000 -0.1537361845
C   C104      1.0  0.92570  0.20020  0.61530  1.0000 -0.1537361845
C   C105      1.0  0.68960  0.27450  0.07430  1.0000 -0.1537361845
C   C106      1.0  0.31040  0.38470  0.58490  1.0000 -0.1537361845
C   C107      1.0  0.79980  0.72550  0.41510  1.0000 -0.1537361845
C   C108      1.0  0.20020  0.61530  0.92570  1.0000 -0.1537361845
C   C109      1.0  0.00000  0.21230  0.61690  1.0000 0.0271756253
C   C110      1.0  0.59540  0.38310  0.38310  1.0000 0.0271756253
C   C111      1.0  0.40460  0.78770  0.78770  1.0000 0.0271756253
C   C112      1.0  0.00000  0.61690  0.21230  1.0000 0.0271756253
C   C113      1.0  0.61690  0.00000  0.21230  1.0000 0.0271756253
C   C114      1.0  0.38310  0.59540  0.38310  1.0000 0.0271756253
C   C115      1.0  0.78770  0.40460  0.78770  1.0000 0.0271756253
C   C116      1.0  0.21230  0.00000  0.61690  1.0000 0.0271756253
C   C117      1.0  0.21230  0.61690  0.00000  1.0000 0.0271756253
C   C118      1.0  0.38310  0.38310  0.59540  1.0000 0.0271756253
C   C119      1.0  0.78770  0.78770  0.40460  1.0000 0.0271756253
C   C120      1.0  0.61690  0.21230  0.00000  1.0000 0.0271756253
N   N1        1.0  0.23450  0.23450  0.53600  1.0000 -0.2197569924
N   N2        1.0  0.69850  0.69850  0.46400  1.0000 -0.2197569924
N   N3        1.0  0.30150  0.76550  0.00000  1.0000 -0.2197569924
N   N4        1.0  0.76550  0.30150  0.00000  1.0000 -0.2197569924
N   N5        1.0  0.53600  0.23450  0.23450  1.0000 -0.2197569924
N   N6        1.0  0.46400  0.69850  0.69850  1.0000 -0.2197569924
N   N7        1.0  0.00000  0.30150  0.76550  1.0000 -0.2197569924
N   N8        1.0  0.00000  0.76550  0.30150  1.0000 -0.2197569924
N   N9        1.0  0.23450  0.53600  0.23450  1.0000 -0.2197569924
N   N10       1.0  0.69850  0.46400  0.69850  1.0000 -0.2197569924
N   N11       1.0  0.76550  0.00000  0.30150  1.0000 -0.2197569924
N   N12       1.0  0.30150  0.00000  0.76550  1.0000 -0.2197569924
O   O1        1.0  0.07400  0.17210  0.54650  1.0000 -0.5495361356
O   O2        1.0  0.62560  0.52750  0.45350  1.0000 -0.5495361356
O   O3        1.0  0.37440  0.82790  0.90190  1.0000 -0.5495361356
O   O4        1.0  0.92600  0.47250  0.09810  1.0000 -0.5495361356
O   O5        1.0  0.54650  0.07400  0.17210  1.0000 -0.5495361356
O   O6        1.0  0.45350  0.62560  0.52750  1.0000 -0.5495361356
O   O7        1.0  0.90190  0.37440  0.82790  1.0000 -0.5495361356
O   O8        1.0  0.09810  0.92600  0.47250  1.0000 -0.5495361356
O   O9        1.0  0.17210  0.54650  0.07400  1.0000 -0.5495361356
O   O10       1.0  0.52750  0.45350  0.62560  1.0000 -0.5495361356
O   O11       1.0  0.82790  0.90190  0.37440  1.0000 -0.5495361356
O   O12       1.0  0.47250  0.09810  0.92600  1.0000 -0.5495361356
O   O13       1.0  0.17210  0.07400  0.54650  1.0000 -0.5495361356
O   O14       1.0  0.52750  0.62560  0.45350  1.0000 -0.5495361356
O   O15       1.0  0.82790  0.37440  0.90190  1.0000 -0.5495361356
O   O16       1.0  0.47250  0.92600  0.09810  1.0000 -0.5495361356
O   O17       1.0  0.07400  0.54650  0.17210  1.0000 -0.5495361356
O   O18       1.0  0.62560  0.45350  0.52750  1.0000 -0.5495361356
O   O19       1.0  0.37440  0.90190  0.82790  1.0000 -0.5495361356
O   O20       1.0  0.92600  0.09810  0.47250  1.0000 -0.5495361356
O   O21       1.0  0.54650  0.17210  0.07400  1.0000 -0.5495361356
O   O22       1.0  0.45350  0.52750  0.62560  1.0000 -0.5495361356
O   O23       1.0  0.90190  0.82790  0.37440  1.0000 -0.5495361356
O   O24       1.0  0.09810  0.47250  0.92600  1.0000 -0.5495361356
O   O25       1.0  0.00000  0.00000  0.40320  1.0000 -0.7876297104
O   O26       1.0  0.59680  0.59680  0.59680  1.0000 -0.7876297104
O   O27       1.0  0.40320  0.00000  0.00000  1.0000 -0.7876297104
O   O28       1.0  0.00000  0.40320  0.00000  1.0000 -0.7876297104
O   O29       1.0  0.07090  0.16420  0.38690  1.0000 -0.5247675645
O   O30       1.0  0.77730  0.68400  0.61310  1.0000 -0.5252193081
O   O31       1.0  0.22270  0.83580  0.90670  1.0000 -0.5247675645
O   O32       1.0  0.92910  0.31600  0.09330  1.0000 -0.5247675645
O   O33       1.0  0.38690  0.07090  0.16420  1.0000 -0.5247675645
O   O34       1.0  0.61310  0.77730  0.68400  1.0000 -0.5247675645
O   O35       1.0  0.90670  0.22270  0.83580  1.0000 -0.5247675645
O   O36       1.0  0.09330  0.92910  0.31600  1.0000 -0.5252193081
O   O37       1.0  0.16420  0.38690  0.07090  1.0000 -0.5247675645
O   O38       1.0  0.68400  0.61310  0.77730  1.0000 -0.5252193081
O   O39       1.0  0.83580  0.90670  0.22270  1.0000 -0.5252193081
O   O40       1.0  0.31600  0.09330  0.92910  1.0000 -0.5247675645
O   O41       1.0  0.16420  0.07090  0.38690  1.0000 -0.5247675645
O   O42       1.0  0.68400  0.77730  0.61310  1.0000 -0.5252193081
O   O43       1.0  0.83580  0.22270  0.90670  1.0000 -0.5252193081
O   O44       1.0  0.31600  0.92910  0.09330  1.0000 -0.5252193081
O   O45       1.0  0.07090  0.38690  0.16420  1.0000 -0.5247675645
O   O46       1.0  0.77730  0.61310  0.68400  1.0000 -0.5247675645
O   O47       1.0  0.22270  0.90670  0.83580  1.0000 -0.5252193081
O   O48       1.0  0.92910  0.09330  0.31600  1.0000 -0.5247675645
O   O49       1.0  0.38690  0.16420  0.07090  1.0000 -0.5247675645
O   O50       1.0  0.61310  0.68400  0.77730  1.0000 -0.5252193081
O   O51       1.0  0.90670  0.83580  0.22270  1.0000 -0.5252193081
O   O52       1.0  0.09330  0.31600  0.92910  1.0000 -0.5247675645
