# DDEC6 charges by PACMAN v1.1 (https://github.com/mtap-research/PACMAN-charge/)
data_2013[Ni][hex]3[ASR]1
_chemical_formula_sum              "Ni14 H64 C96 N8 O48"
_cell_length_a       12.988
_cell_length_b       13.722
_cell_length_c       19.73
_cell_angle_alpha    90
_cell_angle_beta     90
_cell_angle_gamma    90

_symmetry_space_group_name_H-M    "P 1"
_symmetry_Int_Tables_number       1

loop_
  _symmetry_equiv_pos_as_xyz
  'x, y, z'

loop_
  _atom_site_type_symbol
  _atom_site_label
  _atom_site_symmetry_multiplicity
  _atom_site_fract_x
  _atom_site_fract_y
  _atom_site_fract_z
  _atom_site_occupancy
  _atom_site_charge
Ni  Ni1       1.0  0.03623  0.50000  0.00000  1.0000 1.0443951692
Ni  Ni2       1.0  0.03623  0.00000  0.50000  1.0000 1.0443951692
Ni  Ni3       1.0  0.11406  0.70094  0.90224  1.0000 0.8792239632
Ni  Ni4       1.0  0.11406  0.29906  0.09776  1.0000 0.8792239632
Ni  Ni5       1.0  0.11406  0.20094  0.59776  1.0000 0.8792239632
Ni  Ni6       1.0  0.11406  0.79906  0.40224  1.0000 0.8792239632
Ni  Ni7       1.0  0.29301  0.60226  0.97401  1.0000 0.982604852
Ni  Ni8       1.0  0.29301  0.39774  0.02599  1.0000 0.982604852
Ni  Ni9       1.0  0.29301  0.10226  0.52599  1.0000 0.982604852
Ni  Ni10      1.0  0.29301  0.89774  0.47401  1.0000 0.982604852
Ni  Ni11      1.0  0.43914  0.52400  0.11487  1.0000 0.8627505209
Ni  Ni12      1.0  0.43914  0.47600  0.88513  1.0000 0.8627505209
Ni  Ni13      1.0  0.43914  0.02400  0.38513  1.0000 0.8627505209
Ni  Ni14      1.0  0.43914  0.97600  0.61487  1.0000 0.8627505209
H   H1        1.0  0.51830  0.74830  0.89040  1.0000 0.1104551353
H   H2        1.0  0.51830  0.25170  0.10960  1.0000 0.1104551353
H   H3        1.0  0.51830  0.24830  0.60960  1.0000 0.1104551353
H   H4        1.0  0.51830  0.75170  0.39040  1.0000 0.1104551353
H   H5        1.0  0.64980  0.82970  0.83490  1.0000 0.1104551353
H   H6        1.0  0.64980  0.17030  0.16510  1.0000 0.1104551353
H   H7        1.0  0.64980  0.32970  0.66510  1.0000 0.1104551353
H   H8        1.0  0.64980  0.67030  0.33490  1.0000 0.1104551353
H   H9        1.0  0.81970  0.79900  0.86380  1.0000 0.1197815264
H   H10       1.0  0.81970  0.20100  0.13620  1.0000 0.1197815264
H   H11       1.0  0.81970  0.29900  0.63620  1.0000 0.1197815264
H   H12       1.0  0.81970  0.70100  0.36380  1.0000 0.1197815264
H   H13       1.0  0.72430  0.61100  0.00630  1.0000 0.1399153461
H   H14       1.0  0.72430  0.38900  0.99370  1.0000 0.1399153461
H   H15       1.0  0.72430  0.11100  0.49370  1.0000 0.1399153461
H   H16       1.0  0.72430  0.88900  0.50630  1.0000 0.1399153461
H   H17       1.0  0.54470  0.00000  0.00000  1.0000 0.1197815264
H   H18       1.0  0.54470  0.50000  0.50000  1.0000 0.1197815264
H   H19       1.0  0.45400  0.85510  0.00170  1.0000 0.1197815264
H   H20       1.0  0.45400  0.14490  0.99830  1.0000 0.1197815264
H   H21       1.0  0.45400  0.35510  0.49830  1.0000 0.1197815264
H   H22       1.0  0.45400  0.64490  0.50170  1.0000 0.1197815264
H   H23       1.0  0.18620  0.00000  0.00000  1.0000 0.1307717022
H   H24       1.0  0.18620  0.50000  0.50000  1.0000 0.1307717022
H   H25       1.0  0.38720  0.76240  0.61740  1.0000 0.1197815264
H   H26       1.0  0.38720  0.23760  0.38260  1.0000 0.1197815264
H   H27       1.0  0.38720  0.26240  0.88260  1.0000 0.1197815264
H   H28       1.0  0.38720  0.73760  0.11740  1.0000 0.1197815264
H   H29       1.0  0.34360  0.64100  0.69350  1.0000 0.1399153461
H   H30       1.0  0.34360  0.35900  0.30650  1.0000 0.1399153461
H   H31       1.0  0.34360  0.14100  0.80650  1.0000 0.1399153461
H   H32       1.0  0.34360  0.85900  0.19350  1.0000 0.1399153461
H   H33       1.0  0.35280  0.84040  0.84110  1.0000 0.1399153461
H   H34       1.0  0.35280  0.15960  0.15890  1.0000 0.1399153461
H   H35       1.0  0.35280  0.34040  0.65890  1.0000 0.1399153461
H   H36       1.0  0.35280  0.65960  0.34110  1.0000 0.1399153461
H   H37       1.0  0.41090  0.95150  0.76350  1.0000 0.1104551353
H   H38       1.0  0.41090  0.04850  0.23650  1.0000 0.1104551353
H   H39       1.0  0.41090  0.45150  0.73650  1.0000 0.1104551353
H   H40       1.0  0.41090  0.54850  0.26350  1.0000 0.1104551353
H   H41       1.0  0.08000  0.79740  0.25140  1.0000 0.1104551353
H   H42       1.0  0.08000  0.20260  0.74860  1.0000 0.1104551353
H   H43       1.0  0.08000  0.29740  0.24860  1.0000 0.1104551353
H   H44       1.0  0.08000  0.70260  0.75140  1.0000 0.1104551353
H   H45       1.0  0.06630  0.69500  0.16200  1.0000 0.1459338869
H   H46       1.0  0.06630  0.30500  0.83800  1.0000 0.1459338869
H   H47       1.0  0.06630  0.19500  0.33800  1.0000 0.1459338869
H   H48       1.0  0.06630  0.80500  0.66200  1.0000 0.1459338869
H   H49       1.0  0.09610  0.47220  0.28750  1.0000 0.1399153461
H   H50       1.0  0.09610  0.52780  0.71250  1.0000 0.1399153461
H   H51       1.0  0.09610  0.97220  0.21250  1.0000 0.1399153461
H   H52       1.0  0.09610  0.02780  0.78750  1.0000 0.1399153461
H   H53       1.0  0.11720  0.58240  0.37270  1.0000 0.1104551353
H   H54       1.0  0.11720  0.41760  0.62730  1.0000 0.1104551353
H   H55       1.0  0.11720  0.08240  0.12730  1.0000 0.1104551353
H   H56       1.0  0.11720  0.91760  0.87270  1.0000 0.1104551353
H   H57       1.0  0.12820  0.65290  0.02030  1.0000 0.3722740393
H   H58       1.0  0.12820  0.34710  0.97970  1.0000 0.3722740393
H   H59       1.0  0.12820  0.15290  0.47970  1.0000 0.3722740393
H   H60       1.0  0.12820  0.84710  0.52030  1.0000 0.3722740393
H   H61       1.0  0.24720  0.55300  0.09470  1.0000 0.3722740393
H   H62       1.0  0.24720  0.44700  0.90530  1.0000 0.3722740393
H   H63       1.0  0.24720  0.05300  0.40530  1.0000 0.3722740393
H   H64       1.0  0.24720  0.94700  0.59470  1.0000 0.3722740393
C   C1        1.0  0.52310  0.62460  0.99160  1.0000 0.5934905764
C   C2        1.0  0.52310  0.37540  0.00840  1.0000 0.5934905764
C   C3        1.0  0.52310  0.12460  0.50840  1.0000 0.5934905764
C   C4        1.0  0.52310  0.87540  0.49160  1.0000 0.5934905764
C   C5        1.0  0.90080  0.67320  0.95080  1.0000 0.5765797592
C   C6        1.0  0.90080  0.32680  0.04920  1.0000 0.5765797592
C   C7        1.0  0.90080  0.17320  0.54920  1.0000 0.5765797592
C   C8        1.0  0.90080  0.82680  0.45080  1.0000 0.574602982
C   C9        1.0  0.61010  0.67490  0.95690  1.0000 -0.0358512755
C   C10       1.0  0.61010  0.32510  0.04310  1.0000 -0.0358512755
C   C11       1.0  0.61010  0.17490  0.54310  1.0000 -0.0358512755
C   C12       1.0  0.61010  0.82510  0.45690  1.0000 -0.0358512755
C   C13       1.0  0.58640  0.73830  0.90310  1.0000 -0.1243666653
C   C14       1.0  0.58640  0.26170  0.09690  1.0000 -0.1243666653
C   C15       1.0  0.58640  0.23830  0.59690  1.0000 -0.1243666653
C   C16       1.0  0.58640  0.76170  0.40310  1.0000 -0.1243666653
C   C17       1.0  0.66500  0.78560  0.86930  1.0000 -0.1100545255
C   C18       1.0  0.66500  0.21440  0.13070  1.0000 -0.1100545255
C   C19       1.0  0.66500  0.28560  0.63070  1.0000 -0.1100545255
C   C20       1.0  0.66500  0.71440  0.36930  1.0000 -0.1100545255
C   C21       1.0  0.76690  0.76730  0.88670  1.0000 -0.1003489372
C   C22       1.0  0.76690  0.23270  0.11330  1.0000 -0.1003489372
C   C23       1.0  0.76690  0.26730  0.61330  1.0000 -0.1003489372
C   C24       1.0  0.76690  0.73270  0.38670  1.0000 -0.1003489372
C   C25       1.0  0.79020  0.70190  0.93820  1.0000 -0.0115318867
C   C26       1.0  0.79020  0.29810  0.06180  1.0000 -0.0115318867
C   C27       1.0  0.79020  0.20190  0.56180  1.0000 -0.0115318867
C   C28       1.0  0.79020  0.79810  0.43820  1.0000 -0.0115318867
C   C29       1.0  0.70940  0.65580  0.97230  1.0000 -0.1003489372
C   C30       1.0  0.70940  0.34420  0.02770  1.0000 -0.1003489372
C   C31       1.0  0.70940  0.15580  0.52770  1.0000 -0.1100545255
C   C32       1.0  0.70940  0.84420  0.47230  1.0000 -0.1003489372
C   C33       1.0  0.25770  0.81580  0.99010  1.0000 0.5649361815
C   C34       1.0  0.25770  0.18420  0.00990  1.0000 0.5649361815
C   C35       1.0  0.25770  0.31580  0.50990  1.0000 0.5649361815
C   C36       1.0  0.25770  0.68420  0.49010  1.0000 0.5649361815
C   C37       1.0  0.47310  0.00000  0.00000  1.0000 -0.1003489372
C   C38       1.0  0.47310  0.50000  0.50000  1.0000 -0.1003489372
C   C39       1.0  0.41830  0.91380  0.99990  1.0000 -0.1100545255
C   C40       1.0  0.41830  0.08620  0.00010  1.0000 -0.1100545255
C   C41       1.0  0.41830  0.41380  0.50010  1.0000 -0.1100545255
C   C42       1.0  0.41830  0.58620  0.49990  1.0000 -0.1100545255
C   C43       1.0  0.31200  0.91210  0.99710  1.0000 -0.0273553189
C   C44       1.0  0.31200  0.08790  0.00290  1.0000 -0.0273553189
C   C45       1.0  0.31200  0.41210  0.50290  1.0000 -0.0273553189
C   C46       1.0  0.31200  0.58790  0.49710  1.0000 -0.0273553189
C   C47       1.0  0.25780  0.00000  0.00000  1.0000 -0.146847764
C   C48       1.0  0.25780  0.50000  0.50000  1.0000 -0.146847764
C   C49       1.0  0.32810  0.64870  0.82870  1.0000 0.5765797592
C   C50       1.0  0.32810  0.35130  0.17130  1.0000 0.5765797592
C   C51       1.0  0.32810  0.14870  0.67130  1.0000 0.5765797592
C   C52       1.0  0.32810  0.85130  0.32870  1.0000 0.5765797592
C   C53       1.0  0.38280  0.77740  0.66330  1.0000 0.0907186922
C   C54       1.0  0.38280  0.22260  0.33670  1.0000 0.0907186922
C   C55       1.0  0.38280  0.27740  0.83670  1.0000 0.0907186922
C   C56       1.0  0.38280  0.72260  0.16330  1.0000 0.0907186922
C   C57       1.0  0.35510  0.70430  0.70860  1.0000 -0.1603465881
C   C58       1.0  0.35510  0.29570  0.29140  1.0000 -0.1603465881
C   C59       1.0  0.35510  0.20430  0.79140  1.0000 -0.1603465881
C   C60       1.0  0.35510  0.79570  0.20860  1.0000 -0.1603465881
C   C61       1.0  0.34500  0.72720  0.77590  1.0000 0.0295642335
C   C62       1.0  0.34500  0.27280  0.22410  1.0000 0.0295642335
C   C63       1.0  0.34500  0.22720  0.72410  1.0000 0.0295642335
C   C64       1.0  0.34500  0.77280  0.27590  1.0000 0.0295642335
C   C65       1.0  0.36260  0.82210  0.79610  1.0000 -0.165238658
C   C66       1.0  0.36260  0.17790  0.20390  1.0000 -0.165238658
C   C67       1.0  0.36260  0.32210  0.70390  1.0000 -0.165238658
C   C68       1.0  0.36260  0.67790  0.29610  1.0000 -0.165238658
C   C69       1.0  0.39460  0.88890  0.74900  1.0000 0.0711932412
C   C70       1.0  0.39460  0.11110  0.25100  1.0000 0.0711932412
C   C71       1.0  0.39460  0.38890  0.75100  1.0000 0.0711932412
C   C72       1.0  0.39460  0.61110  0.24900  1.0000 0.0711932412
C   C73       1.0  0.06630  0.50340  0.15300  1.0000 0.5765797592
C   C74       1.0  0.06630  0.49660  0.84700  1.0000 0.5765797592
C   C75       1.0  0.06630  0.00340  0.34700  1.0000 0.5765797592
C   C76       1.0  0.06630  0.99660  0.65300  1.0000 0.5765797592
C   C77       1.0  0.08440  0.73070  0.25910  1.0000 0.0711932412
C   C78       1.0  0.08440  0.26930  0.74090  1.0000 0.0711932412
C   C79       1.0  0.08440  0.23070  0.24090  1.0000 0.0711932412
C   C80       1.0  0.08440  0.76930  0.75910  1.0000 0.0711932412
C   C81       1.0  0.07510  0.66900  0.20510  1.0000 -0.1783779506
C   C82       1.0  0.07510  0.33100  0.79490  1.0000 -0.1783779506
C   C83       1.0  0.07510  0.16900  0.29490  1.0000 -0.1783779506
C   C84       1.0  0.07510  0.83100  0.70510  1.0000 -0.1783779506
C   C85       1.0  0.07830  0.57050  0.21290  1.0000 0.0295642335
C   C86       1.0  0.07830  0.42950  0.78710  1.0000 0.0295642335
C   C87       1.0  0.07830  0.07050  0.28710  1.0000 0.0295642335
C   C88       1.0  0.07830  0.92950  0.71290  1.0000 0.0295642335
C   C89       1.0  0.09350  0.53860  0.27800  1.0000 -0.1783779506
C   C90       1.0  0.09350  0.46140  0.72200  1.0000 -0.1783779506
C   C91       1.0  0.09350  0.03860  0.22200  1.0000 -0.1783779506
C   C92       1.0  0.09350  0.96140  0.77800  1.0000 -0.1783779506
C   C93       1.0  0.10480  0.60580  0.32920  1.0000 0.0711932412
C   C94       1.0  0.10480  0.39420  0.67080  1.0000 0.0711932412
C   C95       1.0  0.10480  0.10580  0.17080  1.0000 0.0711932412
C   C96       1.0  0.10480  0.89420  0.82920  1.0000 0.0711932412
N   N1        1.0  0.40320  0.86790  0.68330  1.0000 -0.2270131316
N   N2        1.0  0.40320  0.13210  0.31670  1.0000 -0.2270131316
N   N3        1.0  0.40320  0.36790  0.81670  1.0000 -0.2270131316
N   N4        1.0  0.40320  0.63210  0.18330  1.0000 -0.2270131316
N   N5        1.0  0.09920  0.70040  0.32096  1.0000 -0.2128803748
N   N6        1.0  0.09920  0.29960  0.67904  1.0000 -0.2128803748
N   N7        1.0  0.09920  0.20040  0.17904  1.0000 -0.2128803748
N   N8        1.0  0.09920  0.79960  0.82096  1.0000 -0.2128803748
O   O1        1.0  0.44920  0.59510  0.95509  1.0000 -0.5598127861
O   O2        1.0  0.44920  0.40490  0.04491  1.0000 -0.5598127861
O   O3        1.0  0.44920  0.09510  0.54491  1.0000 -0.5598127861
O   O4        1.0  0.44920  0.90490  0.45509  1.0000 -0.5598127861
O   O5        1.0  0.52810  0.61380  0.05438  1.0000 -0.5247334633
O   O6        1.0  0.52810  0.38620  0.94562  1.0000 -0.5247334633
O   O7        1.0  0.52810  0.11380  0.44562  1.0000 -0.5247334633
O   O8        1.0  0.52810  0.88620  0.55438  1.0000 -0.5247334633
O   O9        1.0  0.96720  0.73060  0.92834  1.0000 -0.5477735791
O   O10       1.0  0.96720  0.26940  0.07166  1.0000 -0.5477735791
O   O11       1.0  0.96720  0.23060  0.57166  1.0000 -0.5477735791
O   O12       1.0  0.96720  0.76940  0.42834  1.0000 -0.5477735791
O   O13       1.0  0.91520  0.59650  0.98181  1.0000 -0.5325820763
O   O14       1.0  0.91520  0.40350  0.01819  1.0000 -0.5325820763
O   O15       1.0  0.91520  0.09650  0.51819  1.0000 -0.5325820763
O   O16       1.0  0.91520  0.90350  0.48181  1.0000 -0.5325820763
O   O17       1.0  0.17010  0.81490  0.96379  1.0000 -0.5419851486
O   O18       1.0  0.17010  0.18510  0.03621  1.0000 -0.5419851486
O   O19       1.0  0.17010  0.31490  0.53621  1.0000 -0.5419851486
O   O20       1.0  0.17010  0.68510  0.46379  1.0000 -0.5419851486
O   O21       1.0  0.30800  0.74190  0.00860  1.0000 -0.5598127861
O   O22       1.0  0.30800  0.25810  0.99140  1.0000 -0.5598127861
O   O23       1.0  0.30800  0.24190  0.49140  1.0000 -0.5598127861
O   O24       1.0  0.30800  0.75810  0.50860  1.0000 -0.5598127861
O   O25       1.0  0.27490  0.66940  0.87896  1.0000 -0.5419851486
O   O26       1.0  0.27490  0.33060  0.12104  1.0000 -0.5419851486
O   O27       1.0  0.27490  0.16940  0.62104  1.0000 -0.5419851486
O   O28       1.0  0.27490  0.83060  0.37896  1.0000 -0.5419851486
O   O29       1.0  0.37670  0.57280  0.81867  1.0000 -0.5325820763
O   O30       1.0  0.37670  0.42720  0.18133  1.0000 -0.5325820763
O   O31       1.0  0.37670  0.07280  0.68133  1.0000 -0.5325820763
O   O32       1.0  0.37670  0.92720  0.31867  1.0000 -0.5325820763
O   O33       1.0  0.04550  0.54460  0.09839  1.0000 -0.5325820763
O   O34       1.0  0.04550  0.45540  0.90161  1.0000 -0.5325820763
O   O35       1.0  0.04550  0.04460  0.40161  1.0000 -0.5325820763
O   O36       1.0  0.04550  0.95540  0.59839  1.0000 -0.5325820763
O   O37       1.0  0.07990  0.41470  0.16287  1.0000 -0.5325820763
O   O38       1.0  0.07990  0.58530  0.83713  1.0000 -0.5325820763
O   O39       1.0  0.07990  0.91470  0.33713  1.0000 -0.5325820763
O   O40       1.0  0.07990  0.08530  0.66287  1.0000 -0.5325820763
O   O41       1.0  0.13810  0.61000  0.98109  1.0000 -0.8661905173
O   O42       1.0  0.13810  0.39000  0.01891  1.0000 -0.8661905173
O   O43       1.0  0.13810  0.11000  0.51891  1.0000 -0.8661905173
O   O44       1.0  0.13810  0.89000  0.48109  1.0000 -0.8661905173
O   O45       1.0  0.30460  0.53663  0.06460  1.0000 -0.8441226576
O   O46       1.0  0.30460  0.46337  0.93540  1.0000 -0.8441226576
O   O47       1.0  0.30460  0.03663  0.43540  1.0000 -0.8441226576
O   O48       1.0  0.30460  0.96337  0.56460  1.0000 -0.8441226576
