# DDEC6 charges by PACMAN v1.1 (https://github.com/mtap-research/PACMAN-charge/)
data_2013[DyCu][nan]3[ASR]1
_chemical_formula_sum              "Dy2 Cu2 H16 C32 N10 O16"
_cell_length_a       10.6761
_cell_length_b       10.7356
_cell_length_c       11.9637
_cell_angle_alpha    69.991
_cell_angle_beta     77.562
_cell_angle_gamma    60.8412

_symmetry_space_group_name_H-M    "P 1"
_symmetry_Int_Tables_number       1

loop_
  _symmetry_equiv_pos_as_xyz
  'x, y, z'

loop_
  _atom_site_type_symbol
  _atom_site_label
  _atom_site_symmetry_multiplicity
  _atom_site_fract_x
  _atom_site_fract_y
  _atom_site_fract_z
  _atom_site_occupancy
  _atom_site_charge
Dy  Dy1       1.0  0.45137  0.00163  0.83855  1.0000 2.0335937682
Dy  Dy2       1.0  0.54863  0.99837  0.16145  1.0000 2.0335937682
Cu  Cu1       1.0  0.00000  0.00000  0.00000  1.0000 0.6598536912
Cu  Cu2       1.0  0.00000  0.00000  0.50000  1.0000 0.6294152681
H   H1        1.0  0.98940  0.72780  0.48530  1.0000 0.1205569748
H   H2        1.0  0.01060  0.27220  0.51470  1.0000 0.1205569748
H   H3        1.0  0.08870  0.47870  0.56990  1.0000 0.1380923222
H   H4        1.0  0.91130  0.52130  0.43010  1.0000 0.1380923222
H   H5        1.0  0.30740  0.52030  0.77300  1.0000 0.1380923222
H   H6        1.0  0.69260  0.47970  0.22700  1.0000 0.1380923222
H   H7        1.0  0.20810  0.76720  0.67910  1.0000 0.1116890591
H   H8        1.0  0.79190  0.23280  0.32090  1.0000 0.1116890591
H   H9        1.0  0.00050  0.28170  0.81520  1.0000 0.1205569748
H   H10       1.0  0.99950  0.71830  0.18480  1.0000 0.1205569748
H   H11       1.0  0.86720  0.53480  0.78030  1.0000 0.1380923222
H   H12       1.0  0.13280  0.46520  0.21970  1.0000 0.1380923222
H   H13       1.0  0.60520  0.46860  0.06500  1.0000 0.1380923222
H   H14       1.0  0.39480  0.53140  0.93500  1.0000 0.1380923222
H   H15       1.0  0.74430  0.21840  0.09440  1.0000 0.1116890591
H   H16       1.0  0.25570  0.78160  0.90560  1.0000 0.1116890591
C   C1        1.0  0.82220  0.02130  0.71680  1.0000 0.0502776522
C   C2        1.0  0.17780  0.97870  0.28320  1.0000 0.0502776522
C   C3        1.0  0.82840  0.01190  0.83610  1.0000 -0.0219317814
C   C4        1.0  0.17160  0.98810  0.16390  1.0000 -0.0219317814
C   C5        1.0  0.71740  0.03470  0.64320  1.0000 0.6198791209
C   C6        1.0  0.28260  0.96530  0.35680  1.0000 0.6198791209
C   C7        1.0  0.73440  0.99560  0.94380  1.0000 0.6294152681
C   C8        1.0  0.26560  0.00440  0.05620  1.0000 0.6294152681
C   C9        1.0  0.05580  0.68580  0.54280  1.0000 0.0796117726
C   C10       1.0  0.94420  0.31420  0.45720  1.0000 0.0796117726
C   C11       1.0  0.11440  0.53600  0.59450  1.0000 -0.1765294876
C   C12       1.0  0.88560  0.46400  0.40550  1.0000 -0.1765294876
C   C13       1.0  0.21180  0.46700  0.68330  1.0000 0.0413149241
C   C14       1.0  0.78820  0.53300  0.31670  1.0000 0.0413149241
C   C15       1.0  0.24400  0.55900  0.71400  1.0000 -0.1488657054
C   C16       1.0  0.75600  0.44100  0.28600  1.0000 -0.1488657054
C   C17       1.0  0.18300  0.70800  0.65670  1.0000 0.0724937562
C   C18       1.0  0.81700  0.29200  0.34330  1.0000 0.0724937562
C   C19       1.0  0.27670  0.30430  0.74590  1.0000 0.5485478583
C   C20       1.0  0.72330  0.69570  0.25410  1.0000 0.5485478583
C   C21       1.0  0.92230  0.32050  0.86660  1.0000 0.0796117726
C   C22       1.0  0.07770  0.67950  0.13340  1.0000 0.0796117726
C   C23       1.0  0.84200  0.47140  0.84510  1.0000 -0.1488657054
C   C24       1.0  0.15800  0.52860  0.15490  1.0000 -0.1488657054
C   C25       1.0  0.72400  0.52880  0.91980  1.0000 0.0502776522
C   C26       1.0  0.27600  0.47120  0.08020  1.0000 0.0502776522
C   C27       1.0  0.68590  0.43260  0.01470  1.0000 -0.1488657054
C   C28       1.0  0.31410  0.56740  0.98530  1.0000 -0.1488657054
C   C29       1.0  0.77010  0.28360  0.03190  1.0000 0.0922273491
C   C30       1.0  0.22990  0.71640  0.96810  1.0000 0.0922273491
C   C31       1.0  0.62860  0.69650  0.89180  1.0000 0.5578259174
C   C32       1.0  0.37140  0.30350  0.10820  1.0000 0.5578259174
N   N1        1.0  0.94060  0.02170  0.66280  1.0000 -0.2162533757
N   N2        1.0  0.05940  0.97830  0.33720  1.0000 -0.2162533757
N   N3        1.0  0.02090  0.02140  0.74020  1.0000 -0.0837147106
N   N4        1.0  0.97910  0.97860  0.25980  1.0000 -0.0837147106
N   N5        1.0  0.95290  0.00820  0.84470  1.0000 -0.1567021664
N   N6        1.0  0.04710  0.99180  0.15530  1.0000 -0.1567021664
N   N7        1.0  0.09070  0.77330  0.57190  1.0000 -0.199585015
N   N8        1.0  0.90930  0.22670  0.42810  1.0000 -0.199585015
N   N9        1.0  0.88770  0.22740  0.96300  1.0000 -0.199585015
N   N10       1.0  0.11230  0.77260  0.03700  1.0000 -0.199585015
O   O1        1.0  0.76440  0.00710  0.54420  1.0000 -0.5338943656
O   O2        1.0  0.23560  0.99290  0.45580  1.0000 -0.5338943656
O   O3        1.0  0.58590  0.07440  0.68510  1.0000 -0.6876460072
O   O4        1.0  0.41410  0.92560  0.31490  1.0000 -0.6876460072
O   O5        1.0  0.61740  0.99350  0.94500  1.0000 -0.6787443813
O   O6        1.0  0.38260  0.00650  0.05500  1.0000 -0.6787443813
O   O7        1.0  0.77860  0.98550  0.04190  1.0000 -0.6787443813
O   O8        1.0  0.22140  0.01450  0.95810  1.0000 -0.6787443813
O   O9        1.0  0.26280  0.21790  0.70630  1.0000 -0.6150137242
O   O10       1.0  0.73720  0.78210  0.29370  1.0000 -0.6094824728
O   O11       1.0  0.35460  0.25820  0.82900  1.0000 -0.579013234
O   O12       1.0  0.64540  0.74180  0.17100  1.0000 -0.579013234
O   O13       1.0  0.51250  0.74830  0.95540  1.0000 -0.6359010395
O   O14       1.0  0.48750  0.25170  0.04460  1.0000 -0.6359010395
O   O15       1.0  0.66650  0.78170  0.80790  1.0000 -0.6094824728
O   O16       1.0  0.33350  0.21830  0.19210  1.0000 -0.6094824728
