# DDEC6 charges by PACMAN v1.1 (https://github.com/mtap-research/PACMAN-charge/)
data_2013[Zn][idp]3[ASR]1
_chemical_formula_sum              "Zn18 H36 C108 O76"
_cell_length_a       20.3949
_cell_length_b       20.3949
_cell_length_c       20.3949
_cell_angle_alpha    109.471
_cell_angle_beta     109.471
_cell_angle_gamma    109.471

_symmetry_space_group_name_H-M    "P 1"
_symmetry_Int_Tables_number       1

loop_
  _symmetry_equiv_pos_as_xyz
  'x, y, z'

loop_
  _atom_site_type_symbol
  _atom_site_label
  _atom_site_symmetry_multiplicity
  _atom_site_fract_x
  _atom_site_fract_y
  _atom_site_fract_z
  _atom_site_occupancy
  _atom_site_charge
Zn  Zn1       1.0  0.06337  0.50000  0.56337  1.0000 0.9395186851
Zn  Zn2       1.0  0.93663  0.50000  0.43663  1.0000 0.9395186851
Zn  Zn3       1.0  0.56337  0.06337  0.50000  1.0000 0.9395186851
Zn  Zn4       1.0  0.43663  0.93663  0.50000  1.0000 0.9395186851
Zn  Zn5       1.0  0.50000  0.56337  0.06337  1.0000 0.9395186851
Zn  Zn6       1.0  0.50000  0.43663  0.93663  1.0000 0.9395186851
Zn  Zn7       1.0  0.57950  0.52331  0.46603  1.0000 0.9226474748
Zn  Zn8       1.0  0.05728  0.11347  0.53397  1.0000 0.9226474748
Zn  Zn9       1.0  0.42050  0.88653  0.94381  1.0000 0.9226474748
Zn  Zn10      1.0  0.94272  0.47669  0.05619  1.0000 0.9226474748
Zn  Zn11      1.0  0.46603  0.57950  0.52331  1.0000 0.9254841357
Zn  Zn12      1.0  0.05619  0.94272  0.47669  1.0000 0.9226474748
Zn  Zn13      1.0  0.53397  0.05728  0.11347  1.0000 0.9226474748
Zn  Zn14      1.0  0.94381  0.42050  0.88653  1.0000 0.9226474748
Zn  Zn15      1.0  0.52331  0.46603  0.57950  1.0000 0.9226474748
Zn  Zn16      1.0  0.47669  0.05619  0.94272  1.0000 0.9226474748
Zn  Zn17      1.0  0.11347  0.53397  0.05728  1.0000 0.9226474748
Zn  Zn18      1.0  0.88653  0.94381  0.42050  1.0000 0.9226474748
H   H1        1.0  0.79310  0.51950  0.54740  1.0000 0.1369135379
H   H2        1.0  0.97210  0.24570  0.45260  1.0000 0.1369135379
H   H3        1.0  0.20690  0.75430  0.72640  1.0000 0.1369135379
H   H4        1.0  0.02790  0.48050  0.27360  1.0000 0.1369135379
H   H5        1.0  0.54740  0.79310  0.51950  1.0000 0.1369135379
H   H6        1.0  0.27360  0.02790  0.48050  1.0000 0.1369135379
H   H7        1.0  0.45260  0.97210  0.24570  1.0000 0.1369135379
H   H8        1.0  0.72640  0.20690  0.75430  1.0000 0.1369135379
H   H9        1.0  0.51950  0.54740  0.79310  1.0000 0.1369135379
H   H10       1.0  0.48050  0.27360  0.02790  1.0000 0.1369135379
H   H11       1.0  0.24570  0.45260  0.97210  1.0000 0.1369135379
H   H12       1.0  0.75430  0.72640  0.20690  1.0000 0.1369135379
H   H13       1.0  0.74060  0.47570  0.70650  1.0000 0.131525427
H   H14       1.0  0.76920  0.03410  0.29350  1.0000 0.131525427
H   H15       1.0  0.25940  0.96590  0.73510  1.0000 0.131525427
H   H16       1.0  0.23080  0.52430  0.26490  1.0000 0.131525427
H   H17       1.0  0.70650  0.74060  0.47570  1.0000 0.131525427
H   H18       1.0  0.26490  0.23080  0.52430  1.0000 0.131525427
H   H19       1.0  0.29350  0.76920  0.03410  1.0000 0.131525427
H   H20       1.0  0.73510  0.25940  0.96590  1.0000 0.131525427
H   H21       1.0  0.47570  0.70650  0.74060  1.0000 0.131525427
H   H22       1.0  0.52430  0.26490  0.23080  1.0000 0.131525427
H   H23       1.0  0.03410  0.29350  0.76920  1.0000 0.131525427
H   H24       1.0  0.96590  0.73510  0.25940  1.0000 0.131525427
H   H25       1.0  0.92530  0.45990  0.68740  1.0000 0.131525427
H   H26       1.0  0.77250  0.23790  0.31260  1.0000 0.131525427
H   H27       1.0  0.07470  0.76210  0.53460  1.0000 0.131525427
H   H28       1.0  0.22750  0.54010  0.46540  1.0000 0.131525427
H   H29       1.0  0.68740  0.92530  0.45990  1.0000 0.131525427
H   H30       1.0  0.46540  0.22750  0.54010  1.0000 0.131525427
H   H31       1.0  0.31260  0.77250  0.23790  1.0000 0.131525427
H   H32       1.0  0.53460  0.07470  0.76210  1.0000 0.131525427
H   H33       1.0  0.45990  0.68740  0.92530  1.0000 0.131525427
H   H34       1.0  0.54010  0.46540  0.22750  1.0000 0.131525427
H   H35       1.0  0.23790  0.31260  0.77250  1.0000 0.131525427
H   H36       1.0  0.76210  0.53460  0.07470  1.0000 0.131525427
C   C1        1.0  0.68580  0.51010  0.59390  1.0000 0.6057590246
C   C2        1.0  0.91620  0.09190  0.40610  1.0000 0.6057590246
C   C3        1.0  0.31420  0.90810  0.82430  1.0000 0.6057590246
C   C4        1.0  0.08380  0.48990  0.17570  1.0000 0.6057590246
C   C5        1.0  0.59390  0.68580  0.51010  1.0000 0.6057590246
C   C6        1.0  0.17570  0.08380  0.48990  1.0000 0.6057590246
C   C7        1.0  0.40610  0.91620  0.09190  1.0000 0.6057590246
C   C8        1.0  0.82430  0.31420  0.90810  1.0000 0.6057590246
C   C9        1.0  0.51010  0.59390  0.68580  1.0000 0.6057590246
C   C10       1.0  0.48990  0.17570  0.08380  1.0000 0.6057590246
C   C11       1.0  0.09190  0.40610  0.91620  1.0000 0.6057590246
C   C12       1.0  0.90810  0.82430  0.31420  1.0000 0.6057590246
C   C13       1.0  0.91960  0.49790  0.57310  1.0000 0.5943472534
C   C14       1.0  0.92480  0.34650  0.42690  1.0000 0.5943472534
C   C15       1.0  0.08040  0.65350  0.57830  1.0000 0.5943472534
C   C16       1.0  0.07520  0.50210  0.42170  1.0000 0.5943472534
C   C17       1.0  0.57310  0.91960  0.49790  1.0000 0.5943472534
C   C18       1.0  0.42170  0.07520  0.50210  1.0000 0.5943472534
C   C19       1.0  0.42690  0.92480  0.34650  1.0000 0.5943472534
C   C20       1.0  0.57830  0.08040  0.65350  1.0000 0.5943472534
C   C21       1.0  0.49790  0.57310  0.91960  1.0000 0.5943472534
C   C22       1.0  0.50210  0.42170  0.07520  1.0000 0.5943472534
C   C23       1.0  0.34650  0.42690  0.92480  1.0000 0.5943472534
C   C24       1.0  0.65350  0.57830  0.08040  1.0000 0.5943472534
C   C25       1.0  0.80440  0.50620  0.58760  1.0000 -0.0835704537
C   C26       1.0  0.91860  0.21680  0.41240  1.0000 -0.0835704537
C   C27       1.0  0.19560  0.78320  0.70180  1.0000 -0.0835704537
C   C28       1.0  0.08140  0.49380  0.29820  1.0000 -0.0835704537
C   C29       1.0  0.58760  0.80440  0.50620  1.0000 -0.0835704537
C   C30       1.0  0.29820  0.08140  0.49380  1.0000 -0.0835704537
C   C31       1.0  0.41240  0.91860  0.21680  1.0000 -0.0835704537
C   C32       1.0  0.70180  0.19560  0.78320  1.0000 -0.0835704537
C   C33       1.0  0.50620  0.58760  0.80440  1.0000 -0.0835704537
C   C34       1.0  0.49380  0.29820  0.08140  1.0000 -0.0835704537
C   C35       1.0  0.21680  0.41240  0.91860  1.0000 -0.0835704537
C   C36       1.0  0.78320  0.70180  0.19560  1.0000 -0.0835704537
C   C37       1.0  0.75610  0.49910  0.62440  1.0000 -0.0297210411
C   C38       1.0  0.87470  0.13170  0.37560  1.0000 -0.0297210411
C   C39       1.0  0.24390  0.86830  0.74300  1.0000 -0.0297210411
C   C40       1.0  0.12530  0.50090  0.25700  1.0000 -0.0297210411
C   C41       1.0  0.62440  0.75610  0.49910  1.0000 -0.0297210411
C   C42       1.0  0.25700  0.12530  0.50090  1.0000 -0.0297210411
C   C43       1.0  0.37560  0.87470  0.13170  1.0000 -0.0297210411
C   C44       1.0  0.74300  0.24390  0.86830  1.0000 -0.0297210411
C   C45       1.0  0.49910  0.62440  0.75610  1.0000 -0.0297210411
C   C46       1.0  0.50090  0.25700  0.12530  1.0000 -0.0297210411
C   C47       1.0  0.13170  0.37560  0.87470  1.0000 -0.0297210411
C   C48       1.0  0.86830  0.74300  0.24390  1.0000 -0.0297210411
C   C49       1.0  0.86740  0.49320  0.61200  1.0000 -0.0193721796
C   C50       1.0  0.88120  0.25540  0.38800  1.0000 -0.0193721796
C   C51       1.0  0.13260  0.74460  0.62580  1.0000 -0.0193721796
C   C52       1.0  0.11880  0.50680  0.37420  1.0000 -0.0193721796
C   C53       1.0  0.61200  0.86740  0.49320  1.0000 -0.0193721796
C   C54       1.0  0.37420  0.11880  0.50680  1.0000 -0.0193721796
C   C55       1.0  0.38800  0.88120  0.25540  1.0000 -0.0193721796
C   C56       1.0  0.62580  0.13260  0.74460  1.0000 -0.0193721796
C   C57       1.0  0.49320  0.61200  0.86740  1.0000 -0.0193721796
C   C58       1.0  0.50680  0.37420  0.11880  1.0000 -0.0193721796
C   C59       1.0  0.25540  0.38800  0.88120  1.0000 -0.0193721796
C   C60       1.0  0.74460  0.62580  0.13260  1.0000 -0.0193721796
C   C61       1.0  0.77250  0.47980  0.68270  1.0000 -0.0835704537
C   C62       1.0  0.79710  0.08980  0.31730  1.0000 -0.0835704537
C   C63       1.0  0.22750  0.91020  0.70730  1.0000 -0.0835704537
C   C64       1.0  0.20290  0.52020  0.29270  1.0000 -0.0835704537
C   C65       1.0  0.68270  0.77250  0.47980  1.0000 -0.0835704537
C   C66       1.0  0.29270  0.20290  0.52020  1.0000 -0.0835704537
C   C67       1.0  0.31730  0.79710  0.08980  1.0000 -0.0835704537
C   C68       1.0  0.70730  0.22750  0.91020  1.0000 -0.0835704537
C   C69       1.0  0.47980  0.68270  0.77250  1.0000 -0.0835704537
C   C70       1.0  0.52020  0.29270  0.20290  1.0000 -0.0835704537
C   C71       1.0  0.08980  0.31730  0.79710  1.0000 -0.0835704537
C   C72       1.0  0.91020  0.70730  0.22750  1.0000 -0.0835704537
C   C73       1.0  0.88370  0.47090  0.67240  1.0000 -0.0872936765
C   C74       1.0  0.79850  0.21130  0.32760  1.0000 -0.0872936765
C   C75       1.0  0.11630  0.78870  0.58720  1.0000 -0.0872936765
C   C76       1.0  0.20150  0.52910  0.41280  1.0000 -0.0872936765
C   C77       1.0  0.67240  0.88370  0.47090  1.0000 -0.0872936765
C   C78       1.0  0.41280  0.20150  0.52910  1.0000 -0.0872936765
C   C79       1.0  0.32760  0.79850  0.21130  1.0000 -0.0872936765
C   C80       1.0  0.58720  0.11630  0.78870  1.0000 -0.0872936765
C   C81       1.0  0.47090  0.67240  0.88370  1.0000 -0.0872936765
C   C82       1.0  0.52910  0.41280  0.20150  1.0000 -0.0872936765
C   C83       1.0  0.21130  0.32760  0.79850  1.0000 -0.0872936765
C   C84       1.0  0.78870  0.58720  0.11630  1.0000 -0.0872936765
C   C85       1.0  0.83760  0.46580  0.70820  1.0000 -0.0193721796
C   C86       1.0  0.75760  0.12940  0.29180  1.0000 -0.0193721796
C   C87       1.0  0.16240  0.87060  0.62820  1.0000 -0.0193721796
C   C88       1.0  0.24240  0.53420  0.37180  1.0000 -0.0193721796
C   C89       1.0  0.70820  0.83760  0.46580  1.0000 -0.0193721796
C   C90       1.0  0.37180  0.24240  0.53420  1.0000 -0.0193721796
C   C91       1.0  0.29180  0.75760  0.12940  1.0000 -0.0193721796
C   C92       1.0  0.62820  0.16240  0.87060  1.0000 -0.0193721796
C   C93       1.0  0.46580  0.70820  0.83760  1.0000 -0.0193721796
C   C94       1.0  0.53420  0.37180  0.24240  1.0000 -0.0193721796
C   C95       1.0  0.12940  0.29180  0.75760  1.0000 -0.0193721796
C   C96       1.0  0.87060  0.62820  0.16240  1.0000 -0.0193721796
C   C97       1.0  0.85400  0.44190  0.77230  1.0000 0.5596667131
C   C98       1.0  0.66960  0.08170  0.22770  1.0000 0.5596667131
C   C99       1.0  0.14600  0.91830  0.58790  1.0000 0.5596667131
C   C100      1.0  0.33040  0.55810  0.41210  1.0000 0.5596667131
C   C101      1.0  0.77230  0.85400  0.44190  1.0000 0.5596667131
C   C102      1.0  0.41210  0.33040  0.55810  1.0000 0.5596667131
C   C103      1.0  0.22770  0.66960  0.08170  1.0000 0.5596667131
C   C104      1.0  0.58790  0.14600  0.91830  1.0000 0.5596667131
C   C105      1.0  0.44190  0.77230  0.85400  1.0000 0.5596667131
C   C106      1.0  0.55810  0.41210  0.33040  1.0000 0.5596667131
C   C107      1.0  0.08170  0.22770  0.66960  1.0000 0.5596667131
C   C108      1.0  0.91830  0.58790  0.14600  1.0000 0.5596667131
O   O1        1.0  0.97630  0.48630  0.59720  1.0000 -0.4979715795
O   O2        1.0  0.88910  0.37910  0.40280  1.0000 -0.4979715795
O   O3        1.0  0.02370  0.62090  0.51000  1.0000 -0.4979715795
O   O4        1.0  0.11090  0.51370  0.49000  1.0000 -0.4979715795
O   O5        1.0  0.59720  0.97630  0.48630  1.0000 -0.4979715795
O   O6        1.0  0.49000  0.11090  0.51370  1.0000 -0.4979715795
O   O7        1.0  0.40280  0.88910  0.37910  1.0000 -0.4979715795
O   O8        1.0  0.51000  0.02370  0.62090  1.0000 -0.4979715795
O   O9        1.0  0.48630  0.59720  0.97630  1.0000 -0.4979715795
O   O10       1.0  0.51370  0.49000  0.11090  1.0000 -0.4979715795
O   O11       1.0  0.37910  0.40280  0.88910  1.0000 -0.4979715795
O   O12       1.0  0.62090  0.51000  0.02370  1.0000 -0.4979715795
O   O13       1.0  0.89840  0.51260  0.51580  1.0000 -0.5364823938
O   O14       1.0  0.99680  0.38260  0.48420  1.0000 -0.5364823938
O   O15       1.0  0.10160  0.61740  0.61420  1.0000 -0.5364823938
O   O16       1.0  0.00320  0.48740  0.38580  1.0000 -0.5364823938
O   O17       1.0  0.51580  0.89840  0.51260  1.0000 -0.5364823938
O   O18       1.0  0.38580  0.00320  0.48740  1.0000 -0.5364823938
O   O19       1.0  0.48420  0.99680  0.38260  1.0000 -0.5364823938
O   O20       1.0  0.61420  0.10160  0.61740  1.0000 -0.5364823938
O   O21       1.0  0.51260  0.51580  0.89840  1.0000 -0.5364823938
O   O22       1.0  0.48740  0.38580  0.00320  1.0000 -0.5364823938
O   O23       1.0  0.38260  0.48420  0.99680  1.0000 -0.5364823938
O   O24       1.0  0.61740  0.61420  0.10160  1.0000 -0.5364823938
O   O25       1.0  0.91260  0.43030  0.78970  1.0000 -0.4738903741
O   O26       1.0  0.64060  0.12290  0.21030  1.0000 -0.4738903741
O   O27       1.0  0.08740  0.87710  0.51770  1.0000 -0.4738903741
O   O28       1.0  0.35940  0.56970  0.48230  1.0000 -0.4738903741
O   O29       1.0  0.78970  0.91260  0.43030  1.0000 -0.4738903741
O   O30       1.0  0.48230  0.35940  0.56970  1.0000 -0.4738903741
O   O31       1.0  0.21030  0.64060  0.12290  1.0000 -0.4738903741
O   O32       1.0  0.51770  0.08740  0.87710  1.0000 -0.4738903741
O   O33       1.0  0.43030  0.78970  0.91260  1.0000 -0.4738903741
O   O34       1.0  0.56970  0.48230  0.35940  1.0000 -0.4738903741
O   O35       1.0  0.12290  0.21030  0.64060  1.0000 -0.4738903741
O   O36       1.0  0.87710  0.51770  0.08740  1.0000 -0.4738903741
O   O37       1.0  0.67760  0.53590  0.54490  1.0000 -0.5113826246
O   O38       1.0  0.99100  0.13270  0.45510  1.0000 -0.5113826246
O   O39       1.0  0.32240  0.86730  0.85830  1.0000 -0.5113826246
O   O40       1.0  0.00900  0.46410  0.14170  1.0000 -0.5113826246
O   O41       1.0  0.54490  0.67760  0.53590  1.0000 -0.5113826246
O   O42       1.0  0.14170  0.00900  0.46410  1.0000 -0.5113826246
O   O43       1.0  0.45510  0.99100  0.13270  1.0000 -0.5113826246
O   O44       1.0  0.85830  0.32240  0.86730  1.0000 -0.5113826246
O   O45       1.0  0.53590  0.54490  0.67760  1.0000 -0.5113826246
O   O46       1.0  0.46410  0.14170  0.00900  1.0000 -0.5113826246
O   O47       1.0  0.13270  0.45510  0.99100  1.0000 -0.5113826246
O   O48       1.0  0.86730  0.85830  0.32240  1.0000 -0.5113826246
O   O49       1.0  0.63640  0.49140  0.61900  1.0000 -0.5113826246
O   O50       1.0  0.87240  0.01740  0.38100  1.0000 -0.5113826246
O   O51       1.0  0.36360  0.98260  0.85500  1.0000 -0.5113826246
O   O52       1.0  0.12760  0.50860  0.14500  1.0000 -0.5113826246
O   O53       1.0  0.61900  0.63640  0.49140  1.0000 -0.5113826246
O   O54       1.0  0.14500  0.12760  0.50860  1.0000 -0.5113826246
O   O55       1.0  0.38100  0.87240  0.01740  1.0000 -0.5113826246
O   O56       1.0  0.85500  0.36360  0.98260  1.0000 -0.5113826246
O   O57       1.0  0.49140  0.61900  0.63640  1.0000 -0.5113826246
O   O58       1.0  0.50860  0.14500  0.12760  1.0000 -0.5113826246
O   O59       1.0  0.01740  0.38100  0.87240  1.0000 -0.5113826246
O   O60       1.0  0.98260  0.85500  0.36360  1.0000 -0.5113826246
O   O61       1.0  0.81320  0.44240  0.80780  1.0000 -0.4584709307
O   O62       1.0  0.63460  0.00540  0.19220  1.0000 -0.4584709307
O   O63       1.0  0.18680  0.99460  0.62920  1.0000 -0.4584709307
O   O64       1.0  0.36540  0.55760  0.37080  1.0000 -0.4584709307
O   O65       1.0  0.80780  0.81320  0.44240  1.0000 -0.4584709307
O   O66       1.0  0.37080  0.36540  0.55760  1.0000 -0.4584709307
O   O67       1.0  0.19220  0.63460  0.00540  1.0000 -0.4584709307
O   O68       1.0  0.62920  0.18680  0.99460  1.0000 -0.4584709307
O   O69       1.0  0.44240  0.80780  0.81320  1.0000 -0.4584709307
O   O70       1.0  0.55760  0.37080  0.36540  1.0000 -0.4584709307
O   O71       1.0  0.00540  0.19220  0.63460  1.0000 -0.4584709307
O   O72       1.0  0.99460  0.62920  0.18680  1.0000 -0.4584709307
O   O73       1.0  0.46142  0.46142  0.46142  1.0000 -0.7197002322
O   O74       1.0  0.00000  0.00000  0.53858  1.0000 -0.7197002322
O   O75       1.0  0.53858  0.00000  0.00000  1.0000 -0.7197002322
O   O76       1.0  0.00000  0.53858  0.00000  1.0000 -0.7197002322
