# DDEC6 charges by PACMAN v1.1 (https://github.com/mtap-research/PACMAN-charge/)
data_2013[Co][nan]3[ASR]9
_chemical_formula_sum              "Co6 H48 C56 N40 O4"
_cell_length_a       6.7098
_cell_length_b       21.342
_cell_length_c       13.358
_cell_angle_alpha    90
_cell_angle_beta     106.86
_cell_angle_gamma    90

_symmetry_space_group_name_H-M    "P 1"
_symmetry_Int_Tables_number       1

loop_
  _symmetry_equiv_pos_as_xyz
  'x, y, z'

loop_
  _atom_site_type_symbol
  _atom_site_label
  _atom_site_symmetry_multiplicity
  _atom_site_fract_x
  _atom_site_fract_y
  _atom_site_fract_z
  _atom_site_occupancy
  _atom_site_charge
Co  Co1       1.0  0.00000  0.50000  0.00000  1.0000 0.6622949944
Co  Co2       1.0  0.00000  0.00000  0.50000  1.0000 0.6622949944
Co  Co3       1.0  0.47120  0.43307  0.95318  1.0000 0.7055669532
Co  Co4       1.0  0.52880  0.93307  0.54682  1.0000 0.7038128183
Co  Co5       1.0  0.52880  0.56693  0.04682  1.0000 0.7055669532
Co  Co6       1.0  0.47120  0.06693  0.45318  1.0000 0.7038128183
H   H1        1.0  0.23340  0.35260  0.01820  1.0000 0.2839488194
H   H2        1.0  0.76660  0.85260  0.48180  1.0000 0.2869286138
H   H3        1.0  0.76660  0.64740  0.98180  1.0000 0.2839488194
H   H4        1.0  0.23340  0.14740  0.51820  1.0000 0.2839488194
H   H5        1.0  0.43000  0.32110  0.03150  1.0000 0.2869286138
H   H6        1.0  0.57000  0.82110  0.46850  1.0000 0.2869286138
H   H7        1.0  0.57000  0.67890  0.96850  1.0000 0.2869286138
H   H8        1.0  0.43000  0.17890  0.53150  1.0000 0.2869286138
H   H9        1.0  0.49940  0.26600  0.88550  1.0000 0.1281437383
H   H10       1.0  0.50060  0.76600  0.61450  1.0000 0.1281437383
H   H11       1.0  0.50060  0.73400  0.11450  1.0000 0.1281437383
H   H12       1.0  0.49940  0.23400  0.38550  1.0000 0.1281437383
H   H13       1.0  0.34950  0.19760  0.75130  1.0000 0.1112878428
H   H14       1.0  0.65050  0.69760  0.74870  1.0000 0.1112878428
H   H15       1.0  0.65050  0.80240  0.24870  1.0000 0.1112878428
H   H16       1.0  0.34950  0.30240  0.25130  1.0000 0.1112878428
H   H17       1.0  0.93190  0.32260  0.88880  1.0000 0.1281437383
H   H18       1.0  0.06810  0.82260  0.61120  1.0000 0.1281437383
H   H19       1.0  0.06810  0.67740  0.11120  1.0000 0.1281437383
H   H20       1.0  0.93190  0.17740  0.38880  1.0000 0.1281437383
H   H21       1.0  0.78280  0.25210  0.75690  1.0000 0.123414948
H   H22       1.0  0.21720  0.75210  0.74310  1.0000 0.123414948
H   H23       1.0  0.21720  0.74790  0.24310  1.0000 0.123414948
H   H24       1.0  0.78280  0.24790  0.25690  1.0000 0.123414948
H   H25       1.0  0.54640  0.43120  0.59400  1.0000 0.123414948
H   H26       1.0  0.45360  0.93120  0.90600  1.0000 0.123414948
H   H27       1.0  0.45360  0.56880  0.40600  1.0000 0.123414948
H   H28       1.0  0.54640  0.06880  0.09400  1.0000 0.123414948
H   H29       1.0  0.37520  0.42190  0.41790  1.0000 0.123414948
H   H30       1.0  0.62480  0.92190  0.08210  1.0000 0.123414948
H   H31       1.0  0.62480  0.57810  0.58210  1.0000 0.123414948
H   H32       1.0  0.37520  0.07810  0.91790  1.0000 0.123414948
H   H33       1.0  0.92120  0.41310  0.35520  1.0000 0.1281437383
H   H34       1.0  0.07880  0.91310  0.14480  1.0000 0.1281437383
H   H35       1.0  0.07880  0.58690  0.64480  1.0000 0.1281437383
H   H36       1.0  0.92120  0.08690  0.85520  1.0000 0.1281437383
H   H37       1.0  0.09240  0.42130  0.53080  1.0000 0.123414948
H   H38       1.0  0.90760  0.92130  0.96920  1.0000 0.123414948
H   H39       1.0  0.90760  0.57870  0.46920  1.0000 0.123414948
H   H40       1.0  0.09240  0.07870  0.03080  1.0000 0.123414948
H   H41       1.0  0.58800  0.39330  0.22300  1.0000 0.2869286138
H   H42       1.0  0.41200  0.89330  0.27700  1.0000 0.2869286138
H   H43       1.0  0.41200  0.60670  0.77700  1.0000 0.2869286138
H   H44       1.0  0.58800  0.10670  0.72300  1.0000 0.2869286138
H   H45       1.0  0.38400  0.40700  0.24200  1.0000 0.2869286138
H   H46       1.0  0.61600  0.90700  0.25800  1.0000 0.2869286138
H   H47       1.0  0.61600  0.59300  0.75800  1.0000 0.2869286138
H   H48       1.0  0.38400  0.09300  0.74200  1.0000 0.2869286138
C   C1        1.0  0.23080  0.30029  0.90262  1.0000 0.2703944475
C   C2        1.0  0.76920  0.80029  0.59738  1.0000 0.2703944475
C   C3        1.0  0.76920  0.69971  0.09738  1.0000 0.2703944475
C   C4        1.0  0.23080  0.19971  0.40262  1.0000 0.2703944475
C   C5        1.0  0.35520  0.26310  0.86020  1.0000 -0.200681887
C   C6        1.0  0.64480  0.76310  0.63980  1.0000 -0.200681887
C   C7        1.0  0.64480  0.73690  0.13980  1.0000 -0.200681887
C   C8        1.0  0.35520  0.23690  0.36020  1.0000 -0.200681887
C   C9        1.0  0.26490  0.22174  0.78030  1.0000 -0.1221014808
C   C10       1.0  0.73510  0.72174  0.71970  1.0000 -0.1221014808
C   C11       1.0  0.73510  0.77826  0.21970  1.0000 -0.1221014808
C   C12       1.0  0.26490  0.27826  0.28030  1.0000 -0.1221014808
C   C13       1.0  0.95960  0.16681  0.66462  1.0000 0.246801398
C   C14       1.0  0.04040  0.66681  0.83538  1.0000 0.246801398
C   C15       1.0  0.04040  0.83319  0.33538  1.0000 0.246801398
C   C16       1.0  0.95960  0.33319  0.16462  1.0000 0.246801398
C   C17       1.0  0.94820  0.43865  0.69257  1.0000 0.2366994427
C   C18       1.0  0.05180  0.93865  0.80743  1.0000 0.2366994427
C   C19       1.0  0.05180  0.56135  0.30743  1.0000 0.2366994427
C   C20       1.0  0.94820  0.06135  0.19257  1.0000 0.2366994427
C   C21       1.0  0.01630  0.29667  0.86250  1.0000 -0.1924536644
C   C22       1.0  0.98370  0.79667  0.63750  1.0000 -0.1924536644
C   C23       1.0  0.98370  0.70333  0.13750  1.0000 -0.1924536644
C   C24       1.0  0.01630  0.20333  0.36250  1.0000 -0.1924536644
C   C25       1.0  0.05030  0.21562  0.74267  1.0000 0.0130648486
C   C26       1.0  0.94970  0.71562  0.75733  1.0000 0.0130648486
C   C27       1.0  0.94970  0.78438  0.25733  1.0000 0.0130648486
C   C28       1.0  0.05030  0.28438  0.24267  1.0000 0.0130648486
C   C29       1.0  0.92700  0.25443  0.78320  1.0000 -0.1074272388
C   C30       1.0  0.07300  0.75443  0.71680  1.0000 -0.1074272388
C   C31       1.0  0.07300  0.74557  0.21680  1.0000 -0.1074272388
C   C32       1.0  0.92700  0.24557  0.28320  1.0000 -0.1074272388
C   C33       1.0  0.83800  0.42801  0.58147  1.0000 0.0197447364
C   C34       1.0  0.16200  0.92801  0.91853  1.0000 0.0197447364
C   C35       1.0  0.16200  0.57199  0.41853  1.0000 0.0197447364
C   C36       1.0  0.83800  0.07199  0.08147  1.0000 0.0197447364
C   C37       1.0  0.62930  0.41829  0.36738  1.0000 0.2703944475
C   C38       1.0  0.37070  0.91829  0.13262  1.0000 0.2703944475
C   C39       1.0  0.37070  0.58171  0.63262  1.0000 0.2703944475
C   C40       1.0  0.62930  0.08171  0.86738  1.0000 0.2703944475
C   C41       1.0  0.62290  0.42782  0.54620  1.0000 -0.1074272388
C   C42       1.0  0.37710  0.92782  0.95380  1.0000 -0.1074272388
C   C43       1.0  0.37710  0.57218  0.45380  1.0000 -0.1074272388
C   C44       1.0  0.62290  0.07218  0.04620  1.0000 -0.1074272388
C   C45       1.0  0.52000  0.42256  0.44020  1.0000 -0.2073756401
C   C46       1.0  0.48000  0.92256  0.05980  1.0000 -0.2073756401
C   C47       1.0  0.48000  0.57744  0.55980  1.0000 -0.2073756401
C   C48       1.0  0.52000  0.07744  0.94020  1.0000 -0.2073756401
C   C49       1.0  0.84490  0.41717  0.40292  1.0000 -0.2073756401
C   C50       1.0  0.15510  0.91717  0.09708  1.0000 -0.2073756401
C   C51       1.0  0.15510  0.58283  0.59708  1.0000 -0.200681887
C   C52       1.0  0.84490  0.08283  0.90292  1.0000 -0.200681887
C   C53       1.0  0.94760  0.42204  0.50839  1.0000 -0.1074272388
C   C54       1.0  0.05240  0.92204  0.99161  1.0000 -0.1074272388
C   C55       1.0  0.05240  0.57796  0.49161  1.0000 -0.1074272388
C   C56       1.0  0.94760  0.07796  0.00839  1.0000 -0.1074272388
N   N1        1.0  0.32880  0.34267  0.98535  1.0000 -0.5853783085
N   N2        1.0  0.67120  0.84267  0.51465  1.0000 -0.5853783085
N   N3        1.0  0.67120  0.65733  0.01465  1.0000 -0.5853783085
N   N4        1.0  0.32880  0.15733  0.48535  1.0000 -0.5853783085
N   N5        1.0  0.01070  0.46224  0.85330  1.0000 -0.0278443379
N   N6        1.0  0.98930  0.96224  0.64670  1.0000 -0.0278443379
N   N7        1.0  0.98930  0.53776  0.14670  1.0000 -0.0278443379
N   N8        1.0  0.01070  0.03776  0.35330  1.0000 -0.0278443379
N   N9        1.0  0.18880  0.45071  0.83428  1.0000 -0.0278443379
N   N10       1.0  0.81120  0.95071  0.66572  1.0000 -0.0278443379
N   N11       1.0  0.81120  0.54929  0.16572  1.0000 -0.0278443379
N   N12       1.0  0.18880  0.04929  0.33428  1.0000 -0.0278443379
N   N13       1.0  0.15490  0.43534  0.73342  1.0000 -0.2686344727
N   N14       1.0  0.84510  0.93534  0.76658  1.0000 -0.2686344727
N   N15       1.0  0.84510  0.56466  0.26658  1.0000 -0.2686344727
N   N16       1.0  0.15490  0.06466  0.23342  1.0000 -0.2686344727
N   N17       1.0  0.85510  0.45550  0.76494  1.0000 -0.2522134527
N   N18       1.0  0.14490  0.95550  0.73506  1.0000 -0.2522134527
N   N19       1.0  0.14490  0.54450  0.23506  1.0000 -0.2522134527
N   N20       1.0  0.85510  0.04450  0.26494  1.0000 -0.2522134527
N   N21       1.0  0.74750  0.10664  0.55897  1.0000 -0.0385902121
N   N22       1.0  0.25250  0.60664  0.94103  1.0000 -0.0385902121
N   N23       1.0  0.25250  0.89336  0.44103  1.0000 -0.0385902121
N   N24       1.0  0.74750  0.39336  0.05897  1.0000 -0.0385902121
N   N25       1.0  0.93630  0.08703  0.56676  1.0000 -0.0136226793
N   N26       1.0  0.06370  0.58703  0.93324  1.0000 -0.0136226793
N   N27       1.0  0.06370  0.91297  0.43324  1.0000 -0.0136226793
N   N28       1.0  0.93630  0.41297  0.06676  1.0000 -0.0136226793
N   N29       1.0  0.07540  0.12383  0.63351  1.0000 -0.2563696398
N   N30       1.0  0.92460  0.62383  0.86649  1.0000 -0.2563696398
N   N31       1.0  0.92460  0.87617  0.36649  1.0000 -0.2563696398
N   N32       1.0  0.07540  0.37617  0.13351  1.0000 -0.2563696398
N   N33       1.0  0.75710  0.15751  0.62011  1.0000 -0.3015480979
N   N34       1.0  0.24290  0.65751  0.87989  1.0000 -0.3015480979
N   N35       1.0  0.24290  0.84249  0.37989  1.0000 -0.3015480979
N   N36       1.0  0.75710  0.34249  0.12011  1.0000 -0.3015480979
N   N37       1.0  0.52550  0.41794  0.26017  1.0000 -0.5577136769
N   N38       1.0  0.47450  0.91794  0.23983  1.0000 -0.5577136769
N   N39       1.0  0.47450  0.58206  0.73983  1.0000 -0.5577136769
N   N40       1.0  0.52550  0.08206  0.76017  1.0000 -0.5577136769
O   O1        1.0  0.33710  0.48789  0.04999  1.0000 -0.6491127952
O   O2        1.0  0.66290  0.98789  0.45001  1.0000 -0.6491127952
O   O3        1.0  0.66290  0.51211  0.95001  1.0000 -0.6491127952
O   O4        1.0  0.33710  0.01211  0.54999  1.0000 -0.6491127952
