# DDEC6 charges by PACMAN v1.1 (https://github.com/mtap-research/PACMAN-charge/)
data_2013[Ni][nan]3[ASR]4
_chemical_formula_sum              "Ni3 H42 C78 N18 O12 F6"
_cell_length_a       15.698
_cell_length_b       15.698
_cell_length_c       18.557
_cell_angle_alpha    90
_cell_angle_beta     90
_cell_angle_gamma    120

_symmetry_space_group_name_H-M    "P 1"
_symmetry_Int_Tables_number       1

loop_
  _symmetry_equiv_pos_as_xyz
  'x, y, z'

loop_
  _atom_site_type_symbol
  _atom_site_label
  _atom_site_symmetry_multiplicity
  _atom_site_fract_x
  _atom_site_fract_y
  _atom_site_fract_z
  _atom_site_occupancy
  _atom_site_charge
Ni  Ni1       1.0  0.82207  0.00000  0.83333  1.0000 0.6578134492
Ni  Ni2       1.0  0.00000  0.82207  0.16667  1.0000 0.6578134492
Ni  Ni3       1.0  0.17793  0.17793  0.50000  1.0000 0.6578134492
H   H1        1.0  0.65440  0.80500  0.78040  1.0000 0.1095278823
H   H2        1.0  0.19500  0.84940  0.11373  1.0000 0.1095278823
H   H3        1.0  0.15060  0.34560  0.44707  1.0000 0.1095278823
H   H4        1.0  0.80500  0.65440  0.21960  1.0000 0.1095278823
H   H5        1.0  0.34560  0.15060  0.55293  1.0000 0.1095278823
H   H6        1.0  0.84940  0.19500  0.88627  1.0000 0.1095278823
H   H7        1.0  0.60200  0.70230  0.68240  1.0000 0.1396517189
H   H8        1.0  0.29770  0.89970  0.01573  1.0000 0.1396517189
H   H9        1.0  0.10030  0.39800  0.34907  1.0000 0.1396517189
H   H10       1.0  0.70230  0.60200  0.31760  1.0000 0.1396517189
H   H11       1.0  0.39800  0.10030  0.65093  1.0000 0.1396517189
H   H12       1.0  0.89970  0.29770  0.98427  1.0000 0.1396517189
H   H13       1.0  0.84970  0.89540  0.58120  1.0000 0.1396517189
H   H14       1.0  0.10460  0.95430  0.91453  1.0000 0.1396517189
H   H15       1.0  0.04570  0.15030  0.24787  1.0000 0.1396517189
H   H16       1.0  0.89540  0.84970  0.41880  1.0000 0.1396517189
H   H17       1.0  0.15030  0.04570  0.75213  1.0000 0.1396517189
H   H18       1.0  0.95430  0.10460  0.08547  1.0000 0.1396517189
H   H19       1.0  0.89110  0.99480  0.68040  1.0000 0.1095278823
H   H20       1.0  0.00520  0.89630  0.01373  1.0000 0.1095278823
H   H21       1.0  0.10370  0.10890  0.34707  1.0000 0.1095278823
H   H22       1.0  0.99480  0.89110  0.31960  1.0000 0.1095278823
H   H23       1.0  0.10890  0.10370  0.65293  1.0000 0.1095278823
H   H24       1.0  0.89630  0.00520  0.98627  1.0000 0.1095278823
H   H25       1.0  0.35920  0.29430  0.40650  1.0000 0.1171231463
H   H26       1.0  0.70570  0.06490  0.73983  1.0000 0.1171231463
H   H27       1.0  0.93510  0.64080  0.07317  1.0000 0.1171231463
H   H28       1.0  0.29430  0.35920  0.59350  1.0000 0.1171231463
H   H29       1.0  0.64080  0.93510  0.92683  1.0000 0.1171231463
H   H30       1.0  0.06490  0.70570  0.26017  1.0000 0.1171231463
H   H31       1.0  0.50440  0.43850  0.40400  1.0000 0.1396517189
H   H32       1.0  0.56150  0.06590  0.73733  1.0000 0.1396517189
H   H33       1.0  0.93410  0.49560  0.07067  1.0000 0.1396517189
H   H34       1.0  0.43850  0.50440  0.59600  1.0000 0.1396517189
H   H35       1.0  0.49560  0.93410  0.92933  1.0000 0.1396517189
H   H36       1.0  0.06590  0.56150  0.26267  1.0000 0.1396517189
H   H37       1.0  0.95930  0.45940  0.72360  1.0000 0.1396517189
H   H38       1.0  0.54060  0.49990  0.05693  1.0000 0.1396517189
H   H39       1.0  0.50010  0.04070  0.39027  1.0000 0.1396517189
H   H40       1.0  0.45940  0.95930  0.27640  1.0000 0.1396517189
H   H41       1.0  0.04070  0.50010  0.60973  1.0000 0.1396517189
H   H42       1.0  0.49990  0.54060  0.94307  1.0000 0.1396517189
C   C1        1.0  0.69340  0.82390  0.73922  1.0000 0.0722464373
C   C2        1.0  0.17610  0.86950  0.07255  1.0000 0.0722464373
C   C3        1.0  0.13050  0.30660  0.40589  1.0000 0.0722464373
C   C4        1.0  0.82390  0.69340  0.26078  1.0000 0.0722464373
C   C5        1.0  0.30660  0.13050  0.59411  1.0000 0.0722464373
C   C6        1.0  0.86950  0.17610  0.92745  1.0000 0.0722464373
C   C7        1.0  0.66140  0.76130  0.68086  1.0000 -0.1597631008
C   C8        1.0  0.23870  0.90010  0.01419  1.0000 -0.1597631008
C   C9        1.0  0.09990  0.33860  0.34753  1.0000 -0.1597631008
C   C10       1.0  0.76130  0.66140  0.31914  1.0000 -0.1597631008
C   C11       1.0  0.33860  0.09990  0.65247  1.0000 -0.1597631008
C   C12       1.0  0.90010  0.23870  0.98581  1.0000 -0.1597631008
C   C13       1.0  0.72000  0.78860  0.61994  1.0000 0.0589587211
C   C14       1.0  0.21140  0.93140  0.95327  1.0000 0.0589587211
C   C15       1.0  0.06860  0.28000  0.28661  1.0000 0.0589587211
C   C16       1.0  0.78860  0.72000  0.38006  1.0000 0.0589587211
C   C17       1.0  0.28000  0.06860  0.71339  1.0000 0.0589587211
C   C18       1.0  0.93140  0.21140  0.04673  1.0000 0.0589587211
C   C19       1.0  0.80780  0.87620  0.62075  1.0000 -0.1420462932
C   C20       1.0  0.12380  0.93160  0.95408  1.0000 -0.1420462932
C   C21       1.0  0.06840  0.19220  0.28742  1.0000 -0.1420462932
C   C22       1.0  0.87620  0.80780  0.37925  1.0000 -0.1420462932
C   C23       1.0  0.19220  0.06840  0.71258  1.0000 -0.1420462932
C   C24       1.0  0.93160  0.12380  0.04592  1.0000 -0.1420462932
C   C25       1.0  0.83260  0.93480  0.68093  1.0000 0.0847671722
C   C26       1.0  0.06520  0.89780  0.01426  1.0000 0.0852880944
C   C27       1.0  0.10220  0.16740  0.34760  1.0000 0.0847671722
C   C28       1.0  0.93480  0.83260  0.31907  1.0000 0.0847671722
C   C29       1.0  0.16740  0.10220  0.65240  1.0000 0.0847671722
C   C30       1.0  0.89780  0.06520  0.98574  1.0000 0.0847671722
C   C31       1.0  0.68930  0.72260  0.55524  1.0000 0.3709700599
C   C32       1.0  0.27740  0.96670  0.88857  1.0000 0.3709700599
C   C33       1.0  0.03330  0.31070  0.22191  1.0000 0.3709700599
C   C34       1.0  0.72260  0.68930  0.44476  1.0000 0.3709700599
C   C35       1.0  0.31070  0.03330  0.77809  1.0000 0.3709700599
C   C36       1.0  0.96670  0.27740  0.11143  1.0000 0.3709700599
C   C37       1.0  0.37550  0.33750  0.44516  1.0000 0.0722464373
C   C38       1.0  0.66250  0.03800  0.77849  1.0000 0.0722464373
C   C39       1.0  0.96200  0.62450  0.11183  1.0000 0.0722464373
C   C40       1.0  0.33750  0.37550  0.55484  1.0000 0.0722464373
C   C41       1.0  0.62450  0.96200  0.88817  1.0000 0.0722464373
C   C42       1.0  0.03800  0.66250  0.22151  1.0000 0.0722464373
C   C43       1.0  0.46250  0.42350  0.44330  1.0000 -0.1597631008
C   C44       1.0  0.57650  0.03900  0.77663  1.0000 -0.1597631008
C   C45       1.0  0.96100  0.53750  0.10997  1.0000 -0.1597631008
C   C46       1.0  0.42350  0.46250  0.55670  1.0000 -0.1597631008
C   C47       1.0  0.53750  0.96100  0.89003  1.0000 -0.1597631008
C   C48       1.0  0.03900  0.57650  0.22337  1.0000 -0.1597631008
C   C49       1.0  0.48820  0.48820  0.50000  1.0000 0.0589587211
C   C50       1.0  0.51180  0.00000  0.83333  1.0000 0.0589587211
C   C51       1.0  0.00000  0.51180  0.16667  1.0000 0.0589587211
C   C52       1.0  0.58310  0.58310  0.50000  1.0000 0.3586646114
C   C53       1.0  0.41690  0.00000  0.83333  1.0000 0.3586646114
C   C54       1.0  0.00000  0.41690  0.16667  1.0000 0.3586646114
C   C55       1.0  0.96360  0.17390  0.74381  1.0000 0.5722340538
C   C56       1.0  0.82610  0.78970  0.07714  1.0000 0.5722340538
C   C57       1.0  0.21030  0.03640  0.41048  1.0000 0.5722340538
C   C58       1.0  0.17390  0.96360  0.25619  1.0000 0.5722340538
C   C59       1.0  0.03640  0.21030  0.58952  1.0000 0.5722340538
C   C60       1.0  0.78970  0.82610  0.92286  1.0000 0.5722340538
C   C61       1.0  0.98170  0.26510  0.70147  1.0000 -0.1495197135
C   C62       1.0  0.73490  0.71660  0.03480  1.0000 -0.1495197135
C   C63       1.0  0.28340  0.01830  0.36814  1.0000 -0.1495197135
C   C64       1.0  0.26510  0.98170  0.29853  1.0000 -0.1495197135
C   C65       1.0  0.01830  0.28340  0.63186  1.0000 -0.1495197135
C   C66       1.0  0.71660  0.73490  0.96520  1.0000 -0.1495197135
C   C67       1.0  0.96460  0.33300  0.73460  1.0000 0.2644436036
C   C68       1.0  0.66700  0.63160  0.06793  1.0000 0.2644436036
C   C69       1.0  0.36840  0.03540  0.40127  1.0000 0.2644436036
C   C70       1.0  0.33300  0.96460  0.26540  1.0000 0.2644436036
C   C71       1.0  0.03540  0.36840  0.59873  1.0000 0.2644436036
C   C72       1.0  0.63160  0.66700  0.93207  1.0000 0.2659349833
C   C73       1.0  0.97820  0.41840  0.70130  1.0000 -0.19370434
C   C74       1.0  0.58160  0.55980  0.03463  1.0000 -0.19370434
C   C75       1.0  0.44020  0.02180  0.36797  1.0000 -0.19370434
C   C76       1.0  0.41840  0.97820  0.29870  1.0000 -0.19370434
C   C77       1.0  0.02180  0.44020  0.63203  1.0000 -0.19370434
C   C78       1.0  0.55980  0.58160  0.96537  1.0000 -0.19370434
N   N1        1.0  0.77705  0.91006  0.74018  1.0000 -0.2101862685
N   N2        1.0  0.08994  0.86699  0.07351  1.0000 -0.2101862685
N   N3        1.0  0.13301  0.22295  0.40685  1.0000 -0.2101862685
N   N4        1.0  0.91006  0.77705  0.25982  1.0000 -0.2101862685
N   N5        1.0  0.22295  0.13301  0.59315  1.0000 -0.2101862685
N   N6        1.0  0.86699  0.08994  0.92649  1.0000 -0.2101862685
N   N7        1.0  0.60452  0.63956  0.55820  1.0000 -0.4057303673
N   N8        1.0  0.36044  0.96496  0.89153  1.0000 -0.4044769015
N   N9        1.0  0.03504  0.39548  0.22487  1.0000 -0.4057303673
N   N10       1.0  0.63956  0.60452  0.44180  1.0000 -0.4057303673
N   N11       1.0  0.39548  0.03504  0.77513  1.0000 -0.4044769015
N   N12       1.0  0.96496  0.36044  0.10847  1.0000 -0.4057303673
N   N13       1.0  0.75240  0.75240  0.50000  1.0000 -0.4057303673
N   N14       1.0  0.24760  0.00000  0.83333  1.0000 -0.4044769015
N   N15       1.0  0.00000  0.24760  0.16667  1.0000 -0.4057303673
N   N16       1.0  0.31190  0.31190  0.50000  1.0000 -0.1976309325
N   N17       1.0  0.68810  0.00000  0.83333  1.0000 -0.1976309325
N   N18       1.0  0.00000  0.68810  0.16667  1.0000 -0.1976309325
O   O1        1.0  0.87951  0.12354  0.76961  1.0000 -0.5470022366
O   O2        1.0  0.87646  0.75597  0.10294  1.0000 -0.5470022366
O   O3        1.0  0.24403  0.12049  0.43628  1.0000 -0.5470022366
O   O4        1.0  0.12354  0.87951  0.23039  1.0000 -0.5470022366
O   O5        1.0  0.12049  0.24403  0.56372  1.0000 -0.5470022366
O   O6        1.0  0.75597  0.87646  0.89706  1.0000 -0.5470022366
O   O7        1.0  0.03010  0.15570  0.74820  1.0000 -0.510416995
O   O8        1.0  0.84430  0.87440  0.08153  1.0000 -0.510416995
O   O9        1.0  0.12560  0.96990  0.41487  1.0000 -0.510416995
O   O10       1.0  0.15570  0.03010  0.25180  1.0000 -0.510416995
O   O11       1.0  0.96990  0.12560  0.58513  1.0000 -0.510416995
O   O12       1.0  0.87440  0.84430  0.91847  1.0000 -0.510416995
F   F1        1.0  0.93420  0.32630  0.80120  1.0000 -0.1495197135
F   F2        1.0  0.67370  0.60790  0.13453  1.0000 -0.1495197135
F   F3        1.0  0.39210  0.06580  0.46787  1.0000 -0.1495197135
F   F4        1.0  0.32630  0.93420  0.19880  1.0000 -0.1495197135
F   F5        1.0  0.06580  0.39210  0.53213  1.0000 -0.1495197135
F   F6        1.0  0.60790  0.67370  0.86547  1.0000 -0.1495197135
