# DDEC6 charges by PACMAN v1.1 (https://github.com/mtap-research/PACMAN-charge/)
data_2013[Cd][nan]3[ASR]14
_chemical_formula_sum              "Cd12 H120 C216 O72"
_cell_length_a       15.87
_cell_length_b       20.433
_cell_length_c       19.22
_cell_angle_alpha    90
_cell_angle_beta     98.409
_cell_angle_gamma    90

_symmetry_space_group_name_H-M    "P 1"
_symmetry_Int_Tables_number       1

loop_
  _symmetry_equiv_pos_as_xyz
  'x, y, z'

loop_
  _atom_site_type_symbol
  _atom_site_label
  _atom_site_symmetry_multiplicity
  _atom_site_fract_x
  _atom_site_fract_y
  _atom_site_fract_z
  _atom_site_occupancy
  _atom_site_charge
Cd  Cd1       1.0  0.55580  0.77771  0.44865  1.0000 1.0008902808
Cd  Cd2       1.0  0.44420  0.27771  0.05135  1.0000 1.0008902808
Cd  Cd3       1.0  0.44420  0.22229  0.55135  1.0000 1.0008902808
Cd  Cd4       1.0  0.55580  0.72229  0.94865  1.0000 1.0008902808
Cd  Cd5       1.0  0.49182  0.23255  0.22805  1.0000 1.1234081795
Cd  Cd6       1.0  0.50818  0.73255  0.27195  1.0000 1.1234081795
Cd  Cd7       1.0  0.50818  0.76745  0.77195  1.0000 1.1252541353
Cd  Cd8       1.0  0.49182  0.26745  0.72805  1.0000 1.1234081795
Cd  Cd9       1.0  0.46528  0.79237  0.09759  1.0000 1.0008902808
Cd  Cd10      1.0  0.53472  0.29237  0.40241  1.0000 1.0008902808
Cd  Cd11      1.0  0.53472  0.20763  0.90241  1.0000 1.0008902808
Cd  Cd12      1.0  0.46528  0.70763  0.59759  1.0000 1.0008902808
H   H1        1.0  0.62800  0.86770  0.22400  1.0000 0.1292691078
H   H2        1.0  0.37200  0.36770  0.27600  1.0000 0.1292691078
H   H3        1.0  0.37200  0.13230  0.77600  1.0000 0.1292691078
H   H4        1.0  0.62800  0.63230  0.72400  1.0000 0.1292691078
H   H5        1.0  0.72480  0.87980  0.14440  1.0000 0.1391104357
H   H6        1.0  0.27520  0.37980  0.35560  1.0000 0.1292691078
H   H7        1.0  0.27520  0.12020  0.85560  1.0000 0.1292691078
H   H8        1.0  0.72480  0.62020  0.64440  1.0000 0.1391104357
H   H9        1.0  0.91500  0.83680  0.29680  1.0000 0.1391104357
H   H10       1.0  0.08500  0.33680  0.20320  1.0000 0.1391104357
H   H11       1.0  0.08500  0.16320  0.70320  1.0000 0.1391104357
H   H12       1.0  0.91500  0.66320  0.79680  1.0000 0.1391104357
H   H13       1.0  0.82220  0.82960  0.37680  1.0000 0.1220213997
H   H14       1.0  0.17780  0.32960  0.12320  1.0000 0.1220213997
H   H15       1.0  0.17780  0.17040  0.62320  1.0000 0.1220213997
H   H16       1.0  0.82220  0.67040  0.87680  1.0000 0.1220213997
H   H17       1.0  0.01250  0.87030  0.10480  1.0000 0.1600538477
H   H18       1.0  0.98750  0.37030  0.39520  1.0000 0.1600538477
H   H19       1.0  0.98750  0.12970  0.89520  1.0000 0.1600538477
H   H20       1.0  0.01250  0.62970  0.60480  1.0000 0.1600538477
H   H21       1.0  0.04480  0.06660  0.11350  1.0000 0.1524736854
H   H22       1.0  0.95520  0.56660  0.38650  1.0000 0.1524736854
H   H23       1.0  0.95520  0.93340  0.88650  1.0000 0.1524736854
H   H24       1.0  0.04480  0.43340  0.61350  1.0000 0.1524736854
H   H25       1.0  0.84730  0.98400  0.18920  1.0000 0.1524736854
H   H26       1.0  0.15270  0.48400  0.31080  1.0000 0.1524736854
H   H27       1.0  0.15270  0.01600  0.81080  1.0000 0.1524736854
H   H28       1.0  0.84730  0.51600  0.68920  1.0000 0.1524736854
H   H29       1.0  0.15040  0.04360  0.98790  1.0000 0.1292691078
H   H30       1.0  0.84960  0.54360  0.51210  1.0000 0.1292691078
H   H31       1.0  0.84960  0.95640  0.01210  1.0000 0.1292691078
H   H32       1.0  0.15040  0.45640  0.48790  1.0000 0.1292691078
H   H33       1.0  0.25380  0.12190  0.00300  1.0000 0.1292691078
H   H34       1.0  0.74620  0.62190  0.49700  1.0000 0.1292691078
H   H35       1.0  0.74620  0.87810  0.99700  1.0000 0.1292691078
H   H36       1.0  0.25380  0.37810  0.50300  1.0000 0.1292691078
H   H37       1.0  0.32420  0.05910  0.19980  1.0000 0.1220213997
H   H38       1.0  0.67580  0.55910  0.30020  1.0000 0.1220213997
H   H39       1.0  0.67580  0.94090  0.80020  1.0000 0.1220213997
H   H40       1.0  0.32420  0.44090  0.69980  1.0000 0.1220213997
H   H41       1.0  0.21770  0.97950  0.18320  1.0000 0.1292691078
H   H42       1.0  0.78230  0.47950  0.31680  1.0000 0.1292691078
H   H43       1.0  0.78230  0.02050  0.81680  1.0000 0.1292691078
H   H44       1.0  0.21770  0.52050  0.68320  1.0000 0.1292691078
H   H45       1.0  0.83040  0.08770  0.05080  1.0000 0.1292691078
H   H46       1.0  0.16960  0.58770  0.44920  1.0000 0.1292691078
H   H47       1.0  0.16960  0.91230  0.94920  1.0000 0.1292691078
H   H48       1.0  0.83040  0.41230  0.55080  1.0000 0.1292691078
H   H49       1.0  0.69800  0.13630  0.01220  1.0000 0.1292691078
H   H50       1.0  0.30200  0.63630  0.48780  1.0000 0.1292691078
H   H51       1.0  0.30200  0.86370  0.98780  1.0000 0.1292691078
H   H52       1.0  0.69800  0.36370  0.51220  1.0000 0.1220213997
H   H53       1.0  0.69450  0.20600  0.20680  1.0000 0.1134670188
H   H54       1.0  0.30550  0.70600  0.29320  1.0000 0.1134670188
H   H55       1.0  0.30550  0.79400  0.79320  1.0000 0.1134670188
H   H56       1.0  0.69450  0.29400  0.70680  1.0000 0.1134670188
H   H57       1.0  0.82890  0.16220  0.24460  1.0000 0.1391104357
H   H58       1.0  0.17110  0.66220  0.25540  1.0000 0.1391104357
H   H59       1.0  0.17110  0.83780  0.75540  1.0000 0.1391104357
H   H60       1.0  0.82890  0.33780  0.74460  1.0000 0.1391104357
H   H61       1.0  0.71330  0.66430  0.04620  1.0000 0.1220213997
H   H62       1.0  0.28670  0.16430  0.45380  1.0000 0.1220213997
H   H63       1.0  0.28670  0.33570  0.95380  1.0000 0.1220213997
H   H64       1.0  0.71330  0.83570  0.54620  1.0000 0.1220213997
H   H65       1.0  0.83900  0.60520  0.07130  1.0000 0.1391104357
H   H66       1.0  0.16100  0.10520  0.42870  1.0000 0.1391104357
H   H67       1.0  0.16100  0.39480  0.92870  1.0000 0.1391104357
H   H68       1.0  0.83900  0.89480  0.57130  1.0000 0.1391104357
H   H69       1.0  0.85030  0.65670  0.27800  1.0000 0.1391104357
H   H70       1.0  0.14970  0.15670  0.22200  1.0000 0.1391104357
H   H71       1.0  0.14970  0.34330  0.72200  1.0000 0.1391104357
H   H72       1.0  0.85030  0.84330  0.77800  1.0000 0.1391104357
H   H73       1.0  0.72260  0.71090  0.24930  1.0000 0.1134670188
H   H74       1.0  0.27740  0.21090  0.25070  1.0000 0.1134670188
H   H75       1.0  0.27740  0.28910  0.75070  1.0000 0.1134670188
H   H76       1.0  0.72260  0.78910  0.74930  1.0000 0.1134670188
H   H77       1.0  0.85360  0.48340  0.18190  1.0000 0.1524736854
H   H78       1.0  0.14640  0.98340  0.31810  1.0000 0.1524736854
H   H79       1.0  0.14640  0.51660  0.81810  1.0000 0.1524736854
H   H80       1.0  0.85360  0.01660  0.68190  1.0000 0.1524736854
H   H81       1.0  0.01580  0.38780  0.07900  1.0000 0.1600538477
H   H82       1.0  0.98420  0.88780  0.42100  1.0000 0.1600538477
H   H83       1.0  0.98420  0.61220  0.92100  1.0000 0.1600538477
H   H84       1.0  0.01580  0.11220  0.57900  1.0000 0.1600538477
H   H85       1.0  0.05880  0.57710  0.13270  1.0000 0.1600538477
H   H86       1.0  0.94120  0.07710  0.36730  1.0000 0.1600538477
H   H87       1.0  0.94120  0.42290  0.86730  1.0000 0.1600538477
H   H88       1.0  0.05880  0.92290  0.63270  1.0000 0.1600538477
H   H89       1.0  0.71780  0.37270  0.10210  1.0000 0.1391104357
H   H90       1.0  0.28220  0.87270  0.39790  1.0000 0.1391104357
H   H91       1.0  0.28220  0.62730  0.89790  1.0000 0.1391104357
H   H92       1.0  0.71780  0.12730  0.60210  1.0000 0.1391104357
H   H93       1.0  0.62240  0.35060  0.17740  1.0000 0.1220213997
H   H94       1.0  0.37760  0.85060  0.32260  1.0000 0.1220213997
H   H95       1.0  0.37760  0.64940  0.82260  1.0000 0.1220213997
H   H96       1.0  0.62240  0.14940  0.67740  1.0000 0.1220213997
H   H97       1.0  0.81520  0.33230  0.33750  1.0000 0.1220213997
H   H98       1.0  0.18480  0.83230  0.16250  1.0000 0.1220213997
H   H99       1.0  0.18480  0.66770  0.66250  1.0000 0.1220213997
H   H100      1.0  0.81520  0.16770  0.83750  1.0000 0.1220213997
H   H101      1.0  0.90920  0.34490  0.25560  1.0000 0.1391104357
H   H102      1.0  0.09080  0.84490  0.24440  1.0000 0.1391104357
H   H103      1.0  0.09080  0.65510  0.74440  1.0000 0.1391104357
H   H104      1.0  0.90920  0.15510  0.75560  1.0000 0.1391104357
H   H105      1.0  0.17890  0.56740  0.99490  1.0000 0.1292691078
H   H106      1.0  0.82110  0.06740  0.50510  1.0000 0.1292691078
H   H107      1.0  0.82110  0.43260  0.00510  1.0000 0.1292691078
H   H108      1.0  0.17890  0.93260  0.49490  1.0000 0.1292691078
H   H109      1.0  0.29050  0.63640  0.02800  1.0000 0.1220213997
H   H110      1.0  0.70950  0.13640  0.47200  1.0000 0.1220213997
H   H111      1.0  0.70950  0.36360  0.97200  1.0000 0.1220213997
H   H112      1.0  0.29050  0.86360  0.52800  1.0000 0.1220213997
H   H113      1.0  0.32470  0.56340  0.22140  1.0000 0.1220213997
H   H114      1.0  0.67530  0.06340  0.27860  1.0000 0.1220213997
H   H115      1.0  0.67530  0.43660  0.77860  1.0000 0.1220213997
H   H116      1.0  0.32470  0.93660  0.72140  1.0000 0.1220213997
H   H117      1.0  0.21510  0.48920  0.18830  1.0000 0.1220213997
H   H118      1.0  0.78490  0.98920  0.31170  1.0000 0.1220213997
H   H119      1.0  0.78490  0.51080  0.81170  1.0000 0.1220213997
H   H120      1.0  0.21510  0.01080  0.68830  1.0000 0.1220213997
C   C1        1.0  0.65560  0.83200  0.36080  1.0000 0.5598406722
C   C2        1.0  0.34440  0.33200  0.13920  1.0000 0.5598406722
C   C3        1.0  0.34440  0.16800  0.63920  1.0000 0.5598406722
C   C4        1.0  0.65560  0.66800  0.86080  1.0000 0.5598406722
C   C5        1.0  0.71520  0.84600  0.30750  1.0000 -0.0314727356
C   C6        1.0  0.28480  0.34600  0.19250  1.0000 -0.0314727356
C   C7        1.0  0.28480  0.15400  0.69250  1.0000 -0.0314727356
C   C8        1.0  0.71520  0.65400  0.80750  1.0000 -0.0314727356
C   C9        1.0  0.68600  0.86180  0.23860  1.0000 -0.0802638619
C   C10       1.0  0.31400  0.36180  0.26140  1.0000 -0.0802638619
C   C11       1.0  0.31400  0.13820  0.76140  1.0000 -0.0802638619
C   C12       1.0  0.68600  0.63820  0.73860  1.0000 -0.0802638619
C   C13       1.0  0.74340  0.86900  0.19120  1.0000 -0.2001930016
C   C14       1.0  0.25660  0.36900  0.30880  1.0000 -0.2001930016
C   C15       1.0  0.25660  0.13100  0.80880  1.0000 -0.2001930016
C   C16       1.0  0.74340  0.63100  0.69120  1.0000 -0.2001930016
C   C17       1.0  0.83010  0.85950  0.21560  1.0000 0.2298406397
C   C18       1.0  0.16990  0.35950  0.28440  1.0000 0.2298406397
C   C19       1.0  0.16990  0.14050  0.78440  1.0000 0.2298406397
C   C20       1.0  0.83010  0.64050  0.71560  1.0000 0.2298406397
C   C21       1.0  0.85720  0.84400  0.28240  1.0000 -0.1846502165
C   C22       1.0  0.14280  0.34400  0.21760  1.0000 -0.1883595864
C   C23       1.0  0.14280  0.15600  0.71760  1.0000 -0.1846502165
C   C24       1.0  0.85720  0.65600  0.78240  1.0000 -0.1846502165
C   C25       1.0  0.80210  0.83840  0.32990  1.0000 -0.0887251139
C   C26       1.0  0.19790  0.33840  0.17010  1.0000 -0.0887251139
C   C27       1.0  0.19790  0.16160  0.67010  1.0000 -0.0887251139
C   C28       1.0  0.80210  0.66160  0.82990  1.0000 -0.0887251139
C   C29       1.0  0.92370  0.91880  0.14980  1.0000 0.2772686491
C   C30       1.0  0.07630  0.41880  0.35020  1.0000 0.2772686491
C   C31       1.0  0.07630  0.08120  0.85020  1.0000 0.2772686491
C   C32       1.0  0.92370  0.58120  0.64980  1.0000 0.2772686491
C   C33       1.0  0.99530  0.91150  0.11770  1.0000 -0.3493487254
C   C34       1.0  0.00470  0.41150  0.38230  1.0000 -0.3493487254
C   C35       1.0  0.00470  0.08850  0.88230  1.0000 -0.3493487254
C   C36       1.0  0.99530  0.58850  0.61770  1.0000 -0.3493487254
C   C37       1.0  0.04080  0.96650  0.10530  1.0000 0.2963713591
C   C38       1.0  0.95920  0.46650  0.39470  1.0000 0.2963713591
C   C39       1.0  0.95920  0.03350  0.89470  1.0000 0.2963713591
C   C40       1.0  0.04080  0.53350  0.60530  1.0000 0.2963713591
C   C41       1.0  0.01510  0.02930  0.12330  1.0000 -0.3493487254
C   C42       1.0  0.98490  0.52930  0.37670  1.0000 -0.3493487254
C   C43       1.0  0.98490  0.97070  0.87670  1.0000 -0.3493487254
C   C44       1.0  0.01510  0.47070  0.62330  1.0000 -0.3493487254
C   C45       1.0  0.94310  0.03280  0.15630  1.0000 0.2772686491
C   C46       1.0  0.05690  0.53280  0.34370  1.0000 0.2772686491
C   C47       1.0  0.05690  0.96720  0.84370  1.0000 0.2772686491
C   C48       1.0  0.94310  0.46720  0.65630  1.0000 0.2772686491
C   C49       1.0  0.89650  0.97960  0.16860  1.0000 -0.3493487254
C   C50       1.0  0.10350  0.47960  0.33140  1.0000 -0.3493487254
C   C51       1.0  0.10350  0.02040  0.83140  1.0000 -0.3493487254
C   C52       1.0  0.89650  0.52040  0.66860  1.0000 -0.3493487254
C   C53       1.0  0.17390  0.00500  0.08150  1.0000 0.2298406397
C   C54       1.0  0.82610  0.50500  0.41850  1.0000 0.2298406397
C   C55       1.0  0.82610  0.99500  0.91850  1.0000 0.2298406397
C   C56       1.0  0.17390  0.49500  0.58150  1.0000 0.2298406397
C   C57       1.0  0.18540  0.04670  0.03100  1.0000 -0.1883595864
C   C58       1.0  0.81460  0.54670  0.46900  1.0000 -0.1883595864
C   C59       1.0  0.81460  0.95330  0.96900  1.0000 -0.1883595864
C   C60       1.0  0.18540  0.45330  0.53100  1.0000 -0.1883595864
C   C61       1.0  0.24660  0.09380  0.03980  1.0000 -0.0802638619
C   C62       1.0  0.75340  0.59380  0.46020  1.0000 -0.0802638619
C   C63       1.0  0.75340  0.90620  0.96020  1.0000 -0.0802638619
C   C64       1.0  0.24660  0.40620  0.53980  1.0000 -0.0802638619
C   C65       1.0  0.29800  0.09950  0.10430  1.0000 -0.0511924561
C   C66       1.0  0.70200  0.59950  0.39570  1.0000 -0.0511924561
C   C67       1.0  0.70200  0.90050  0.89570  1.0000 -0.0511924561
C   C68       1.0  0.29800  0.40050  0.60430  1.0000 -0.0511924561
C   C69       1.0  0.36390  0.15170  0.11370  1.0000 0.5901476552
C   C70       1.0  0.63610  0.65170  0.38630  1.0000 0.5901476552
C   C71       1.0  0.63610  0.84830  0.88630  1.0000 0.5901476552
C   C72       1.0  0.36390  0.34830  0.61370  1.0000 0.5901476552
C   C73       1.0  0.28840  0.05630  0.15710  1.0000 -0.0802638619
C   C74       1.0  0.71160  0.55630  0.34290  1.0000 -0.0802638619
C   C75       1.0  0.71160  0.94370  0.84290  1.0000 -0.0802638619
C   C76       1.0  0.28840  0.44370  0.65710  1.0000 -0.0802638619
C   C77       1.0  0.22540  0.00840  0.14730  1.0000 -0.2001930016
C   C78       1.0  0.77460  0.50840  0.35270  1.0000 -0.2001930016
C   C79       1.0  0.77460  0.99160  0.85270  1.0000 -0.2001930016
C   C80       1.0  0.22540  0.49160  0.64730  1.0000 -0.2001930016
C   C81       1.0  0.84060  0.11860  0.15310  1.0000 0.2602140789
C   C82       1.0  0.15940  0.61860  0.34690  1.0000 0.2602140789
C   C83       1.0  0.15940  0.88140  0.84690  1.0000 0.2602140789
C   C84       1.0  0.84060  0.38140  0.65310  1.0000 0.2602140789
C   C85       1.0  0.80280  0.11150  0.08200  1.0000 -0.229595139
C   C86       1.0  0.19720  0.61150  0.41800  1.0000 -0.229595139
C   C87       1.0  0.19720  0.88850  0.91800  1.0000 -0.229595139
C   C88       1.0  0.80280  0.38850  0.58200  1.0000 -0.229595139
C   C89       1.0  0.72310  0.14080  0.05870  1.0000 -0.071334967
C   C90       1.0  0.27690  0.64080  0.44130  1.0000 -0.071334967
C   C91       1.0  0.27690  0.85920  0.94130  1.0000 -0.071334967
C   C92       1.0  0.72310  0.35920  0.55870  1.0000 -0.071334967
C   C93       1.0  0.68240  0.17640  0.10550  1.0000 -0.0589048848
C   C94       1.0  0.31760  0.67640  0.39450  1.0000 -0.0589048848
C   C95       1.0  0.31760  0.82360  0.89450  1.0000 -0.0589048848
C   C96       1.0  0.68240  0.32360  0.60550  1.0000 -0.0589048848
C   C97       1.0  0.59880  0.20790  0.08160  1.0000 0.5670796529
C   C98       1.0  0.40120  0.70790  0.41840  1.0000 0.5670796529
C   C99       1.0  0.40120  0.79210  0.91840  1.0000 0.5670796529
C   C100      1.0  0.59880  0.29210  0.58160  1.0000 0.5670796529
C   C101      1.0  0.72220  0.18280  0.17520  1.0000 -0.0589048848
C   C102      1.0  0.27780  0.68280  0.32480  1.0000 -0.0589048848
C   C103      1.0  0.27780  0.81720  0.82480  1.0000 -0.0589048848
C   C104      1.0  0.72220  0.31720  0.67520  1.0000 -0.0589048848
C   C105      1.0  0.80230  0.15540  0.19870  1.0000 -0.220959072
C   C106      1.0  0.19770  0.65540  0.30130  1.0000 -0.220959072
C   C107      1.0  0.19770  0.84460  0.80130  1.0000 -0.220959072
C   C108      1.0  0.80230  0.34460  0.69870  1.0000 -0.220959072
C   C109      1.0  0.62360  0.72910  0.13090  1.0000 0.6013842036
C   C110      1.0  0.37640  0.22910  0.36910  1.0000 0.6013842036
C   C111      1.0  0.37640  0.27090  0.86910  1.0000 0.6013842036
C   C112      1.0  0.62360  0.77090  0.63090  1.0000 0.6013842036
C   C113      1.0  0.70600  0.69350  0.14600  1.0000 -0.0511924561
C   C114      1.0  0.29400  0.19350  0.35400  1.0000 -0.0511924561
C   C115      1.0  0.29400  0.30650  0.85400  1.0000 -0.0511924561
C   C116      1.0  0.70600  0.80650  0.64600  1.0000 -0.0511924561
C   C117      1.0  0.74100  0.66170  0.09220  1.0000 -0.071334967
C   C118      1.0  0.25900  0.16170  0.40780  1.0000 -0.071334967
C   C119      1.0  0.25900  0.33830  0.90780  1.0000 -0.071334967
C   C120      1.0  0.74100  0.83830  0.59220  1.0000 -0.071334967
C   C121      1.0  0.81570  0.62670  0.10660  1.0000 -0.229595139
C   C122      1.0  0.18430  0.12670  0.39340  1.0000 -0.229595139
C   C123      1.0  0.18430  0.37330  0.89340  1.0000 -0.229595139
C   C124      1.0  0.81570  0.87330  0.60660  1.0000 -0.229595139
C   C125      1.0  0.85520  0.62490  0.17740  1.0000 0.2772686491
C   C126      1.0  0.14480  0.12490  0.32260  1.0000 0.2772686491
C   C127      1.0  0.14480  0.37510  0.82260  1.0000 0.2772686491
C   C128      1.0  0.85520  0.87510  0.67740  1.0000 0.2772686491
C   C129      1.0  0.82230  0.65740  0.23200  1.0000 -0.220959072
C   C130      1.0  0.17770  0.15740  0.26800  1.0000 -0.220959072
C   C131      1.0  0.17770  0.34260  0.76800  1.0000 -0.220959072
C   C132      1.0  0.82230  0.84260  0.73200  1.0000 -0.220959072
C   C133      1.0  0.74700  0.69010  0.21410  1.0000 -0.071334967
C   C134      1.0  0.25300  0.19010  0.28590  1.0000 -0.071334967
C   C135      1.0  0.25300  0.30990  0.78590  1.0000 -0.071334967
C   C136      1.0  0.74700  0.80990  0.71410  1.0000 -0.071334967
C   C137      1.0  0.95170  0.53740  0.16220  1.0000 0.2722013254
C   C138      1.0  0.04830  0.03740  0.33780  1.0000 0.2722013254
C   C139      1.0  0.04830  0.46260  0.83780  1.0000 0.2722013254
C   C140      1.0  0.95170  0.96260  0.66220  1.0000 0.2722013254
C   C141      1.0  0.90320  0.48310  0.16150  1.0000 -0.3163477521
C   C142      1.0  0.09680  0.98310  0.33850  1.0000 -0.3163477521
C   C143      1.0  0.09680  0.51690  0.83850  1.0000 -0.3163477521
C   C144      1.0  0.90320  0.01690  0.66150  1.0000 -0.3163477521
C   C145      1.0  0.92750  0.42830  0.13070  1.0000 0.2602140789
C   C146      1.0  0.07250  0.92830  0.36930  1.0000 0.2602140789
C   C147      1.0  0.07250  0.57170  0.86930  1.0000 0.2602140789
C   C148      1.0  0.92750  0.07170  0.63070  1.0000 0.2602140789
C   C149      1.0  0.00020  0.42600  0.10030  1.0000 -0.33360808
C   C150      1.0  0.99980  0.92600  0.39970  1.0000 -0.33360808
C   C151      1.0  0.99980  0.57400  0.89970  1.0000 -0.33360808
C   C152      1.0  0.00020  0.07400  0.60030  1.0000 -0.33360808
C   C153      1.0  0.04980  0.48150  0.10210  1.0000 0.2873967697
C   C154      1.0  0.95020  0.98150  0.39790  1.0000 0.2873967697
C   C155      1.0  0.95020  0.51850  0.89790  1.0000 0.2873967697
C   C156      1.0  0.04980  0.01850  0.60210  1.0000 0.2873967697
C   C157      1.0  0.02630  0.53930  0.13240  1.0000 -0.3427528034
C   C158      1.0  0.97370  0.03930  0.36760  1.0000 -0.3427528034
C   C159      1.0  0.97370  0.46070  0.86760  1.0000 -0.3427528034
C   C160      1.0  0.02630  0.96070  0.63240  1.0000 -0.3427528034
C   C161      1.0  0.82170  0.36260  0.17170  1.0000 0.2389182334
C   C162      1.0  0.17830  0.86260  0.32830  1.0000 0.2389182334
C   C163      1.0  0.17830  0.63740  0.82830  1.0000 0.2389182334
C   C164      1.0  0.82170  0.13740  0.67170  1.0000 0.2389182334
C   C165      1.0  0.73750  0.36360  0.14910  1.0000 -0.2001930016
C   C166      1.0  0.26250  0.86360  0.35090  1.0000 -0.2001930016
C   C167      1.0  0.26250  0.63640  0.85090  1.0000 -0.2001930016
C   C168      1.0  0.73750  0.13640  0.64910  1.0000 -0.2001930016
C   C169      1.0  0.68030  0.35160  0.19430  1.0000 -0.0802638619
C   C170      1.0  0.31970  0.85160  0.30570  1.0000 -0.0802638619
C   C171      1.0  0.31970  0.64840  0.80570  1.0000 -0.0802638619
C   C172      1.0  0.68030  0.14840  0.69430  1.0000 -0.0802638619
C   C173      1.0  0.70790  0.34070  0.26540  1.0000 -0.0511924561
C   C174      1.0  0.29210  0.84070  0.23460  1.0000 -0.0589048848
C   C175      1.0  0.29210  0.65930  0.73460  1.0000 -0.0589048848
C   C176      1.0  0.70790  0.15930  0.76540  1.0000 -0.0589048848
C   C177      1.0  0.64360  0.32890  0.31230  1.0000 0.5670796529
C   C178      1.0  0.35640  0.82890  0.18770  1.0000 0.5598406722
C   C179      1.0  0.35640  0.67110  0.68770  1.0000 0.5670796529
C   C180      1.0  0.64360  0.17110  0.81230  1.0000 0.5670796529
C   C181      1.0  0.79500  0.33920  0.29020  1.0000 -0.0802638619
C   C182      1.0  0.20500  0.83920  0.20980  1.0000 -0.0802638619
C   C183      1.0  0.20500  0.66080  0.70980  1.0000 -0.0802638619
C   C184      1.0  0.79500  0.16080  0.79020  1.0000 -0.0802638619
C   C185      1.0  0.85090  0.34840  0.24100  1.0000 -0.220959072
C   C186      1.0  0.14910  0.84840  0.25900  1.0000 -0.220959072
C   C187      1.0  0.14910  0.65160  0.75900  1.0000 -0.220959072
C   C188      1.0  0.85090  0.15160  0.74100  1.0000 -0.220959072
C   C189      1.0  0.18460  0.52170  0.08550  1.0000 0.2488018383
C   C190      1.0  0.81540  0.02170  0.41450  1.0000 0.2488018383
C   C191      1.0  0.81540  0.47830  0.91450  1.0000 0.2488018383
C   C192      1.0  0.18460  0.97830  0.58550  1.0000 0.2488018383
C   C193      1.0  0.20790  0.56540  0.04060  1.0000 -0.2001930016
C   C194      1.0  0.79210  0.06540  0.45940  1.0000 -0.2001930016
C   C195      1.0  0.79210  0.43460  0.95940  1.0000 -0.2001930016
C   C196      1.0  0.20790  0.93460  0.54060  1.0000 -0.2001930016
C   C197      1.0  0.27430  0.60750  0.06100  1.0000 -0.0887251139
C   C198      1.0  0.72570  0.10750  0.43900  1.0000 -0.0887251139
C   C199      1.0  0.72570  0.39250  0.93900  1.0000 -0.0887251139
C   C200      1.0  0.27430  0.89250  0.56100  1.0000 -0.0887251139
C   C201      1.0  0.31800  0.60870  0.12860  1.0000 -0.0314727356
C   C202      1.0  0.68200  0.10870  0.37140  1.0000 -0.0314727356
C   C203      1.0  0.68200  0.39130  0.87140  1.0000 -0.0314727356
C   C204      1.0  0.31800  0.89130  0.62860  1.0000 -0.0314727356
C   C205      1.0  0.29560  0.56410  0.17580  1.0000 -0.0887251139
C   C206      1.0  0.70440  0.06410  0.32420  1.0000 -0.0887251139
C   C207      1.0  0.70440  0.43590  0.82420  1.0000 -0.0887251139
C   C208      1.0  0.29560  0.93590  0.67580  1.0000 -0.0887251139
C   C209      1.0  0.22970  0.51970  0.15620  1.0000 -0.2001930016
C   C210      1.0  0.77030  0.01970  0.34380  1.0000 -0.2001930016
C   C211      1.0  0.77030  0.48030  0.84380  1.0000 -0.2001930016
C   C212      1.0  0.22970  0.98030  0.65620  1.0000 -0.2001930016
C   C213      1.0  0.38830  0.65800  0.15100  1.0000 0.5901476552
C   C214      1.0  0.61170  0.15800  0.34900  1.0000 0.5901476552
C   C215      1.0  0.61170  0.34200  0.84900  1.0000 0.5901476552
C   C216      1.0  0.38830  0.84200  0.65100  1.0000 0.5901476552
O   O1        1.0  0.57770  0.81770  0.33333  1.0000 -0.6116392205
O   O2        1.0  0.42230  0.31770  0.16667  1.0000 -0.6116392205
O   O3        1.0  0.42230  0.18230  0.66667  1.0000 -0.6116392205
O   O4        1.0  0.57770  0.68230  0.83333  1.0000 -0.6116392205
O   O5        1.0  0.67870  0.83290  0.42310  1.0000 -0.4906917105
O   O6        1.0  0.32130  0.33290  0.07690  1.0000 -0.4906917105
O   O7        1.0  0.32130  0.16710  0.57690  1.0000 -0.4906917105
O   O8        1.0  0.67870  0.66710  0.92310  1.0000 -0.4906917105
O   O9        1.0  0.37490  0.18670  0.06440  1.0000 -0.5234473537
O   O10       1.0  0.62510  0.68670  0.43560  1.0000 -0.5234473537
O   O11       1.0  0.62510  0.81330  0.93560  1.0000 -0.5234473537
O   O12       1.0  0.37490  0.31330  0.56440  1.0000 -0.5234473537
O   O13       1.0  0.56820  0.20640  0.02590  1.0000 -0.4312822635
O   O14       1.0  0.43180  0.70640  0.47410  1.0000 -0.4312822635
O   O15       1.0  0.43180  0.79360  0.97410  1.0000 -0.4312822635
O   O16       1.0  0.56820  0.29360  0.52590  1.0000 -0.4312822635
O   O17       1.0  0.58980  0.74140  0.06360  1.0000 -0.6224757324
O   O18       1.0  0.41020  0.24140  0.43640  1.0000 -0.6224757324
O   O19       1.0  0.41020  0.25860  0.93640  1.0000 -0.6224757324
O   O20       1.0  0.58980  0.75860  0.56360  1.0000 -0.6224757324
O   O21       1.0  0.58360  0.74690  0.17950  1.0000 -0.5898176322
O   O22       1.0  0.41640  0.24690  0.32050  1.0000 -0.5898176322
O   O23       1.0  0.41640  0.25310  0.82050  1.0000 -0.5898176322
O   O24       1.0  0.58360  0.75310  0.67950  1.0000 -0.5898176322
O   O25       1.0  0.66667  0.32950  0.37800  1.0000 -0.5341761599
O   O26       1.0  0.33340  0.82950  0.12200  1.0000 -0.5341761599
O   O27       1.0  0.33340  0.67050  0.62200  1.0000 -0.5341761599
O   O28       1.0  0.66667  0.17050  0.87800  1.0000 -0.5341761599
O   O29       1.0  0.41360  0.68870  0.09960  1.0000 -0.5791256467
O   O30       1.0  0.58640  0.18870  0.40040  1.0000 -0.5791256467
O   O31       1.0  0.58640  0.31130  0.90040  1.0000 -0.5791256467
O   O32       1.0  0.41360  0.81130  0.59960  1.0000 -0.5791256467
O   O33       1.0  0.88270  0.86070  0.16150  1.0000 -0.229595139
O   O34       1.0  0.11730  0.36070  0.33850  1.0000 -0.229595139
O   O35       1.0  0.11730  0.13930  0.83850  1.0000 -0.229595139
O   O36       1.0  0.88270  0.63930  0.66150  1.0000 -0.229595139
O   O37       1.0  0.11080  0.95700  0.07160  1.0000 -0.220959072
O   O38       1.0  0.88920  0.45700  0.42840  1.0000 -0.220959072
O   O39       1.0  0.88920  0.04300  0.92840  1.0000 -0.220959072
O   O40       1.0  0.11080  0.54300  0.57160  1.0000 -0.220959072
O   O41       1.0  0.92100  0.09480  0.17660  1.0000 -0.2122309956
O   O42       1.0  0.07900  0.59480  0.32340  1.0000 -0.2122309956
O   O43       1.0  0.07900  0.90520  0.82340  1.0000 -0.2122309956
O   O44       1.0  0.92100  0.40520  0.67660  1.0000 -0.2122309956
O   O45       1.0  0.93440  0.59530  0.19710  1.0000 -0.220959072
O   O46       1.0  0.06560  0.09530  0.30290  1.0000 -0.220959072
O   O47       1.0  0.06560  0.40470  0.80290  1.0000 -0.220959072
O   O48       1.0  0.93440  0.90470  0.69710  1.0000 -0.220959072
O   O49       1.0  0.12020  0.47680  0.06740  1.0000 -0.220959072
O   O50       1.0  0.87980  0.97680  0.43260  1.0000 -0.220959072
O   O51       1.0  0.87980  0.52320  0.93260  1.0000 -0.220959072
O   O52       1.0  0.12020  0.02320  0.56740  1.0000 -0.220959072
O   O53       1.0  0.88160  0.36950  0.12700  1.0000 -0.229595139
O   O54       1.0  0.11840  0.86950  0.37300  1.0000 -0.229595139
O   O55       1.0  0.11840  0.63050  0.87300  1.0000 -0.229595139
O   O56       1.0  0.88160  0.13050  0.62700  1.0000 -0.229595139
O   O57       1.0  0.56790  0.31600  0.28870  1.0000 -0.5692631642
O   O58       1.0  0.43210  0.81600  0.21130  1.0000 -0.5692631642
O   O59       1.0  0.43210  0.68400  0.71130  1.0000 -0.5692631642
O   O60       1.0  0.56790  0.18400  0.78870  1.0000 -0.5692631642
O   O61       1.0  0.56250  0.23700  0.13070  1.0000 -0.5898176322
O   O62       1.0  0.43750  0.73700  0.36930  1.0000 -0.5898176322
O   O63       1.0  0.43750  0.76300  0.86930  1.0000 -0.5898176322
O   O64       1.0  0.56250  0.26300  0.63070  1.0000 -0.5898176322
O   O65       1.0  0.40240  0.15930  0.17670  1.0000 -0.5791256467
O   O66       1.0  0.59760  0.65930  0.32330  1.0000 -0.5791256467
O   O67       1.0  0.59760  0.84070  0.82330  1.0000 -0.5791256467
O   O68       1.0  0.40240  0.34070  0.67670  1.0000 -0.5791256467
O   O69       1.0  0.41450  0.66390  0.21430  1.0000 -0.5532353411
O   O70       1.0  0.58550  0.16390  0.28570  1.0000 -0.5532353411
O   O71       1.0  0.58550  0.33610  0.78570  1.0000 -0.5532353411
O   O72       1.0  0.41450  0.83610  0.71430  1.0000 -0.5532353411
