# DDEC6 charges by PACMAN v1.1 (https://github.com/mtap-research/PACMAN-charge/)
data_2013[Ce][nan]3[ASR]1
_chemical_formula_sum              "Ce2 H18 C36 N6 O12"
_cell_length_a       10.061
_cell_length_b       11.7219
_cell_length_c       13.6891
_cell_angle_alpha    113.066
_cell_angle_beta     87.182
_cell_angle_gamma    103.743

_symmetry_space_group_name_H-M    "P 1"
_symmetry_Int_Tables_number       1

loop_
  _symmetry_equiv_pos_as_xyz
  'x, y, z'

loop_
  _atom_site_type_symbol
  _atom_site_label
  _atom_site_symmetry_multiplicity
  _atom_site_fract_x
  _atom_site_fract_y
  _atom_site_fract_z
  _atom_site_occupancy
  _atom_site_charge
Ce  Ce1       1.0  0.76481  0.52848  0.49661  1.0000 1.9814357011
Ce  Ce2       1.0  0.23519  0.47152  0.50339  1.0000 1.9814357011
H   H1        1.0  0.30580  0.17340  0.15350  1.0000 0.1380804031
H   H2        1.0  0.69420  0.82660  0.84650  1.0000 0.1380804031
H   H3        1.0  0.68710  0.40040  0.20360  1.0000 0.1302994995
H   H4        1.0  0.31290  0.59960  0.79640  1.0000 0.1302994995
H   H5        1.0  0.72050  0.29750  0.02840  1.0000 0.0990806667
H   H6        1.0  0.27950  0.70250  0.97160  1.0000 0.0990806667
H   H7        1.0  0.44240  0.98860  0.82280  1.0000 0.1302994995
H   H8        1.0  0.55760  0.01140  0.17720  1.0000 0.1302994995
H   H9        1.0  0.05610  0.77250  0.76170  1.0000 0.1302994995
H   H10       1.0  0.94390  0.22750  0.23830  1.0000 0.1302994995
H   H11       1.0  0.01660  0.88220  0.93740  1.0000 0.0905598288
H   H12       1.0  0.98340  0.11780  0.06260  1.0000 0.0905598288
H   H13       1.0  0.09060  0.46620  0.84300  1.0000 0.1302994995
H   H14       1.0  0.90940  0.53380  0.15700  1.0000 0.1302994995
H   H15       1.0  0.77050  0.57920  0.77830  1.0000 0.1302994995
H   H16       1.0  0.22950  0.42080  0.22170  1.0000 0.1302994995
H   H17       1.0  0.70330  0.60720  0.94670  1.0000 0.0990806667
H   H18       1.0  0.29670  0.39280  0.05330  1.0000 0.0990806667
C   C1        1.0  0.46380  0.36260  0.31380  1.0000 0.6377183048
C   C2        1.0  0.53620  0.63740  0.68620  1.0000 0.6377183048
C   C3        1.0  0.42160  0.14250  0.02450  1.0000 0.1688766553
C   C4        1.0  0.57840  0.85750  0.97550  1.0000 0.1688766553
C   C5        1.0  0.39140  0.20010  0.13020  1.0000 -0.1652874874
C   C6        1.0  0.60860  0.79990  0.86980  1.0000 -0.1652874874
C   C7        1.0  0.48940  0.29640  0.19950  1.0000 -0.0015500953
C   C8        1.0  0.51060  0.70360  0.80050  1.0000 -0.0015500953
C   C9        1.0  0.61790  0.33480  0.15940  1.0000 -0.1592164581
C   C10       1.0  0.38210  0.66520  0.84060  1.0000 -0.1592164581
C   C11       1.0  0.63620  0.27230  0.05430  1.0000 0.0691618843
C   C12       1.0  0.36380  0.72770  0.94570  1.0000 0.0691618843
C   C13       1.0  0.29250  0.79470  0.66240  1.0000 0.5777074544
C   C14       1.0  0.70750  0.20530  0.33760  1.0000 0.5777074544
C   C15       1.0  0.31960  0.03210  0.94580  1.0000 0.1688766553
C   C16       1.0  0.68040  0.96790  0.05420  1.0000 0.1688766553
C   C17       1.0  0.35390  0.96650  0.84360  1.0000 -0.1592164581
C   C18       1.0  0.64610  0.03350  0.15640  1.0000 -0.1592164581
C   C19       1.0  0.25780  0.86840  0.77240  1.0000 0.0084925237
C   C20       1.0  0.74220  0.13160  0.22760  1.0000 0.0084925237
C   C21       1.0  0.12510  0.83680  0.80730  1.0000 -0.1592164581
C   C22       1.0  0.87490  0.16320  0.19270  1.0000 -0.1592164581
C   C23       1.0  0.10200  0.90550  0.91220  1.0000 0.0632224677
C   C24       1.0  0.89800  0.09450  0.08780  1.0000 0.0632224677
C   C25       1.0  0.99080  0.49830  0.68090  1.0000 0.6251661627
C   C26       1.0  0.00920  0.50170  0.31910  1.0000 0.6251661627
C   C27       1.0  0.96380  0.51230  0.96040  1.0000 0.1569857223
C   C28       1.0  0.03620  0.48770  0.03960  1.0000 0.1569857223
C   C29       1.0  0.01020  0.49390  0.86210  1.0000 -0.1592164581
C   C30       1.0  0.98980  0.50610  0.13790  1.0000 -0.1592164581
C   C31       1.0  0.93820  0.51630  0.78870  1.0000 0.0084925237
C   C32       1.0  0.06180  0.48370  0.21130  1.0000 0.0084925237
C   C33       1.0  0.82150  0.56120  0.82300  1.0000 -0.1797156633
C   C34       1.0  0.17850  0.43880  0.17700  1.0000 -0.1797156633
C   C35       1.0  0.78270  0.57900  0.92530  1.0000 0.0825123487
C   C36       1.0  0.21730  0.42100  0.07470  1.0000 0.0825123487
N   N1        1.0  0.54190  0.17740  0.98540  1.0000 -0.2736417951
N   N2        1.0  0.45810  0.82260  0.01460  1.0000 -0.2736417951
N   N3        1.0  0.19550  0.00380  0.97980  1.0000 -0.2790714057
N   N4        1.0  0.80450  0.99620  0.02020  1.0000 -0.2790714057
N   N5        1.0  0.84920  0.55780  0.99490  1.0000 -0.289221734
N   N6        1.0  0.15080  0.44220  0.00510  1.0000 -0.289221734
O   O1        1.0  0.56480  0.44250  0.37560  1.0000 -0.6927264483
O   O2        1.0  0.43520  0.55750  0.62440  1.0000 -0.6927264483
O   O3        1.0  0.34170  0.34520  0.34230  1.0000 -0.659313515
O   O4        1.0  0.65830  0.65480  0.65770  1.0000 -0.659313515
O   O5        1.0  0.20820  0.69070  0.60740  1.0000 -0.659313515
O   O6        1.0  0.79180  0.30930  0.39260  1.0000 -0.659313515
O   O7        1.0  0.40240  0.83700  0.62720  1.0000 -0.5204607399
O   O8        1.0  0.59760  0.16300  0.37280  1.0000 -0.5204607399
O   O9        1.0  0.91940  0.51090  0.61620  1.0000 -0.659313515
O   O10       1.0  0.08060  0.48910  0.38380  1.0000 -0.659313515
O   O11       1.0  0.10390  0.47200  0.66310  1.0000 -0.6104657204
O   O12       1.0  0.89610  0.52800  0.33690  1.0000 -0.6104657204
