# DDEC6 charges by PACMAN v1.1 (https://github.com/mtap-research/PACMAN-charge/)
data_2013[SiCu][pcu]3[ASR]1
_chemical_formula_sum              "Cu1 Si1 H16 C24 N4 F6"
_cell_length_a       13.6316
_cell_length_b       13.6316
_cell_length_c       7.968
_cell_angle_alpha    90
_cell_angle_beta     90
_cell_angle_gamma    90

_symmetry_space_group_name_H-M    "P 1"
_symmetry_Int_Tables_number       1

loop_
  _symmetry_equiv_pos_as_xyz
  'x, y, z'

loop_
  _atom_site_type_symbol
  _atom_site_label
  _atom_site_symmetry_multiplicity
  _atom_site_fract_x
  _atom_site_fract_y
  _atom_site_fract_z
  _atom_site_occupancy
  _atom_site_charge
Cu  Cu1       1.0  0.50000  0.50000  0.00000  1.0000 0.7017634985
Si  Si1       1.0  0.50000  0.50000  0.50000  1.0000 1.6589819071
H   H1        1.0  0.50000  0.34046  0.77815  1.0000 0.1456655291
H   H2        1.0  0.50000  0.65954  0.22185  1.0000 0.1456655291
H   H3        1.0  0.50000  0.65954  0.77815  1.0000 0.1456655291
H   H4        1.0  0.50000  0.34046  0.22185  1.0000 0.1456655291
H   H5        1.0  0.65954  0.50000  0.77815  1.0000 0.1456655291
H   H6        1.0  0.34046  0.50000  0.22185  1.0000 0.1456655291
H   H7        1.0  0.34046  0.50000  0.77815  1.0000 0.1456655291
H   H8        1.0  0.65954  0.50000  0.22185  1.0000 0.1456655291
H   H9        1.0  0.50000  0.16489  0.77145  1.0000 0.1456655291
H   H10       1.0  0.50000  0.83511  0.22855  1.0000 0.1456655291
H   H11       1.0  0.50000  0.83511  0.77145  1.0000 0.1456655291
H   H12       1.0  0.50000  0.16489  0.22855  1.0000 0.1456655291
H   H13       1.0  0.83511  0.50000  0.77145  1.0000 0.1456655291
H   H14       1.0  0.16489  0.50000  0.22855  1.0000 0.1456655291
H   H15       1.0  0.16489  0.50000  0.77145  1.0000 0.1456655291
H   H16       1.0  0.83511  0.50000  0.22855  1.0000 0.1456655291
C   C1        1.0  0.50000  0.14510  0.00000  1.0000 0.0946549726
C   C2        1.0  0.50000  0.85490  0.00000  1.0000 0.0953434211
C   C3        1.0  0.85490  0.50000  0.00000  1.0000 0.0953434211
C   C4        1.0  0.14510  0.50000  0.00000  1.0000 0.0953434211
C   C5        1.0  0.50000  0.04446  0.00000  1.0000 -0.1005220702
C   C6        1.0  0.50000  0.95554  0.00000  1.0000 -0.1005220702
C   C7        1.0  0.95554  0.50000  0.00000  1.0000 -0.1005220702
C   C8        1.0  0.04446  0.50000  0.00000  1.0000 -0.1005220702
C   C9        1.0  0.50000  0.29679  0.87663  1.0000 0.0807045092
C   C10       1.0  0.50000  0.70321  0.12337  1.0000 0.0807045092
C   C11       1.0  0.50000  0.70321  0.87663  1.0000 0.0807045092
C   C12       1.0  0.50000  0.29679  0.12337  1.0000 0.0807045092
C   C13       1.0  0.70321  0.50000  0.87663  1.0000 0.0807045092
C   C14       1.0  0.29679  0.50000  0.12337  1.0000 0.0807045092
C   C15       1.0  0.29679  0.50000  0.87663  1.0000 0.0807045092
C   C16       1.0  0.70321  0.50000  0.12337  1.0000 0.0807045092
C   C17       1.0  0.50000  0.20580  0.87474  1.0000 -0.1465561363
C   C18       1.0  0.50000  0.79420  0.12526  1.0000 -0.1465561363
C   C19       1.0  0.50000  0.79420  0.87474  1.0000 -0.1465561363
C   C20       1.0  0.50000  0.20580  0.12526  1.0000 -0.1465561363
C   C21       1.0  0.79420  0.50000  0.87474  1.0000 -0.1465561363
C   C22       1.0  0.20580  0.50000  0.12526  1.0000 -0.1465561363
C   C23       1.0  0.20580  0.50000  0.87474  1.0000 -0.1465561363
C   C24       1.0  0.79420  0.50000  0.12526  1.0000 -0.1465561363
N   N1        1.0  0.50000  0.35557  0.00000  1.0000 -0.2273191782
N   N2        1.0  0.50000  0.64443  0.00000  1.0000 -0.2273191782
N   N3        1.0  0.64443  0.50000  0.00000  1.0000 -0.2273191782
N   N4        1.0  0.35557  0.50000  0.00000  1.0000 -0.2273191782
F   F1        1.0  0.50000  0.50000  0.71289  1.0000 -0.5389835161
F   F2        1.0  0.50000  0.50000  0.28711  1.0000 -0.5389835161
F   F3        1.0  0.50000  0.37908  0.50000  1.0000 -0.5389835161
F   F4        1.0  0.50000  0.62092  0.50000  1.0000 -0.5389835161
F   F5        1.0  0.62092  0.50000  0.50000  1.0000 -0.5389835161
F   F6        1.0  0.37908  0.50000  0.50000  1.0000 -0.5389835161
