# DDEC6 charges by PACMAN v1.1 (https://github.com/mtap-research/PACMAN-charge/)
data_2013[Dy][dia]3[ASR]2
_chemical_formula_sum              "Dy4 C16 O32"
_cell_length_a       9.6315
_cell_length_b       11.613
_cell_length_c       14.3066
_cell_angle_alpha    90
_cell_angle_beta     122.529
_cell_angle_gamma    90

_symmetry_space_group_name_H-M    "P 1"
_symmetry_Int_Tables_number       1

loop_
  _symmetry_equiv_pos_as_xyz
  'x, y, z'

loop_
  _atom_site_type_symbol
  _atom_site_label
  _atom_site_symmetry_multiplicity
  _atom_site_fract_x
  _atom_site_fract_y
  _atom_site_fract_z
  _atom_site_occupancy
  _atom_site_charge
Dy  Dy1       1.0  0.61770  0.51311  0.83240  1.0000 1.9598127019
Dy  Dy2       1.0  0.38230  0.01311  0.66760  1.0000 1.9598127019
Dy  Dy3       1.0  0.38230  0.48689  0.16760  1.0000 1.9598127019
Dy  Dy4       1.0  0.61770  0.98689  0.33240  1.0000 1.9598127019
C   C1        1.0  0.41740  0.74300  0.71700  1.0000 0.5926831972
C   C2        1.0  0.58260  0.24300  0.78300  1.0000 0.5926831972
C   C3        1.0  0.58260  0.25700  0.28300  1.0000 0.5926831972
C   C4        1.0  0.41740  0.75700  0.21700  1.0000 0.5926831972
C   C5        1.0  0.59600  0.78710  0.79310  1.0000 0.5752769869
C   C6        1.0  0.40400  0.28710  0.70690  1.0000 0.5752769869
C   C7        1.0  0.40400  0.21290  0.20690  1.0000 0.5752769869
C   C8        1.0  0.59600  0.71290  0.29310  1.0000 0.5752769869
C   C9        1.0  0.50550  0.43360  0.00110  1.0000 0.5387140524
C   C10       1.0  0.49450  0.93360  0.49890  1.0000 0.5387140524
C   C11       1.0  0.49450  0.56640  0.99890  1.0000 0.5387140524
C   C12       1.0  0.50550  0.06640  0.50110  1.0000 0.5387140524
C   C13       1.0  0.01520  0.50010  0.95220  1.0000 0.5551295441
C   C14       1.0  0.98480  0.00010  0.54780  1.0000 0.5551295441
C   C15       1.0  0.98480  0.49990  0.04780  1.0000 0.5551295441
C   C16       1.0  0.01520  0.99990  0.45220  1.0000 0.5551295441
O   O1        1.0  0.39730  0.63680  0.70720  1.0000 -0.5197287886
O   O2        1.0  0.60270  0.13680  0.79280  1.0000 -0.5197287886
O   O3        1.0  0.60270  0.36320  0.29280  1.0000 -0.5197287886
O   O4        1.0  0.39730  0.86320  0.20720  1.0000 -0.5197287886
O   O5        1.0  0.30640  0.81820  0.67120  1.0000 -0.556400745
O   O6        1.0  0.69360  0.31820  0.82880  1.0000 -0.556400745
O   O7        1.0  0.69360  0.18180  0.32880  1.0000 -0.556400745
O   O8        1.0  0.30640  0.68180  0.17120  1.0000 -0.556400745
O   O9        1.0  0.70530  0.71220  0.84400  1.0000 -0.5385306466
O   O10       1.0  0.29470  0.21220  0.65600  1.0000 -0.5385306466
O   O11       1.0  0.29470  0.28780  0.15600  1.0000 -0.5385306466
O   O12       1.0  0.70530  0.78780  0.34400  1.0000 -0.5385306466
O   O13       1.0  0.61670  0.89380  0.79640  1.0000 -0.527286819
O   O14       1.0  0.38330  0.39380  0.70360  1.0000 -0.527286819
O   O15       1.0  0.38330  0.10620  0.20360  1.0000 -0.527286819
O   O16       1.0  0.61670  0.60620  0.29640  1.0000 -0.527286819
O   O17       1.0  0.53870  0.38850  0.93600  1.0000 -0.5129250873
O   O18       1.0  0.46130  0.88850  0.56400  1.0000 -0.5129250873
O   O19       1.0  0.46130  0.61150  0.06400  1.0000 -0.5129250873
O   O20       1.0  0.53870  0.11150  0.43600  1.0000 -0.5129250873
O   O21       1.0  0.48040  0.38200  0.06720  1.0000 -0.5197287886
O   O22       1.0  0.51960  0.88200  0.43280  1.0000 -0.5197287886
O   O23       1.0  0.51960  0.61800  0.93280  1.0000 -0.5197287886
O   O24       1.0  0.48040  0.11800  0.56720  1.0000 -0.5197287886
O   O25       1.0  0.88940  0.51030  0.85660  1.0000 -0.5197287886
O   O26       1.0  0.11060  0.01030  0.64340  1.0000 -0.5197287886
O   O27       1.0  0.11060  0.48970  0.14340  1.0000 -0.5197287886
O   O28       1.0  0.88940  0.98970  0.35660  1.0000 -0.5197287886
O   O29       1.0  0.15990  0.48840  0.97770  1.0000 -0.527286819
O   O30       1.0  0.84010  0.98840  0.52230  1.0000 -0.527286819
O   O31       1.0  0.84010  0.51160  0.02230  1.0000 -0.527286819
O   O32       1.0  0.15990  0.01160  0.47770  1.0000 -0.527286819
