# DDEC6 charges by PACMAN v1.1 (https://github.com/mtap-research/PACMAN-charge/)
data_2013[Zn][ths]3[ASR]13
_chemical_formula_sum              "Zn12 H96 C144 I24 N48"
_cell_length_a       19.0215
_cell_length_b       19.0215
_cell_length_c       30.527
_cell_angle_alpha    79.7912
_cell_angle_beta     100.209
_cell_angle_gamma    134.319

_symmetry_space_group_name_H-M    "P 1"
_symmetry_Int_Tables_number       1

loop_
  _symmetry_equiv_pos_as_xyz
  'x, y, z'

loop_
  _atom_site_type_symbol
  _atom_site_label
  _atom_site_symmetry_multiplicity
  _atom_site_fract_x
  _atom_site_fract_y
  _atom_site_fract_z
  _atom_site_occupancy
  _atom_site_charge
Zn  Zn1       1.0  0.52577  0.18061  0.27221  1.0000 0.4439021289
Zn  Zn2       1.0  0.81939  0.47423  0.77221  1.0000 0.4439021289
Zn  Zn3       1.0  0.94729  0.79577  0.59988  1.0000 0.4601235963
Zn  Zn4       1.0  0.20423  0.05271  0.09988  1.0000 0.4601235963
Zn  Zn5       1.0  0.47837  0.72935  0.43561  1.0000 0.4601235963
Zn  Zn6       1.0  0.27065  0.52163  0.93561  1.0000 0.4601235963
Zn  Zn7       1.0  0.18061  0.52577  0.22779  1.0000 0.4439021289
Zn  Zn8       1.0  0.47423  0.81939  0.72779  1.0000 0.4439021289
Zn  Zn9       1.0  0.79577  0.94729  0.90012  1.0000 0.4601235963
Zn  Zn10      1.0  0.05271  0.20423  0.40012  1.0000 0.4601235963
Zn  Zn11      1.0  0.72935  0.47837  0.06439  1.0000 0.4601235963
Zn  Zn12      1.0  0.52163  0.27065  0.56439  1.0000 0.4601235963
H   H1        1.0  0.50130  0.30950  0.28880  1.0000 0.1013829056
H   H2        1.0  0.69050  0.49870  0.78880  1.0000 0.1013829056
H   H3        1.0  0.44610  0.33390  0.33990  1.0000 0.1299639612
H   H4        1.0  0.66610  0.55390  0.83990  1.0000 0.1299639612
H   H5        1.0  0.36730  0.09090  0.41320  1.0000 0.1299639612
H   H6        1.0  0.90910  0.63270  0.91320  1.0000 0.1299639612
H   H7        1.0  0.43280  0.07780  0.36140  1.0000 0.107382963
H   H8        1.0  0.92220  0.56720  0.86140  1.0000 0.107382963
H   H9        1.0  0.40190  0.55470  0.50490  1.0000 0.1013829056
H   H10       1.0  0.44530  0.59810  0.00490  1.0000 0.1013829056
H   H11       1.0  0.35780  0.40520  0.50870  1.0000 0.138277408
H   H12       1.0  0.59480  0.64220  0.00870  1.0000 0.138277408
H   H13       1.0  0.41830  0.46050  0.38110  1.0000 0.138277408
H   H14       1.0  0.53950  0.58170  0.88110  1.0000 0.138277408
H   H15       1.0  0.46790  0.61170  0.38110  1.0000 0.1013829056
H   H16       1.0  0.38830  0.53210  0.88110  1.0000 0.1013829056
H   H17       1.0  0.07290  0.84950  0.53140  1.0000 0.107382963
H   H18       1.0  0.15050  0.92710  0.03140  1.0000 0.107382963
H   H19       1.0  0.19430  0.98310  0.48550  1.0000 0.138277408
H   H20       1.0  0.01690  0.80570  0.98550  1.0000 0.138277408
H   H21       1.0  0.03240  0.00340  0.57060  1.0000 0.1013829056
H   H22       1.0  0.99660  0.96760  0.07060  1.0000 0.1013829056
H   H23       1.0  0.15260  0.14160  0.52550  1.0000 0.138277408
H   H24       1.0  0.85840  0.84740  0.02550  1.0000 0.138277408
H   H25       1.0  0.12640  0.96540  0.64560  1.0000 0.1013829056
H   H26       1.0  0.03460  0.87360  0.14560  1.0000 0.1013829056
H   H27       1.0  0.25090  0.01090  0.70080  1.0000 0.1299639612
H   H28       1.0  0.98910  0.74910  0.20080  1.0000 0.1299639612
H   H29       1.0  0.11980  0.72660  0.71870  1.0000 0.1299639612
H   H30       1.0  0.27340  0.88020  0.21870  1.0000 0.1299639612
H   H31       1.0  0.00260  0.69080  0.66120  1.0000 0.107382963
H   H32       1.0  0.30920  0.99740  0.16120  1.0000 0.107382963
H   H33       1.0  0.74790  0.28150  0.82320  1.0000 0.107382963
H   H34       1.0  0.71850  0.25210  0.32320  1.0000 0.107382963
H   H35       1.0  0.60370  0.11470  0.82940  1.0000 0.138277408
H   H36       1.0  0.88530  0.39630  0.32940  1.0000 0.138277408
H   H37       1.0  0.46320  0.17580  0.74310  1.0000 0.138277408
H   H38       1.0  0.82420  0.53680  0.24310  1.0000 0.138277408
H   H39       1.0  0.61040  0.33840  0.73740  1.0000 0.1013829056
H   H40       1.0  0.66160  0.38960  0.23740  1.0000 0.1013829056
H   H41       1.0  0.18280  0.54580  0.84850  1.0000 0.1013829056
H   H42       1.0  0.45420  0.81720  0.34850  1.0000 0.1013829056
H   H43       1.0  0.20430  0.66690  0.80140  1.0000 0.1204840332
H   H44       1.0  0.33310  0.79570  0.30140  1.0000 0.1204840332
H   H45       1.0  0.44960  0.86960  0.87870  1.0000 0.1299639612
H   H46       1.0  0.13040  0.55040  0.37870  1.0000 0.1299639612
H   H47       1.0  0.42060  0.74020  0.92300  1.0000 0.1013829056
H   H48       1.0  0.25980  0.57940  0.42300  1.0000 0.1013829056
H   H49       1.0  0.30950  0.50130  0.21120  1.0000 0.1013829056
H   H50       1.0  0.49870  0.69050  0.71120  1.0000 0.1013829056
H   H51       1.0  0.33390  0.44610  0.16010  1.0000 0.1299639612
H   H52       1.0  0.55390  0.66610  0.66010  1.0000 0.1299639612
H   H53       1.0  0.09090  0.36730  0.08680  1.0000 0.1299639612
H   H54       1.0  0.63270  0.90910  0.58680  1.0000 0.1299639612
H   H55       1.0  0.07780  0.43280  0.13860  1.0000 0.107382963
H   H56       1.0  0.56720  0.92220  0.63860  1.0000 0.107382963
H   H57       1.0  0.55470  0.40190  0.99510  1.0000 0.1013829056
H   H58       1.0  0.59810  0.44530  0.49510  1.0000 0.1013829056
H   H59       1.0  0.40520  0.35780  0.99130  1.0000 0.138277408
H   H60       1.0  0.64220  0.59480  0.49130  1.0000 0.138277408
H   H61       1.0  0.46050  0.41830  0.11890  1.0000 0.138277408
H   H62       1.0  0.58170  0.53950  0.61890  1.0000 0.138277408
H   H63       1.0  0.61170  0.46790  0.11890  1.0000 0.1013829056
H   H64       1.0  0.53210  0.38830  0.61890  1.0000 0.1013829056
H   H65       1.0  0.84950  0.07290  0.96860  1.0000 0.107382963
H   H66       1.0  0.92710  0.15050  0.46860  1.0000 0.107382963
H   H67       1.0  0.98310  0.19430  0.01450  1.0000 0.138277408
H   H68       1.0  0.80570  0.01690  0.51450  1.0000 0.138277408
H   H69       1.0  0.00340  0.03240  0.92940  1.0000 0.1013829056
H   H70       1.0  0.96760  0.99660  0.42940  1.0000 0.1013829056
H   H71       1.0  0.14160  0.15260  0.97450  1.0000 0.138277408
H   H72       1.0  0.84740  0.85840  0.47450  1.0000 0.138277408
H   H73       1.0  0.96540  0.12640  0.85440  1.0000 0.1013829056
H   H74       1.0  0.87360  0.03460  0.35440  1.0000 0.1013829056
H   H75       1.0  0.01090  0.25090  0.79920  1.0000 0.1299639612
H   H76       1.0  0.74910  0.98910  0.29920  1.0000 0.1299639612
H   H77       1.0  0.72660  0.11980  0.78130  1.0000 0.1299639612
H   H78       1.0  0.88020  0.27340  0.28130  1.0000 0.1299639612
H   H79       1.0  0.69080  0.00260  0.83880  1.0000 0.107382963
H   H80       1.0  0.99740  0.30920  0.33880  1.0000 0.107382963
H   H81       1.0  0.28150  0.74790  0.67680  1.0000 0.107382963
H   H82       1.0  0.25210  0.71850  0.17680  1.0000 0.107382963
H   H83       1.0  0.11470  0.60370  0.67060  1.0000 0.138277408
H   H84       1.0  0.39630  0.88530  0.17060  1.0000 0.138277408
H   H85       1.0  0.17580  0.46320  0.75690  1.0000 0.138277408
H   H86       1.0  0.53680  0.82420  0.25690  1.0000 0.138277408
H   H87       1.0  0.33840  0.61040  0.76260  1.0000 0.1013829056
H   H88       1.0  0.38960  0.66160  0.26260  1.0000 0.1013829056
H   H89       1.0  0.54580  0.18280  0.65150  1.0000 0.1013829056
H   H90       1.0  0.81720  0.45420  0.15150  1.0000 0.1013829056
H   H91       1.0  0.66690  0.20430  0.69860  1.0000 0.1204840332
H   H92       1.0  0.79570  0.33310  0.19860  1.0000 0.1204840332
H   H93       1.0  0.86960  0.44960  0.62130  1.0000 0.1299639612
H   H94       1.0  0.55040  0.13040  0.12130  1.0000 0.1299639612
H   H95       1.0  0.74020  0.42060  0.57700  1.0000 0.1013829056
H   H96       1.0  0.57940  0.25980  0.07700  1.0000 0.1013829056
C   C1        1.0  0.47511  0.26569  0.31490  1.0000 0.0783627687
C   C2        1.0  0.73431  0.52489  0.81490  1.0000 0.0783627687
C   C3        1.0  0.44110  0.27990  0.34480  1.0000 -0.1421936118
C   C4        1.0  0.72010  0.55890  0.84480  1.0000 -0.1421936118
C   C5        1.0  0.39833  0.21347  0.38305  1.0000 0.0678064515
C   C6        1.0  0.78653  0.60167  0.88305  1.0000 0.0678064515
C   C7        1.0  0.39573  0.13767  0.38810  1.0000 -0.1309833698
C   C8        1.0  0.86233  0.60427  0.88810  1.0000 -0.1309833698
C   C9        1.0  0.43417  0.12943  0.35700  1.0000 0.0783627687
C   C10       1.0  0.87057  0.56583  0.85700  1.0000 0.0783627687
C   C11       1.0  0.36083  0.22617  0.41546  1.0000 0.3714674354
C   C12       1.0  0.77383  0.63917  0.91546  1.0000 0.3714674354
C   C13       1.0  0.35591  0.32249  0.44624  1.0000 0.3714674354
C   C14       1.0  0.67751  0.64409  0.94624  1.0000 0.3714674354
C   C15       1.0  0.26304  0.16296  0.47130  1.0000 0.3796122499
C   C16       1.0  0.83704  0.73696  0.97130  1.0000 0.3796122499
C   C17       1.0  0.40636  0.53564  0.47960  1.0000 0.0783627687
C   C18       1.0  0.46436  0.59364  0.97960  1.0000 0.0783627687
C   C19       1.0  0.37994  0.44666  0.48180  1.0000 -0.1421936118
C   C20       1.0  0.55334  0.62006  0.98180  1.0000 -0.1421936118
C   C21       1.0  0.38507  0.41713  0.44567  1.0000 0.0535572009
C   C22       1.0  0.58287  0.61493  0.94567  1.0000 0.0535572009
C   C23       1.0  0.41600  0.47900  0.40740  1.0000 -0.1421936118
C   C24       1.0  0.52100  0.58400  0.90740  1.0000 -0.1421936118
C   C25       1.0  0.44380  0.56820  0.40740  1.0000 0.1013829056
C   C26       1.0  0.43180  0.55620  0.90740  1.0000 0.1013829056
C   C27       1.0  0.08960  0.91000  0.53020  1.0000 0.0783627687
C   C28       1.0  0.09000  0.91040  0.03020  1.0000 0.0783627687
C   C29       1.0  0.16180  0.98920  0.50260  1.0000 -0.1421936118
C   C30       1.0  0.01080  0.83820  0.00260  1.0000 -0.1421936118
C   C31       1.0  0.18565  0.07675  0.50027  1.0000 0.0598989966
C   C32       1.0  0.92325  0.81435  0.00027  1.0000 0.0598989966
C   C33       1.0  0.06592  0.99928  0.55300  1.0000 0.0783627687
C   C34       1.0  0.00072  0.93408  0.05300  1.0000 0.0783627687
C   C35       1.0  0.13748  0.08212  0.52603  1.0000 -0.1495999027
C   C36       1.0  0.91788  0.86252  0.02603  1.0000 -0.1495999027
C   C37       1.0  0.12605  0.91675  0.66030  1.0000 0.0783627687
C   C38       1.0  0.08325  0.87395  0.16030  1.0000 0.0783627687
C   C39       1.0  0.20019  0.94441  0.69330  1.0000 -0.1309833698
C   C40       1.0  0.05559  0.79981  0.19330  1.0000 -0.1309833698
C   C41       1.0  0.19888  0.87372  0.71477  1.0000 0.0598989966
C   C42       1.0  0.12628  0.80112  0.21477  1.0000 0.0598989966
C   C43       1.0  0.12358  0.77722  0.70364  1.0000 -0.1495999027
C   C44       1.0  0.22278  0.87642  0.20364  1.0000 -0.1495999027
C   C45       1.0  0.05355  0.75665  0.66970  1.0000 0.0863379087
C   C46       1.0  0.24335  0.94645  0.16970  1.0000 0.0863379087
C   C47       1.0  0.27778  0.90122  0.74972  1.0000 0.3796122499
C   C48       1.0  0.09878  0.72222  0.24972  1.0000 0.3796122499
C   C49       1.0  0.42682  0.02038  0.78472  1.0000 0.3714674354
C   C50       1.0  0.97962  0.57318  0.28472  1.0000 0.3714674354
C   C51       1.0  0.33997  0.85943  0.80588  1.0000 0.3714674354
C   C52       1.0  0.14057  0.66003  0.30588  1.0000 0.3714674354
C   C53       1.0  0.68959  0.25921  0.80600  1.0000 0.0863379087
C   C54       1.0  0.74079  0.31041  0.30600  1.0000 0.0863379087
C   C55       1.0  0.60361  0.15939  0.80980  1.0000 -0.158111012
C   C56       1.0  0.84061  0.39639  0.30980  1.0000 -0.158111012
C   C57       1.0  0.51831  0.12609  0.78500  1.0000 0.0598989966
C   C58       1.0  0.87391  0.48169  0.28500  1.0000 0.0598989966
C   C59       1.0  0.52146  0.19514  0.75900  1.0000 -0.1421936118
C   C60       1.0  0.80486  0.47854  0.25900  1.0000 -0.1421936118
C   C61       1.0  0.60907  0.29213  0.75630  1.0000 0.0678064515
C   C62       1.0  0.70787  0.39093  0.25630  1.0000 0.0678064515
C   C63       1.0  0.23737  0.61263  0.85460  1.0000 0.0678064515
C   C64       1.0  0.38737  0.76263  0.35460  1.0000 0.0678064515
C   C65       1.0  0.24959  0.68401  0.82660  1.0000 -0.1421936118
C   C66       1.0  0.31599  0.75041  0.32660  1.0000 -0.1421936118
C   C67       1.0  0.32952  0.78268  0.83535  1.0000 0.0535572009
C   C68       1.0  0.21732  0.67048  0.33535  1.0000 0.0535572009
C   C69       1.0  0.39390  0.80350  0.87180  1.0000 -0.1421936118
C   C70       1.0  0.19650  0.60610  0.37180  1.0000 -0.1421936118
C   C71       1.0  0.37550  0.72550  0.89810  1.0000 0.1013829056
C   C72       1.0  0.27450  0.62450  0.39810  1.0000 0.1013829056
C   C73       1.0  0.26569  0.47511  0.18510  1.0000 0.0783627687
C   C74       1.0  0.52489  0.73431  0.68510  1.0000 0.0783627687
C   C75       1.0  0.27990  0.44110  0.15520  1.0000 -0.1421936118
C   C76       1.0  0.55890  0.72010  0.65520  1.0000 -0.1421936118
C   C77       1.0  0.21347  0.39833  0.11695  1.0000 0.0678064515
C   C78       1.0  0.60167  0.78653  0.61695  1.0000 0.0678064515
C   C79       1.0  0.13767  0.39573  0.11190  1.0000 -0.1309833698
C   C80       1.0  0.60427  0.86233  0.61190  1.0000 -0.1309833698
C   C81       1.0  0.12943  0.43417  0.14300  1.0000 0.0783627687
C   C82       1.0  0.56583  0.87057  0.64300  1.0000 0.0783627687
C   C83       1.0  0.22617  0.36083  0.08454  1.0000 0.3714674354
C   C84       1.0  0.63917  0.77383  0.58454  1.0000 0.3714674354
C   C85       1.0  0.32249  0.35591  0.05376  1.0000 0.3714674354
C   C86       1.0  0.64409  0.67751  0.55376  1.0000 0.3714674354
C   C87       1.0  0.16296  0.26304  0.02870  1.0000 0.3796122499
C   C88       1.0  0.73696  0.83704  0.52870  1.0000 0.3796122499
C   C89       1.0  0.53564  0.40636  0.02040  1.0000 0.0783627687
C   C90       1.0  0.59364  0.46436  0.52040  1.0000 0.0783627687
C   C91       1.0  0.44666  0.37994  0.01820  1.0000 -0.1421936118
C   C92       1.0  0.62006  0.55334  0.51820  1.0000 -0.1421936118
C   C93       1.0  0.41713  0.38507  0.05433  1.0000 0.0535572009
C   C94       1.0  0.61493  0.58287  0.55433  1.0000 0.0535572009
C   C95       1.0  0.47900  0.41600  0.09260  1.0000 -0.1421936118
C   C96       1.0  0.58400  0.52100  0.59260  1.0000 -0.1421936118
C   C97       1.0  0.56820  0.44380  0.09260  1.0000 0.1013829056
C   C98       1.0  0.55620  0.43180  0.59260  1.0000 0.1013829056
C   C99       1.0  0.91000  0.08960  0.96980  1.0000 0.0783627687
C   C100      1.0  0.91040  0.09000  0.46980  1.0000 0.0783627687
C   C101      1.0  0.98920  0.16180  0.99740  1.0000 -0.1421936118
C   C102      1.0  0.83820  0.01080  0.49740  1.0000 -0.1421936118
C   C103      1.0  0.07675  0.18565  0.99973  1.0000 0.0598989966
C   C104      1.0  0.81435  0.92325  0.49973  1.0000 0.0598989966
C   C105      1.0  0.99928  0.06592  0.94700  1.0000 0.0783627687
C   C106      1.0  0.93408  0.00072  0.44700  1.0000 0.0783627687
C   C107      1.0  0.08212  0.13748  0.97397  1.0000 -0.1495999027
C   C108      1.0  0.86252  0.91788  0.47397  1.0000 -0.1495999027
C   C109      1.0  0.91675  0.12605  0.83970  1.0000 0.0783627687
C   C110      1.0  0.87395  0.08325  0.33970  1.0000 0.0783627687
C   C111      1.0  0.94441  0.20019  0.80670  1.0000 -0.1309833698
C   C112      1.0  0.79981  0.05559  0.30670  1.0000 -0.1309833698
C   C113      1.0  0.87372  0.19888  0.78523  1.0000 0.0598989966
C   C114      1.0  0.80112  0.12628  0.28523  1.0000 0.0598989966
C   C115      1.0  0.77722  0.12358  0.79636  1.0000 -0.1495999027
C   C116      1.0  0.87642  0.22278  0.29636  1.0000 -0.1495999027
C   C117      1.0  0.75665  0.05355  0.83030  1.0000 0.0863379087
C   C118      1.0  0.94645  0.24335  0.33030  1.0000 0.0863379087
C   C119      1.0  0.90122  0.27778  0.75028  1.0000 0.3796122499
C   C120      1.0  0.72222  0.09878  0.25028  1.0000 0.3796122499
C   C121      1.0  0.02038  0.42682  0.71528  1.0000 0.3714674354
C   C122      1.0  0.57318  0.97962  0.21528  1.0000 0.3714674354
C   C123      1.0  0.85943  0.33997  0.69412  1.0000 0.3714674354
C   C124      1.0  0.66003  0.14057  0.19412  1.0000 0.3714674354
C   C125      1.0  0.25921  0.68959  0.69400  1.0000 0.0863379087
C   C126      1.0  0.31041  0.74079  0.19400  1.0000 0.0863379087
C   C127      1.0  0.15939  0.60361  0.69020  1.0000 -0.158111012
C   C128      1.0  0.39639  0.84061  0.19020  1.0000 -0.158111012
C   C129      1.0  0.12609  0.51831  0.71500  1.0000 0.0598989966
C   C130      1.0  0.48169  0.87391  0.21500  1.0000 0.0598989966
C   C131      1.0  0.19514  0.52146  0.74100  1.0000 -0.1421936118
C   C132      1.0  0.47854  0.80486  0.24100  1.0000 -0.1421936118
C   C133      1.0  0.29213  0.60907  0.74370  1.0000 0.0678064515
C   C134      1.0  0.39093  0.70787  0.24370  1.0000 0.0678064515
C   C135      1.0  0.61263  0.23737  0.64540  1.0000 0.0678064515
C   C136      1.0  0.76263  0.38737  0.14540  1.0000 0.0678064515
C   C137      1.0  0.68401  0.24959  0.67340  1.0000 -0.1421936118
C   C138      1.0  0.75041  0.31599  0.17340  1.0000 -0.1421936118
C   C139      1.0  0.78268  0.32952  0.66465  1.0000 0.0535572009
C   C140      1.0  0.67048  0.21732  0.16465  1.0000 0.0535572009
C   C141      1.0  0.80350  0.39390  0.62820  1.0000 -0.1421936118
C   C142      1.0  0.60610  0.19650  0.12820  1.0000 -0.1421936118
C   C143      1.0  0.72550  0.37550  0.60190  1.0000 0.1013829056
C   C144      1.0  0.62450  0.27450  0.10190  1.0000 0.1013829056
I   I1        1.0  0.46287  0.20959  0.19695  1.0000 -0.436315302
I   I2        1.0  0.79041  0.53713  0.69695  1.0000 -0.436315302
I   I3        1.0  0.50108  0.03038  0.29571  1.0000 -0.4325711965
I   I4        1.0  0.96962  0.49892  0.79571  1.0000 -0.4325711965
I   I5        1.0  0.86397  0.82993  0.63571  1.0000 -0.436315302
I   I6        1.0  0.17007  0.13603  0.13571  1.0000 -0.4325711965
I   I7        1.0  0.86911  0.64585  0.56104  1.0000 -0.436315302
I   I8        1.0  0.35415  0.13089  0.06104  1.0000 -0.436315302
I   I9        1.0  0.63503  0.85069  0.39517  1.0000 -0.4563911691
I   I10       1.0  0.14931  0.36497  0.89517  1.0000 -0.4563911691
I   I11       1.0  0.45222  0.75250  0.50814  1.0000 -0.436315302
I   I12       1.0  0.24750  0.54778  0.00814  1.0000 -0.436315302
I   I13       1.0  0.20959  0.46287  0.30305  1.0000 -0.436315302
I   I14       1.0  0.53713  0.79041  0.80305  1.0000 -0.436315302
I   I15       1.0  0.03038  0.50108  0.20429  1.0000 -0.4325711965
I   I16       1.0  0.49892  0.96962  0.70429  1.0000 -0.4325711965
I   I17       1.0  0.82993  0.86397  0.86429  1.0000 -0.436315302
I   I18       1.0  0.13603  0.17007  0.36429  1.0000 -0.436315302
I   I19       1.0  0.64585  0.86911  0.93896  1.0000 -0.436315302
I   I20       1.0  0.13089  0.35415  0.43896  1.0000 -0.436315302
I   I21       1.0  0.85069  0.63503  0.10483  1.0000 -0.4563911691
I   I22       1.0  0.36497  0.14931  0.60483  1.0000 -0.4563911691
I   I23       1.0  0.75250  0.45222  0.99186  1.0000 -0.436315302
I   I24       1.0  0.54778  0.24750  0.49186  1.0000 -0.436315302
N   N1        1.0  0.47342  0.19332  0.32045  1.0000 -0.1872296058
N   N2        1.0  0.80668  0.52658  0.82045  1.0000 -0.1872296058
N   N3        1.0  0.39200  0.31360  0.41560  1.0000 -0.3953457534
N   N4        1.0  0.68640  0.60800  0.91560  1.0000 -0.3953457534
N   N5        1.0  0.29222  0.24918  0.47530  1.0000 -0.3925890237
N   N6        1.0  0.75082  0.70778  0.97530  1.0000 -0.3925890237
N   N7        1.0  0.29534  0.14726  0.44300  1.0000 -0.3925890237
N   N8        1.0  0.85274  0.70466  0.94300  1.0000 -0.3925890237
N   N9        1.0  0.43833  0.59547  0.44196  1.0000 -0.179845693
N   N10       1.0  0.40453  0.56167  0.94196  1.0000 -0.179845693
N   N11       1.0  0.04327  0.91573  0.55492  1.0000 -0.1872296058
N   N12       1.0  0.08427  0.95673  0.05492  1.0000 -0.1872296058
N   N13       1.0  0.05425  0.82435  0.64853  1.0000 -0.179845693
N   N14       1.0  0.17565  0.94575  0.14853  1.0000 -0.179845693
N   N15       1.0  0.35573  0.99947  0.75432  1.0000 -0.3925890237
N   N16       1.0  0.00053  0.64427  0.25432  1.0000 -0.3925890237
N   N17       1.0  0.42301  0.95599  0.81240  1.0000 -0.3925890237
N   N18       1.0  0.04401  0.57699  0.31240  1.0000 -0.3925890237
N   N19       1.0  0.26908  0.83012  0.77348  1.0000 -0.3781917155
N   N20       1.0  0.16988  0.73092  0.27348  1.0000 -0.3781917155
N   N21       1.0  0.69275  0.32405  0.77916  1.0000 -0.179845693
N   N22       1.0  0.67595  0.30725  0.27916  1.0000 -0.179845693
N   N23       1.0  0.29934  0.63266  0.89077  1.0000 -0.179845693
N   N24       1.0  0.36734  0.70066  0.39077  1.0000 -0.179845693
N   N25       1.0  0.19332  0.47342  0.17955  1.0000 -0.1872296058
N   N26       1.0  0.52658  0.80668  0.67955  1.0000 -0.1872296058
N   N27       1.0  0.31360  0.39200  0.08440  1.0000 -0.3953457534
N   N28       1.0  0.60800  0.68640  0.58440  1.0000 -0.3953457534
N   N29       1.0  0.24918  0.29222  0.02470  1.0000 -0.3925890237
N   N30       1.0  0.70778  0.75082  0.52470  1.0000 -0.3925890237
N   N31       1.0  0.14726  0.29534  0.05700  1.0000 -0.3925890237
N   N32       1.0  0.70466  0.85274  0.55700  1.0000 -0.3925890237
N   N33       1.0  0.59547  0.43833  0.05804  1.0000 -0.179845693
N   N34       1.0  0.56167  0.40453  0.55804  1.0000 -0.179845693
N   N35       1.0  0.91573  0.04327  0.94508  1.0000 -0.1872296058
N   N36       1.0  0.95673  0.08427  0.44508  1.0000 -0.1872296058
N   N37       1.0  0.82435  0.05425  0.85147  1.0000 -0.179845693
N   N38       1.0  0.94575  0.17565  0.35147  1.0000 -0.179845693
N   N39       1.0  0.99947  0.35573  0.74568  1.0000 -0.3925890237
N   N40       1.0  0.64427  0.00053  0.24568  1.0000 -0.3925890237
N   N41       1.0  0.95599  0.42301  0.68760  1.0000 -0.3925890237
N   N42       1.0  0.57699  0.04401  0.18760  1.0000 -0.3925890237
N   N43       1.0  0.83012  0.26908  0.72652  1.0000 -0.3781917155
N   N44       1.0  0.73092  0.16988  0.22652  1.0000 -0.3781917155
N   N45       1.0  0.32405  0.69275  0.72084  1.0000 -0.179845693
N   N46       1.0  0.30725  0.67595  0.22084  1.0000 -0.179845693
N   N47       1.0  0.63266  0.29934  0.60923  1.0000 -0.179845693
N   N48       1.0  0.70066  0.36734  0.10923  1.0000 -0.179845693
