# DDEC6 charges by PACMAN v1.1 (https://github.com/mtap-research/PACMAN-charge/)
data_2013[Pr][nan]3[ASR]2
_chemical_formula_sum              "Pr2 H10 C20 O14"
_cell_length_a       10.7118
_cell_length_b       10.7118
_cell_length_c       6.6627
_cell_angle_alpha    75.1261
_cell_angle_beta     104.874
_cell_angle_gamma    126.313

_symmetry_space_group_name_H-M    "P 1"
_symmetry_Int_Tables_number       1

loop_
  _symmetry_equiv_pos_as_xyz
  'x, y, z'

loop_
  _atom_site_type_symbol
  _atom_site_label
  _atom_site_symmetry_multiplicity
  _atom_site_fract_x
  _atom_site_fract_y
  _atom_site_fract_z
  _atom_site_occupancy
  _atom_site_charge
Pr  Pr1       1.0  0.81210  0.70884  0.97560  1.0000 1.9570845844
Pr  Pr2       1.0  0.29116  0.18790  0.47560  1.0000 1.9570845844
H   H1        1.0  0.19450  0.47750  0.96320  1.0000 0.113002214
H   H2        1.0  0.52250  0.80550  0.46320  1.0000 0.113002214
H   H3        1.0  0.14130  0.65330  0.78420  1.0000 0.128393519
H   H4        1.0  0.34670  0.85870  0.28420  1.0000 0.128393519
H   H5        1.0  0.58650  0.99270  0.88820  1.0000 0.136692691
H   H6        1.0  0.00730  0.41350  0.38820  1.0000 0.136692691
H   H7        1.0  0.81170  0.05030  0.02340  1.0000 0.136692691
H   H8        1.0  0.94970  0.18830  0.52340  1.0000 0.136692691
H   H9        1.0  0.74030  0.97690  0.23590  1.0000 0.136692691
H   H10       1.0  0.02310  0.25970  0.73590  1.0000 0.136692691
C   C1        1.0  0.53890  0.77990  0.99510  1.0000 0.2356319608
C   C2        1.0  0.22010  0.46110  0.49510  1.0000 0.2356319608
C   C3        1.0  0.42470  0.62730  0.01530  1.0000 -0.1989106505
C   C4        1.0  0.37270  0.57530  0.51530  1.0000 -0.1989106505
C   C5        1.0  0.27550  0.58270  0.94230  1.0000 -0.0972614555
C   C6        1.0  0.41730  0.72450  0.44230  1.0000 -0.0972614555
C   C7        1.0  0.24320  0.68580  0.84200  1.0000 -0.1062260873
C   C8        1.0  0.31420  0.75680  0.34200  1.0000 -0.1062260873
C   C9        1.0  0.35930  0.83750  0.82480  1.0000 -0.0223986634
C   C10       1.0  0.16250  0.64070  0.32480  1.0000 -0.0223986634
C   C11       1.0  0.50710  0.88670  0.90050  1.0000 -0.2352930723
C   C12       1.0  0.11330  0.49290  0.40050  1.0000 -0.2338356345
C   C13       1.0  0.78670  0.96650  0.13940  1.0000 -0.1989106505
C   C14       1.0  0.03350  0.21330  0.63940  1.0000 -0.1989106505
C   C15       1.0  0.92940  0.97380  0.24700  1.0000 0.6196540923
C   C16       1.0  0.02620  0.07060  0.74700  1.0000 0.6196540923
C   C17       1.0  0.45020  0.50540  0.12310  1.0000 0.6196540923
C   C18       1.0  0.49460  0.54980  0.62310  1.0000 0.6196540923
C   C19       1.0  0.33010  0.95630  0.71930  1.0000 0.5366811634
C   C20       1.0  0.04370  0.66990  0.21930  1.0000 0.5366811634
O   O1        1.0  0.68320  0.82120  0.06610  1.0000 -0.3001189648
O   O2        1.0  0.17880  0.31680  0.56610  1.0000 -0.3001189648
O   O3        1.0  0.03130  0.09070  0.31790  1.0000 -0.5885574488
O   O4        1.0  0.90930  0.96870  0.81790  1.0000 -0.5885574488
O   O5        1.0  0.92490  0.85650  0.26030  1.0000 -0.5755781351
O   O6        1.0  0.14350  0.07510  0.76030  1.0000 -0.5755781351
O   O7        1.0  0.58140  0.53480  0.13460  1.0000 -0.6136125146
O   O8        1.0  0.46520  0.41860  0.63460  1.0000 -0.6136125146
O   O9        1.0  0.34370  0.38530  0.19430  1.0000 -0.5885574488
O   O10       1.0  0.61470  0.65630  0.69430  1.0000 -0.5885574488
O   O11       1.0  0.21600  0.91780  0.58300  1.0000 -0.5588500022
O   O12       1.0  0.08220  0.78400  0.08300  1.0000 -0.5588500022
O   O13       1.0  0.41830  0.08670  0.75730  1.0000 -0.5366333245
O   O14       1.0  0.91330  0.58170  0.25730  1.0000 -0.5366333245
