# DDEC6 charges by PACMAN v1.1 (https://github.com/mtap-research/PACMAN-charge/)
data_2013[Zn][pto]3[ASR]1
_chemical_formula_sum              "Zn24 H336 C624 O96"
_cell_length_a       32.8643
_cell_length_b       32.8643
_cell_length_c       32.8643
_cell_angle_alpha    90
_cell_angle_beta     90
_cell_angle_gamma    90

_symmetry_space_group_name_H-M    "P 1"
_symmetry_Int_Tables_number       1

loop_
  _symmetry_equiv_pos_as_xyz
  'x, y, z'

loop_
  _atom_site_type_symbol
  _atom_site_label
  _atom_site_symmetry_multiplicity
  _atom_site_fract_x
  _atom_site_fract_y
  _atom_site_fract_z
  _atom_site_occupancy
  _atom_site_charge
Zn  Zn1       1.0  0.50000  0.00000  0.20412  1.0000 0.9567133858
Zn  Zn2       1.0  0.50000  0.00000  0.79588  1.0000 0.9567133858
Zn  Zn3       1.0  0.00000  0.79588  0.50000  1.0000 0.9567133858
Zn  Zn4       1.0  0.00000  0.20412  0.50000  1.0000 0.9567133858
Zn  Zn5       1.0  0.79588  0.50000  0.00000  1.0000 0.9567133858
Zn  Zn6       1.0  0.20412  0.50000  0.00000  1.0000 0.9567133858
Zn  Zn7       1.0  0.50000  0.00000  0.70412  1.0000 0.9567133858
Zn  Zn8       1.0  0.50000  0.00000  0.29588  1.0000 0.9567133858
Zn  Zn9       1.0  0.70412  0.50000  0.00000  1.0000 0.9567133858
Zn  Zn10      1.0  0.29588  0.50000  0.00000  1.0000 0.9567133858
Zn  Zn11      1.0  0.00000  0.70412  0.50000  1.0000 0.9567133858
Zn  Zn12      1.0  0.00000  0.29588  0.50000  1.0000 0.9567133858
Zn  Zn13      1.0  0.00000  0.50000  0.79588  1.0000 0.9567133858
Zn  Zn14      1.0  0.00000  0.50000  0.20412  1.0000 0.9567133858
Zn  Zn15      1.0  0.79588  0.00000  0.50000  1.0000 0.9567133858
Zn  Zn16      1.0  0.20412  0.00000  0.50000  1.0000 0.9567133858
Zn  Zn17      1.0  0.50000  0.79588  0.00000  1.0000 0.9567133858
Zn  Zn18      1.0  0.50000  0.20412  0.00000  1.0000 0.9567133858
Zn  Zn19      1.0  0.00000  0.50000  0.29588  1.0000 0.9567133858
Zn  Zn20      1.0  0.00000  0.50000  0.70412  1.0000 0.9567133858
Zn  Zn21      1.0  0.50000  0.70412  0.00000  1.0000 0.9567133858
Zn  Zn22      1.0  0.50000  0.29588  0.00000  1.0000 0.9567133858
Zn  Zn23      1.0  0.70412  0.00000  0.50000  1.0000 0.9567133858
Zn  Zn24      1.0  0.29588  0.00000  0.50000  1.0000 0.9567133858
H   H1        1.0  0.60530  0.92900  0.19300  1.0000 0.1312827715
H   H2        1.0  0.39470  0.07100  0.19300  1.0000 0.1312827715
H   H3        1.0  0.60530  0.07100  0.80700  1.0000 0.1312827715
H   H4        1.0  0.39470  0.92900  0.80700  1.0000 0.1312827715
H   H5        1.0  0.92900  0.80700  0.39470  1.0000 0.1312827715
H   H6        1.0  0.07100  0.80700  0.60530  1.0000 0.1312827715
H   H7        1.0  0.07100  0.19300  0.39470  1.0000 0.1312827715
H   H8        1.0  0.92900  0.19300  0.60530  1.0000 0.1312827715
H   H9        1.0  0.80700  0.60530  0.07100  1.0000 0.1312827715
H   H10       1.0  0.80700  0.39470  0.92900  1.0000 0.1312827715
H   H11       1.0  0.19300  0.60530  0.92900  1.0000 0.1312827715
H   H12       1.0  0.19300  0.39470  0.07100  1.0000 0.1312827715
H   H13       1.0  0.57100  0.89470  0.69300  1.0000 0.1312827715
H   H14       1.0  0.42900  0.10530  0.69300  1.0000 0.1312827715
H   H15       1.0  0.42900  0.89470  0.30700  1.0000 0.1312827715
H   H16       1.0  0.57100  0.10530  0.30700  1.0000 0.1312827715
H   H17       1.0  0.69300  0.57100  0.89470  1.0000 0.1312827715
H   H18       1.0  0.69300  0.42900  0.10530  1.0000 0.1312827715
H   H19       1.0  0.30700  0.42900  0.89470  1.0000 0.1312827715
H   H20       1.0  0.30700  0.57100  0.10530  1.0000 0.1312827715
H   H21       1.0  0.89470  0.69300  0.57100  1.0000 0.1312827715
H   H22       1.0  0.10530  0.69300  0.42900  1.0000 0.1312827715
H   H23       1.0  0.89470  0.30700  0.42900  1.0000 0.1312827715
H   H24       1.0  0.10530  0.30700  0.57100  1.0000 0.1312827715
H   H25       1.0  0.66050  0.89510  0.15450  1.0000 0.1193114227
H   H26       1.0  0.33950  0.10490  0.15450  1.0000 0.1193114227
H   H27       1.0  0.66050  0.10490  0.84550  1.0000 0.1193114227
H   H28       1.0  0.33950  0.89510  0.84550  1.0000 0.1193114227
H   H29       1.0  0.89510  0.84550  0.33950  1.0000 0.1193114227
H   H30       1.0  0.10490  0.84550  0.66050  1.0000 0.1193114227
H   H31       1.0  0.10490  0.15450  0.33950  1.0000 0.1193114227
H   H32       1.0  0.89510  0.15450  0.66050  1.0000 0.1193114227
H   H33       1.0  0.84550  0.66050  0.10490  1.0000 0.1193114227
H   H34       1.0  0.84550  0.33950  0.89510  1.0000 0.1193114227
H   H35       1.0  0.15450  0.66050  0.89510  1.0000 0.1193114227
H   H36       1.0  0.15450  0.33950  0.10490  1.0000 0.1193114227
H   H37       1.0  0.60490  0.83950  0.65450  1.0000 0.1193114227
H   H38       1.0  0.39510  0.16050  0.65450  1.0000 0.1193114227
H   H39       1.0  0.39510  0.83950  0.34550  1.0000 0.1193114227
H   H40       1.0  0.60490  0.16050  0.34550  1.0000 0.1193114227
H   H41       1.0  0.65450  0.60490  0.83950  1.0000 0.1193114227
H   H42       1.0  0.65450  0.39510  0.16050  1.0000 0.1193114227
H   H43       1.0  0.34550  0.39510  0.83950  1.0000 0.1193114227
H   H44       1.0  0.34550  0.60490  0.16050  1.0000 0.1193114227
H   H45       1.0  0.83950  0.65450  0.60490  1.0000 0.1193114227
H   H46       1.0  0.16050  0.65450  0.39510  1.0000 0.1193114227
H   H47       1.0  0.83950  0.34550  0.39510  1.0000 0.1193114227
H   H48       1.0  0.16050  0.34550  0.60490  1.0000 0.1193114227
H   H49       1.0  0.71640  0.85200  0.15350  1.0000 0.1193114227
H   H50       1.0  0.28360  0.14800  0.15350  1.0000 0.1193114227
H   H51       1.0  0.71640  0.14800  0.84650  1.0000 0.1193114227
H   H52       1.0  0.28360  0.85200  0.84650  1.0000 0.1193114227
H   H53       1.0  0.85200  0.84650  0.28360  1.0000 0.1193114227
H   H54       1.0  0.14800  0.84650  0.71640  1.0000 0.1193114227
H   H55       1.0  0.14800  0.15350  0.28360  1.0000 0.1193114227
H   H56       1.0  0.85200  0.15350  0.71640  1.0000 0.1193114227
H   H57       1.0  0.84650  0.71640  0.14800  1.0000 0.1193114227
H   H58       1.0  0.84650  0.28360  0.85200  1.0000 0.1193114227
H   H59       1.0  0.15350  0.71640  0.85200  1.0000 0.1193114227
H   H60       1.0  0.15350  0.28360  0.14800  1.0000 0.1193114227
H   H61       1.0  0.64800  0.78360  0.65350  1.0000 0.1193114227
H   H62       1.0  0.35200  0.21640  0.65350  1.0000 0.1193114227
H   H63       1.0  0.35200  0.78360  0.34650  1.0000 0.1193114227
H   H64       1.0  0.64800  0.21640  0.34650  1.0000 0.1193114227
H   H65       1.0  0.65350  0.64800  0.78360  1.0000 0.1193114227
H   H66       1.0  0.65350  0.35200  0.21640  1.0000 0.1193114227
H   H67       1.0  0.34650  0.35200  0.78360  1.0000 0.1193114227
H   H68       1.0  0.34650  0.64800  0.21640  1.0000 0.1193114227
H   H69       1.0  0.78360  0.65350  0.64800  1.0000 0.1193114227
H   H70       1.0  0.21640  0.65350  0.35200  1.0000 0.1193114227
H   H71       1.0  0.78360  0.34650  0.35200  1.0000 0.1193114227
H   H72       1.0  0.21640  0.34650  0.64800  1.0000 0.1193114227
H   H73       1.0  0.71400  0.84310  0.27510  1.0000 0.1193114227
H   H74       1.0  0.28600  0.15690  0.27510  1.0000 0.1193114227
H   H75       1.0  0.71400  0.15690  0.72490  1.0000 0.1193114227
H   H76       1.0  0.28600  0.84310  0.72490  1.0000 0.1193114227
H   H77       1.0  0.84310  0.72490  0.28600  1.0000 0.1193114227
H   H78       1.0  0.15690  0.72490  0.71400  1.0000 0.1193114227
H   H79       1.0  0.15690  0.27510  0.28600  1.0000 0.1193114227
H   H80       1.0  0.84310  0.27510  0.71400  1.0000 0.1193114227
H   H81       1.0  0.72490  0.71400  0.15690  1.0000 0.1193114227
H   H82       1.0  0.72490  0.28600  0.84310  1.0000 0.1193114227
H   H83       1.0  0.27510  0.71400  0.84310  1.0000 0.1193114227
H   H84       1.0  0.27510  0.28600  0.15690  1.0000 0.1193114227
H   H85       1.0  0.65690  0.78600  0.77510  1.0000 0.1193114227
H   H86       1.0  0.34310  0.21400  0.77510  1.0000 0.1193114227
H   H87       1.0  0.34310  0.78600  0.22490  1.0000 0.1193114227
H   H88       1.0  0.65690  0.21400  0.22490  1.0000 0.1193114227
H   H89       1.0  0.77510  0.65690  0.78600  1.0000 0.1193114227
H   H90       1.0  0.77510  0.34310  0.21400  1.0000 0.1193114227
H   H91       1.0  0.22490  0.34310  0.78600  1.0000 0.1193114227
H   H92       1.0  0.22490  0.65690  0.21400  1.0000 0.1193114227
H   H93       1.0  0.78600  0.77510  0.65690  1.0000 0.1193114227
H   H94       1.0  0.21400  0.77510  0.34310  1.0000 0.1193114227
H   H95       1.0  0.78600  0.22490  0.34310  1.0000 0.1193114227
H   H96       1.0  0.21400  0.22490  0.65690  1.0000 0.1193114227
H   H97       1.0  0.66300  0.88380  0.31470  1.0000 0.1193114227
H   H98       1.0  0.33700  0.11620  0.31470  1.0000 0.1193114227
H   H99       1.0  0.66300  0.11620  0.68530  1.0000 0.1193114227
H   H100      1.0  0.33700  0.88380  0.68530  1.0000 0.1193114227
H   H101      1.0  0.88380  0.68530  0.33700  1.0000 0.1193114227
H   H102      1.0  0.11620  0.68530  0.66300  1.0000 0.1193114227
H   H103      1.0  0.11620  0.31470  0.33700  1.0000 0.1193114227
H   H104      1.0  0.88380  0.31470  0.66300  1.0000 0.1193114227
H   H105      1.0  0.68530  0.66300  0.11620  1.0000 0.1193114227
H   H106      1.0  0.68530  0.33700  0.88380  1.0000 0.1193114227
H   H107      1.0  0.31470  0.66300  0.88380  1.0000 0.1193114227
H   H108      1.0  0.31470  0.33700  0.11620  1.0000 0.1193114227
H   H109      1.0  0.61620  0.83700  0.81470  1.0000 0.1193114227
H   H110      1.0  0.38380  0.16300  0.81470  1.0000 0.1193114227
H   H111      1.0  0.38380  0.83700  0.18530  1.0000 0.1193114227
H   H112      1.0  0.61620  0.16300  0.18530  1.0000 0.1193114227
H   H113      1.0  0.81470  0.61620  0.83700  1.0000 0.1193114227
H   H114      1.0  0.81470  0.38380  0.16300  1.0000 0.1193114227
H   H115      1.0  0.18530  0.38380  0.83700  1.0000 0.1193114227
H   H116      1.0  0.18530  0.61620  0.16300  1.0000 0.1193114227
H   H117      1.0  0.83700  0.81470  0.61620  1.0000 0.1193114227
H   H118      1.0  0.16300  0.81470  0.38380  1.0000 0.1193114227
H   H119      1.0  0.83700  0.18530  0.38380  1.0000 0.1193114227
H   H120      1.0  0.16300  0.18530  0.61620  1.0000 0.1193114227
H   H121      1.0  0.60460  0.92150  0.31620  1.0000 0.1193114227
H   H122      1.0  0.39540  0.07850  0.31620  1.0000 0.1193114227
H   H123      1.0  0.60460  0.07850  0.68380  1.0000 0.1193114227
H   H124      1.0  0.39540  0.92150  0.68380  1.0000 0.1193114227
H   H125      1.0  0.92150  0.68380  0.39540  1.0000 0.1193114227
H   H126      1.0  0.07850  0.68380  0.60460  1.0000 0.1193114227
H   H127      1.0  0.07850  0.31620  0.39540  1.0000 0.1193114227
H   H128      1.0  0.92150  0.31620  0.60460  1.0000 0.1193114227
H   H129      1.0  0.68380  0.60460  0.07850  1.0000 0.1193114227
H   H130      1.0  0.68380  0.39540  0.92150  1.0000 0.1193114227
H   H131      1.0  0.31620  0.60460  0.92150  1.0000 0.1193114227
H   H132      1.0  0.31620  0.39540  0.07850  1.0000 0.1193114227
H   H133      1.0  0.57850  0.89540  0.81620  1.0000 0.1193114227
H   H134      1.0  0.42150  0.10460  0.81620  1.0000 0.1193114227
H   H135      1.0  0.42150  0.89540  0.18380  1.0000 0.1193114227
H   H136      1.0  0.57850  0.10460  0.18380  1.0000 0.1193114227
H   H137      1.0  0.81620  0.57850  0.89540  1.0000 0.1193114227
H   H138      1.0  0.81620  0.42150  0.10460  1.0000 0.1193114227
H   H139      1.0  0.18380  0.42150  0.89540  1.0000 0.1193114227
H   H140      1.0  0.18380  0.57850  0.10460  1.0000 0.1193114227
H   H141      1.0  0.89540  0.81620  0.57850  1.0000 0.1193114227
H   H142      1.0  0.10460  0.81620  0.42150  1.0000 0.1193114227
H   H143      1.0  0.89540  0.18380  0.42150  1.0000 0.1193114227
H   H144      1.0  0.10460  0.18380  0.57850  1.0000 0.1193114227
H   H145      1.0  0.78500  0.83670  0.26350  1.0000 0.1142280423
H   H146      1.0  0.21500  0.16330  0.26350  1.0000 0.1142280423
H   H147      1.0  0.78500  0.16330  0.73650  1.0000 0.1142280423
H   H148      1.0  0.21500  0.83670  0.73650  1.0000 0.1193114227
H   H149      1.0  0.83670  0.73650  0.21500  1.0000 0.1193114227
H   H150      1.0  0.16330  0.73650  0.78500  1.0000 0.1142280423
H   H151      1.0  0.16330  0.26350  0.21500  1.0000 0.1142280423
H   H152      1.0  0.83670  0.26350  0.78500  1.0000 0.1142280423
H   H153      1.0  0.73650  0.78500  0.16330  1.0000 0.1142280423
H   H154      1.0  0.73650  0.21500  0.83670  1.0000 0.1193114227
H   H155      1.0  0.26350  0.78500  0.83670  1.0000 0.1142280423
H   H156      1.0  0.26350  0.21500  0.16330  1.0000 0.1142280423
H   H157      1.0  0.66330  0.71500  0.76350  1.0000 0.1142280423
H   H158      1.0  0.33670  0.28500  0.76350  1.0000 0.1142280423
H   H159      1.0  0.33670  0.71500  0.23650  1.0000 0.1142280423
H   H160      1.0  0.66330  0.28500  0.23650  1.0000 0.1142280423
H   H161      1.0  0.76350  0.66330  0.71500  1.0000 0.1142280423
H   H162      1.0  0.76350  0.33670  0.28500  1.0000 0.1142280423
H   H163      1.0  0.23650  0.33670  0.71500  1.0000 0.1142280423
H   H164      1.0  0.23650  0.66330  0.28500  1.0000 0.1142280423
H   H165      1.0  0.71500  0.76350  0.66330  1.0000 0.1142280423
H   H166      1.0  0.28500  0.76350  0.33670  1.0000 0.1142280423
H   H167      1.0  0.71500  0.23650  0.33670  1.0000 0.1142280423
H   H168      1.0  0.28500  0.23650  0.66330  1.0000 0.1142280423
H   H169      1.0  0.92900  0.60530  0.80700  1.0000 0.1312827715
H   H170      1.0  0.07100  0.39470  0.80700  1.0000 0.1312827715
H   H171      1.0  0.07100  0.60530  0.19300  1.0000 0.1312827715
H   H172      1.0  0.92900  0.39470  0.19300  1.0000 0.1312827715
H   H173      1.0  0.80700  0.92900  0.60530  1.0000 0.1312827715
H   H174      1.0  0.80700  0.07100  0.39470  1.0000 0.1312827715
H   H175      1.0  0.19300  0.07100  0.60530  1.0000 0.1312827715
H   H176      1.0  0.19300  0.92900  0.39470  1.0000 0.1312827715
H   H177      1.0  0.60530  0.80700  0.92900  1.0000 0.1312827715
H   H178      1.0  0.39470  0.80700  0.07100  1.0000 0.1312827715
H   H179      1.0  0.60530  0.19300  0.07100  1.0000 0.1312827715
H   H180      1.0  0.39470  0.19300  0.92900  1.0000 0.1312827715
H   H181      1.0  0.89470  0.57100  0.30700  1.0000 0.1312827715
H   H182      1.0  0.10530  0.42900  0.30700  1.0000 0.1312827715
H   H183      1.0  0.89470  0.42900  0.69300  1.0000 0.1312827715
H   H184      1.0  0.10530  0.57100  0.69300  1.0000 0.1312827715
H   H185      1.0  0.57100  0.69300  0.10530  1.0000 0.1312827715
H   H186      1.0  0.42900  0.69300  0.89470  1.0000 0.1312827715
H   H187      1.0  0.42900  0.30700  0.10530  1.0000 0.1312827715
H   H188      1.0  0.57100  0.30700  0.89470  1.0000 0.1312827715
H   H189      1.0  0.69300  0.89470  0.42900  1.0000 0.1312827715
H   H190      1.0  0.69300  0.10530  0.57100  1.0000 0.1312827715
H   H191      1.0  0.30700  0.89470  0.57100  1.0000 0.1312827715
H   H192      1.0  0.30700  0.10530  0.42900  1.0000 0.1312827715
H   H193      1.0  0.89510  0.66050  0.84550  1.0000 0.1193114227
H   H194      1.0  0.10490  0.33950  0.84550  1.0000 0.1193114227
H   H195      1.0  0.10490  0.66050  0.15450  1.0000 0.1193114227
H   H196      1.0  0.89510  0.33950  0.15450  1.0000 0.1193114227
H   H197      1.0  0.84550  0.89510  0.66050  1.0000 0.1193114227
H   H198      1.0  0.84550  0.10490  0.33950  1.0000 0.1193114227
H   H199      1.0  0.15450  0.10490  0.66050  1.0000 0.1193114227
H   H200      1.0  0.15450  0.89510  0.33950  1.0000 0.1193114227
H   H201      1.0  0.66050  0.84550  0.89510  1.0000 0.1193114227
H   H202      1.0  0.33950  0.84550  0.10490  1.0000 0.1193114227
H   H203      1.0  0.66050  0.15450  0.10490  1.0000 0.1193114227
H   H204      1.0  0.33950  0.15450  0.89510  1.0000 0.1193114227
H   H205      1.0  0.83950  0.60490  0.34550  1.0000 0.1193114227
H   H206      1.0  0.16050  0.39510  0.34550  1.0000 0.1193114227
H   H207      1.0  0.83950  0.39510  0.65450  1.0000 0.1193114227
H   H208      1.0  0.16050  0.60490  0.65450  1.0000 0.1193114227
H   H209      1.0  0.60490  0.65450  0.16050  1.0000 0.1193114227
H   H210      1.0  0.39510  0.65450  0.83950  1.0000 0.1193114227
H   H211      1.0  0.39510  0.34550  0.16050  1.0000 0.1193114227
H   H212      1.0  0.60490  0.34550  0.83950  1.0000 0.1193114227
H   H213      1.0  0.65450  0.83950  0.39510  1.0000 0.1193114227
H   H214      1.0  0.65450  0.16050  0.60490  1.0000 0.1193114227
H   H215      1.0  0.34550  0.83950  0.60490  1.0000 0.1193114227
H   H216      1.0  0.34550  0.16050  0.39510  1.0000 0.1193114227
H   H217      1.0  0.85200  0.71640  0.84650  1.0000 0.1193114227
H   H218      1.0  0.14800  0.28360  0.84650  1.0000 0.1193114227
H   H219      1.0  0.14800  0.71640  0.15350  1.0000 0.1193114227
H   H220      1.0  0.85200  0.28360  0.15350  1.0000 0.1193114227
H   H221      1.0  0.84650  0.85200  0.71640  1.0000 0.1193114227
H   H222      1.0  0.84650  0.14800  0.28360  1.0000 0.1193114227
H   H223      1.0  0.15350  0.14800  0.71640  1.0000 0.1193114227
H   H224      1.0  0.15350  0.85200  0.28360  1.0000 0.1193114227
H   H225      1.0  0.71640  0.84650  0.85200  1.0000 0.1193114227
H   H226      1.0  0.28360  0.84650  0.14800  1.0000 0.1193114227
H   H227      1.0  0.71640  0.15350  0.14800  1.0000 0.1193114227
H   H228      1.0  0.28360  0.15350  0.85200  1.0000 0.1193114227
H   H229      1.0  0.78360  0.64800  0.34650  1.0000 0.1193114227
H   H230      1.0  0.21640  0.35200  0.34650  1.0000 0.1193114227
H   H231      1.0  0.78360  0.35200  0.65350  1.0000 0.1193114227
H   H232      1.0  0.21640  0.64800  0.65350  1.0000 0.1193114227
H   H233      1.0  0.64800  0.65350  0.21640  1.0000 0.1193114227
H   H234      1.0  0.35200  0.65350  0.78360  1.0000 0.1193114227
H   H235      1.0  0.35200  0.34650  0.21640  1.0000 0.1193114227
H   H236      1.0  0.64800  0.34650  0.78360  1.0000 0.1193114227
H   H237      1.0  0.65350  0.78360  0.35200  1.0000 0.1193114227
H   H238      1.0  0.65350  0.21640  0.64800  1.0000 0.1193114227
H   H239      1.0  0.34650  0.78360  0.64800  1.0000 0.1193114227
H   H240      1.0  0.34650  0.21640  0.35200  1.0000 0.1193114227
H   H241      1.0  0.84310  0.71400  0.72490  1.0000 0.1193114227
H   H242      1.0  0.15690  0.28600  0.72490  1.0000 0.1193114227
H   H243      1.0  0.15690  0.71400  0.27510  1.0000 0.1193114227
H   H244      1.0  0.84310  0.28600  0.27510  1.0000 0.1193114227
H   H245      1.0  0.72490  0.84310  0.71400  1.0000 0.1193114227
H   H246      1.0  0.72490  0.15690  0.28600  1.0000 0.1193114227
H   H247      1.0  0.27510  0.15690  0.71400  1.0000 0.1193114227
H   H248      1.0  0.27510  0.84310  0.28600  1.0000 0.1193114227
H   H249      1.0  0.71400  0.72490  0.84310  1.0000 0.1193114227
H   H250      1.0  0.28600  0.72490  0.15690  1.0000 0.1193114227
H   H251      1.0  0.71400  0.27510  0.15690  1.0000 0.1193114227
H   H252      1.0  0.28600  0.27510  0.84310  1.0000 0.1193114227
H   H253      1.0  0.78600  0.65690  0.22490  1.0000 0.1193114227
H   H254      1.0  0.21400  0.34310  0.22490  1.0000 0.1193114227
H   H255      1.0  0.78600  0.34310  0.77510  1.0000 0.1193114227
H   H256      1.0  0.21400  0.65690  0.77510  1.0000 0.1193114227
H   H257      1.0  0.65690  0.77510  0.21400  1.0000 0.1193114227
H   H258      1.0  0.34310  0.77510  0.78600  1.0000 0.1193114227
H   H259      1.0  0.34310  0.22490  0.21400  1.0000 0.1193114227
H   H260      1.0  0.65690  0.22490  0.78600  1.0000 0.1193114227
H   H261      1.0  0.77510  0.78600  0.34310  1.0000 0.1193114227
H   H262      1.0  0.77510  0.21400  0.65690  1.0000 0.1193114227
H   H263      1.0  0.22490  0.78600  0.65690  1.0000 0.1193114227
H   H264      1.0  0.22490  0.21400  0.34310  1.0000 0.1193114227
H   H265      1.0  0.88380  0.66300  0.68530  1.0000 0.1193114227
H   H266      1.0  0.11620  0.33700  0.68530  1.0000 0.1193114227
H   H267      1.0  0.11620  0.66300  0.31470  1.0000 0.1193114227
H   H268      1.0  0.88380  0.33700  0.31470  1.0000 0.1193114227
H   H269      1.0  0.68530  0.88380  0.66300  1.0000 0.1193114227
H   H270      1.0  0.68530  0.11620  0.33700  1.0000 0.1193114227
H   H271      1.0  0.31470  0.11620  0.66300  1.0000 0.1193114227
H   H272      1.0  0.31470  0.88380  0.33700  1.0000 0.1193114227
H   H273      1.0  0.66300  0.68530  0.88380  1.0000 0.1193114227
H   H274      1.0  0.33700  0.68530  0.11620  1.0000 0.1193114227
H   H275      1.0  0.66300  0.31470  0.11620  1.0000 0.1193114227
H   H276      1.0  0.33700  0.31470  0.88380  1.0000 0.1193114227
H   H277      1.0  0.83700  0.61620  0.18530  1.0000 0.1193114227
H   H278      1.0  0.16300  0.38380  0.18530  1.0000 0.1193114227
H   H279      1.0  0.83700  0.38380  0.81470  1.0000 0.1193114227
H   H280      1.0  0.16300  0.61620  0.81470  1.0000 0.1193114227
H   H281      1.0  0.61620  0.81470  0.16300  1.0000 0.1193114227
H   H282      1.0  0.38380  0.81470  0.83700  1.0000 0.1193114227
H   H283      1.0  0.38380  0.18530  0.16300  1.0000 0.1193114227
H   H284      1.0  0.61620  0.18530  0.83700  1.0000 0.1193114227
H   H285      1.0  0.81470  0.83700  0.38380  1.0000 0.1193114227
H   H286      1.0  0.81470  0.16300  0.61620  1.0000 0.1193114227
H   H287      1.0  0.18530  0.83700  0.61620  1.0000 0.1193114227
H   H288      1.0  0.18530  0.16300  0.38380  1.0000 0.1193114227
H   H289      1.0  0.92150  0.60460  0.68380  1.0000 0.1193114227
H   H290      1.0  0.07850  0.39540  0.68380  1.0000 0.1193114227
H   H291      1.0  0.07850  0.60460  0.31620  1.0000 0.1193114227
H   H292      1.0  0.92150  0.39540  0.31620  1.0000 0.1193114227
H   H293      1.0  0.68380  0.92150  0.60460  1.0000 0.1193114227
H   H294      1.0  0.68380  0.07850  0.39540  1.0000 0.1193114227
H   H295      1.0  0.31620  0.07850  0.60460  1.0000 0.1193114227
H   H296      1.0  0.31620  0.92150  0.39540  1.0000 0.1193114227
H   H297      1.0  0.60460  0.68380  0.92150  1.0000 0.1193114227
H   H298      1.0  0.39540  0.68380  0.07850  1.0000 0.1193114227
H   H299      1.0  0.60460  0.31620  0.07850  1.0000 0.1193114227
H   H300      1.0  0.39540  0.31620  0.92150  1.0000 0.1193114227
H   H301      1.0  0.89540  0.57850  0.18380  1.0000 0.1193114227
H   H302      1.0  0.10460  0.42150  0.18380  1.0000 0.1193114227
H   H303      1.0  0.89540  0.42150  0.81620  1.0000 0.1193114227
H   H304      1.0  0.10460  0.57850  0.81620  1.0000 0.1193114227
H   H305      1.0  0.57850  0.81620  0.10460  1.0000 0.1193114227
H   H306      1.0  0.42150  0.81620  0.89540  1.0000 0.1193114227
H   H307      1.0  0.42150  0.18380  0.10460  1.0000 0.1193114227
H   H308      1.0  0.57850  0.18380  0.89540  1.0000 0.1193114227
H   H309      1.0  0.81620  0.89540  0.42150  1.0000 0.1193114227
H   H310      1.0  0.81620  0.10460  0.57850  1.0000 0.1193114227
H   H311      1.0  0.18380  0.89540  0.57850  1.0000 0.1193114227
H   H312      1.0  0.18380  0.10460  0.42150  1.0000 0.1193114227
H   H313      1.0  0.83670  0.78500  0.73650  1.0000 0.1142280423
H   H314      1.0  0.16330  0.21500  0.73650  1.0000 0.1193114227
H   H315      1.0  0.16330  0.78500  0.26350  1.0000 0.1142280423
H   H316      1.0  0.83670  0.21500  0.26350  1.0000 0.1142280423
H   H317      1.0  0.73650  0.83670  0.78500  1.0000 0.1142280423
H   H318      1.0  0.73650  0.16330  0.21500  1.0000 0.1193114227
H   H319      1.0  0.26350  0.16330  0.78500  1.0000 0.1142280423
H   H320      1.0  0.26350  0.83670  0.21500  1.0000 0.1142280423
H   H321      1.0  0.78500  0.73650  0.83670  1.0000 0.1142280423
H   H322      1.0  0.21500  0.73650  0.16330  1.0000 0.1193114227
H   H323      1.0  0.78500  0.26350  0.16330  1.0000 0.1142280423
H   H324      1.0  0.21500  0.26350  0.83670  1.0000 0.1142280423
H   H325      1.0  0.71500  0.66330  0.23650  1.0000 0.1142280423
H   H326      1.0  0.28500  0.33670  0.23650  1.0000 0.1193114227
H   H327      1.0  0.71500  0.33670  0.76350  1.0000 0.1142280423
H   H328      1.0  0.28500  0.66330  0.76350  1.0000 0.1142280423
H   H329      1.0  0.66330  0.76350  0.28500  1.0000 0.1142280423
H   H330      1.0  0.33670  0.76350  0.71500  1.0000 0.1142280423
H   H331      1.0  0.33670  0.23650  0.28500  1.0000 0.1193114227
H   H332      1.0  0.66330  0.23650  0.71500  1.0000 0.1142280423
H   H333      1.0  0.76350  0.71500  0.33670  1.0000 0.1142280423
H   H334      1.0  0.76350  0.28500  0.66330  1.0000 0.1142280423
H   H335      1.0  0.23650  0.71500  0.66330  1.0000 0.1142280423
H   H336      1.0  0.23650  0.28500  0.33670  1.0000 0.1193114227
C   C1        1.0  0.56293  0.95583  0.25526  1.0000 0.5958709032
C   C2        1.0  0.43707  0.04417  0.25526  1.0000 0.5958709032
C   C3        1.0  0.56293  0.04417  0.74474  1.0000 0.5958709032
C   C4        1.0  0.43707  0.95583  0.74474  1.0000 0.5958709032
C   C5        1.0  0.95583  0.74474  0.43707  1.0000 0.5958709032
C   C6        1.0  0.04417  0.74474  0.56293  1.0000 0.5958709032
C   C7        1.0  0.04417  0.25526  0.43707  1.0000 0.5958709032
C   C8        1.0  0.95583  0.25526  0.56293  1.0000 0.5958709032
C   C9        1.0  0.74474  0.56293  0.04417  1.0000 0.5958709032
C   C10       1.0  0.74474  0.43707  0.95583  1.0000 0.5958709032
C   C11       1.0  0.25526  0.56293  0.95583  1.0000 0.5958709032
C   C12       1.0  0.25526  0.43707  0.04417  1.0000 0.5958709032
C   C13       1.0  0.54417  0.93707  0.75526  1.0000 0.5958709032
C   C14       1.0  0.45583  0.06293  0.75526  1.0000 0.5958709032
C   C15       1.0  0.45583  0.93707  0.24474  1.0000 0.5958709032
C   C16       1.0  0.54417  0.06293  0.24474  1.0000 0.5958709032
C   C17       1.0  0.75526  0.54417  0.93707  1.0000 0.5958709032
C   C18       1.0  0.75526  0.45583  0.06293  1.0000 0.5958709032
C   C19       1.0  0.24474  0.45583  0.93707  1.0000 0.5958709032
C   C20       1.0  0.24474  0.54417  0.06293  1.0000 0.5958709032
C   C21       1.0  0.93707  0.75526  0.54417  1.0000 0.5958709032
C   C22       1.0  0.06293  0.75526  0.45583  1.0000 0.5958709032
C   C23       1.0  0.93707  0.24474  0.45583  1.0000 0.5958709032
C   C24       1.0  0.06293  0.24474  0.54417  1.0000 0.5958709032
C   C25       1.0  0.60059  0.92987  0.25396  1.0000 -0.0201708557
C   C26       1.0  0.39941  0.07013  0.25396  1.0000 -0.0201708557
C   C27       1.0  0.60059  0.07013  0.74604  1.0000 -0.0201708557
C   C28       1.0  0.39941  0.92987  0.74604  1.0000 -0.0201708557
C   C29       1.0  0.92987  0.74604  0.39941  1.0000 -0.0201708557
C   C30       1.0  0.07013  0.74604  0.60059  1.0000 -0.0201708557
C   C31       1.0  0.07013  0.25396  0.39941  1.0000 -0.0201708557
C   C32       1.0  0.92987  0.25396  0.60059  1.0000 -0.0201708557
C   C33       1.0  0.74604  0.60059  0.07013  1.0000 -0.0201708557
C   C34       1.0  0.74604  0.39941  0.92987  1.0000 -0.0201708557
C   C35       1.0  0.25396  0.60059  0.92987  1.0000 -0.0201708557
C   C36       1.0  0.25396  0.39941  0.07013  1.0000 -0.0201708557
C   C37       1.0  0.57013  0.89941  0.75396  1.0000 -0.0201708557
C   C38       1.0  0.42987  0.10059  0.75396  1.0000 -0.0201708557
C   C39       1.0  0.42987  0.89941  0.24604  1.0000 -0.0201708557
C   C40       1.0  0.57013  0.10059  0.24604  1.0000 -0.0201708557
C   C41       1.0  0.75396  0.57013  0.89941  1.0000 -0.0201708557
C   C42       1.0  0.75396  0.42987  0.10059  1.0000 -0.0201708557
C   C43       1.0  0.24604  0.42987  0.89941  1.0000 -0.0201708557
C   C44       1.0  0.24604  0.57013  0.10059  1.0000 -0.0201708557
C   C45       1.0  0.89941  0.75396  0.57013  1.0000 -0.0201708557
C   C46       1.0  0.10059  0.75396  0.42987  1.0000 -0.0201708557
C   C47       1.0  0.89941  0.24604  0.42987  1.0000 -0.0201708557
C   C48       1.0  0.10059  0.24604  0.57013  1.0000 -0.0201708557
C   C49       1.0  0.61765  0.91978  0.21751  1.0000 -0.1465436048
C   C50       1.0  0.38235  0.08022  0.21751  1.0000 -0.1465436048
C   C51       1.0  0.61765  0.08022  0.78249  1.0000 -0.1465436048
C   C52       1.0  0.38235  0.91978  0.78249  1.0000 -0.1465436048
C   C53       1.0  0.91978  0.78249  0.38235  1.0000 -0.1465436048
C   C54       1.0  0.08022  0.78249  0.61765  1.0000 -0.1465436048
C   C55       1.0  0.08022  0.21751  0.38235  1.0000 -0.1465436048
C   C56       1.0  0.91978  0.21751  0.61765  1.0000 -0.1465436048
C   C57       1.0  0.78249  0.61765  0.08022  1.0000 -0.1465436048
C   C58       1.0  0.78249  0.38235  0.91978  1.0000 -0.1465436048
C   C59       1.0  0.21751  0.61765  0.91978  1.0000 -0.1465436048
C   C60       1.0  0.21751  0.38235  0.08022  1.0000 -0.1465436048
C   C61       1.0  0.58022  0.88235  0.71751  1.0000 -0.1465436048
C   C62       1.0  0.41978  0.11765  0.71751  1.0000 -0.1465436048
C   C63       1.0  0.41978  0.88235  0.28249  1.0000 -0.1465436048
C   C64       1.0  0.58022  0.11765  0.28249  1.0000 -0.1465436048
C   C65       1.0  0.71751  0.58022  0.88235  1.0000 -0.1465436048
C   C66       1.0  0.71751  0.41978  0.11765  1.0000 -0.1465436048
C   C67       1.0  0.28249  0.41978  0.88235  1.0000 -0.1465436048
C   C68       1.0  0.28249  0.58022  0.11765  1.0000 -0.1465436048
C   C69       1.0  0.88235  0.71751  0.58022  1.0000 -0.1465436048
C   C70       1.0  0.11765  0.71751  0.41978  1.0000 -0.1465436048
C   C71       1.0  0.88235  0.28249  0.41978  1.0000 -0.1465436048
C   C72       1.0  0.11765  0.28249  0.58022  1.0000 -0.1465436048
C   C73       1.0  0.65287  0.89619  0.21561  1.0000 0.0688745184
C   C74       1.0  0.34713  0.10381  0.21561  1.0000 0.0688745184
C   C75       1.0  0.65287  0.10381  0.78439  1.0000 0.0688745184
C   C76       1.0  0.34713  0.89619  0.78439  1.0000 0.0688745184
C   C77       1.0  0.89619  0.78439  0.34713  1.0000 0.0688745184
C   C78       1.0  0.10381  0.78439  0.65287  1.0000 0.0688745184
C   C79       1.0  0.10381  0.21561  0.34713  1.0000 0.0688745184
C   C80       1.0  0.89619  0.21561  0.65287  1.0000 0.0688745184
C   C81       1.0  0.78439  0.65287  0.10381  1.0000 0.0688745184
C   C82       1.0  0.78439  0.34713  0.89619  1.0000 0.0688745184
C   C83       1.0  0.21561  0.65287  0.89619  1.0000 0.0688745184
C   C84       1.0  0.21561  0.34713  0.10381  1.0000 0.0688745184
C   C85       1.0  0.60381  0.84713  0.71561  1.0000 0.0688745184
C   C86       1.0  0.39619  0.15287  0.71561  1.0000 0.0688745184
C   C87       1.0  0.39619  0.84713  0.28439  1.0000 0.0688745184
C   C88       1.0  0.60381  0.15287  0.28439  1.0000 0.0688745184
C   C89       1.0  0.71561  0.60381  0.84713  1.0000 0.0688745184
C   C90       1.0  0.71561  0.39619  0.15287  1.0000 0.0688745184
C   C91       1.0  0.28439  0.39619  0.84713  1.0000 0.0688745184
C   C92       1.0  0.28439  0.60381  0.15287  1.0000 0.0688745184
C   C93       1.0  0.84713  0.71561  0.60381  1.0000 0.0688745184
C   C94       1.0  0.15287  0.71561  0.39619  1.0000 0.0688745184
C   C95       1.0  0.84713  0.28439  0.39619  1.0000 0.0688745184
C   C96       1.0  0.15287  0.28439  0.60381  1.0000 0.0688745184
C   C97       1.0  0.67109  0.88501  0.17939  1.0000 -0.1445794983
C   C98       1.0  0.32891  0.11499  0.17939  1.0000 -0.1465436048
C   C99       1.0  0.67109  0.11499  0.82061  1.0000 -0.1445794983
C   C100      1.0  0.32891  0.88501  0.82061  1.0000 -0.1465436048
C   C101      1.0  0.88501  0.82061  0.32891  1.0000 -0.1445794983
C   C102      1.0  0.11499  0.82061  0.67109  1.0000 -0.1465436048
C   C103      1.0  0.11499  0.17939  0.32891  1.0000 -0.1465436048
C   C104      1.0  0.88501  0.17939  0.67109  1.0000 -0.1445794983
C   C105      1.0  0.82061  0.67109  0.11499  1.0000 -0.1445794983
C   C106      1.0  0.82061  0.32891  0.88501  1.0000 -0.1445794983
C   C107      1.0  0.17939  0.67109  0.88501  1.0000 -0.1445794983
C   C108      1.0  0.17939  0.32891  0.11499  1.0000 -0.1465436048
C   C109      1.0  0.61499  0.82891  0.67939  1.0000 -0.1445794983
C   C110      1.0  0.38501  0.17109  0.67939  1.0000 -0.1445794983
C   C111      1.0  0.38501  0.82891  0.32061  1.0000 -0.1445794983
C   C112      1.0  0.61499  0.17109  0.32061  1.0000 -0.1445794983
C   C113      1.0  0.67939  0.61499  0.82891  1.0000 -0.1445794983
C   C114      1.0  0.67939  0.38501  0.17109  1.0000 -0.1445794983
C   C115      1.0  0.32061  0.38501  0.82891  1.0000 -0.1445794983
C   C116      1.0  0.32061  0.61499  0.17109  1.0000 -0.1445794983
C   C117      1.0  0.82891  0.67939  0.61499  1.0000 -0.1445794983
C   C118      1.0  0.17109  0.67939  0.38501  1.0000 -0.1445794983
C   C119      1.0  0.82891  0.32061  0.38501  1.0000 -0.1445794983
C   C120      1.0  0.17109  0.32061  0.61499  1.0000 -0.1445794983
C   C121      1.0  0.70451  0.85931  0.17885  1.0000 -0.1625831067
C   C122      1.0  0.29549  0.14069  0.17885  1.0000 -0.1625831067
C   C123      1.0  0.70451  0.14069  0.82115  1.0000 -0.1625831067
C   C124      1.0  0.29549  0.85931  0.82115  1.0000 -0.1625831067
C   C125      1.0  0.85931  0.82115  0.29549  1.0000 -0.1625831067
C   C126      1.0  0.14069  0.82115  0.70451  1.0000 -0.1625831067
C   C127      1.0  0.14069  0.17885  0.29549  1.0000 -0.1625831067
C   C128      1.0  0.85931  0.17885  0.70451  1.0000 -0.1625831067
C   C129      1.0  0.82115  0.70451  0.14069  1.0000 -0.1625831067
C   C130      1.0  0.82115  0.29549  0.85931  1.0000 -0.1625831067
C   C131      1.0  0.17885  0.70451  0.85931  1.0000 -0.1625831067
C   C132      1.0  0.17885  0.29549  0.14069  1.0000 -0.1625831067
C   C133      1.0  0.64069  0.79549  0.67885  1.0000 -0.1625831067
C   C134      1.0  0.35931  0.20451  0.67885  1.0000 -0.1625831067
C   C135      1.0  0.35931  0.79549  0.32115  1.0000 -0.1625831067
C   C136      1.0  0.64069  0.20451  0.32115  1.0000 -0.1625831067
C   C137      1.0  0.67885  0.64069  0.79549  1.0000 -0.1625831067
C   C138      1.0  0.67885  0.35931  0.20451  1.0000 -0.1625831067
C   C139      1.0  0.32115  0.35931  0.79549  1.0000 -0.1625831067
C   C140      1.0  0.32115  0.64069  0.20451  1.0000 -0.1625831067
C   C141      1.0  0.79549  0.67885  0.64069  1.0000 -0.1625831067
C   C142      1.0  0.20451  0.67885  0.35931  1.0000 -0.1625831067
C   C143      1.0  0.79549  0.32115  0.35931  1.0000 -0.1625831067
C   C144      1.0  0.20451  0.32115  0.64069  1.0000 -0.1625831067
C   C145      1.0  0.72080  0.84426  0.21439  1.0000 0.0688745184
C   C146      1.0  0.27920  0.15574  0.21439  1.0000 0.0688745184
C   C147      1.0  0.72080  0.15574  0.78561  1.0000 0.0688745184
C   C148      1.0  0.27920  0.84426  0.78561  1.0000 0.0688745184
C   C149      1.0  0.84426  0.78561  0.27920  1.0000 0.0688745184
C   C150      1.0  0.15574  0.78561  0.72080  1.0000 0.0688745184
C   C151      1.0  0.15574  0.21439  0.27920  1.0000 0.0688745184
C   C152      1.0  0.84426  0.21439  0.72080  1.0000 0.0688745184
C   C153      1.0  0.78561  0.72080  0.15574  1.0000 0.0688745184
C   C154      1.0  0.78561  0.27920  0.84426  1.0000 0.0688745184
C   C155      1.0  0.21439  0.72080  0.84426  1.0000 0.0688745184
C   C156      1.0  0.21439  0.27920  0.15574  1.0000 0.0688745184
C   C157      1.0  0.65574  0.77920  0.71439  1.0000 0.0688745184
C   C158      1.0  0.34426  0.22080  0.71439  1.0000 0.0688745184
C   C159      1.0  0.34426  0.77920  0.28561  1.0000 0.0688745184
C   C160      1.0  0.65574  0.22080  0.28561  1.0000 0.0688745184
C   C161      1.0  0.71439  0.65574  0.77920  1.0000 0.0688745184
C   C162      1.0  0.71439  0.34426  0.22080  1.0000 0.0688745184
C   C163      1.0  0.28561  0.34426  0.77920  1.0000 0.0688745184
C   C164      1.0  0.28561  0.65574  0.22080  1.0000 0.0688745184
C   C165      1.0  0.77920  0.71439  0.65574  1.0000 0.0688745184
C   C166      1.0  0.22080  0.71439  0.34426  1.0000 0.0688745184
C   C167      1.0  0.77920  0.28561  0.34426  1.0000 0.0688745184
C   C168      1.0  0.22080  0.28561  0.65574  1.0000 0.0688745184
C   C169      1.0  0.70316  0.85429  0.25077  1.0000 -0.2026322878
C   C170      1.0  0.29684  0.14571  0.25077  1.0000 -0.2026322878
C   C171      1.0  0.70316  0.14571  0.74923  1.0000 -0.2026322878
C   C172      1.0  0.29684  0.85429  0.74923  1.0000 -0.2026322878
C   C173      1.0  0.85429  0.74923  0.29684  1.0000 -0.2026322878
C   C174      1.0  0.14571  0.74923  0.70316  1.0000 -0.2026322878
C   C175      1.0  0.14571  0.25077  0.29684  1.0000 -0.2026322878
C   C176      1.0  0.85429  0.25077  0.70316  1.0000 -0.2026322878
C   C177      1.0  0.74923  0.70316  0.14571  1.0000 -0.2026322878
C   C178      1.0  0.74923  0.29684  0.85429  1.0000 -0.2026322878
C   C179      1.0  0.25077  0.70316  0.85429  1.0000 -0.2026322878
C   C180      1.0  0.25077  0.29684  0.14571  1.0000 -0.2026322878
C   C181      1.0  0.64571  0.79684  0.75077  1.0000 -0.2026322878
C   C182      1.0  0.35429  0.20316  0.75077  1.0000 -0.2026322878
C   C183      1.0  0.35429  0.79684  0.24923  1.0000 -0.2026322878
C   C184      1.0  0.64571  0.20316  0.24923  1.0000 -0.2026322878
C   C185      1.0  0.75077  0.64571  0.79684  1.0000 -0.2026322878
C   C186      1.0  0.75077  0.35429  0.20316  1.0000 -0.2026322878
C   C187      1.0  0.24923  0.35429  0.79684  1.0000 -0.2026322878
C   C188      1.0  0.24923  0.64571  0.20316  1.0000 -0.2026322878
C   C189      1.0  0.79684  0.75077  0.64571  1.0000 -0.2026322878
C   C190      1.0  0.20316  0.75077  0.35429  1.0000 -0.2026322878
C   C191      1.0  0.79684  0.24923  0.35429  1.0000 -0.2026322878
C   C192      1.0  0.20316  0.24923  0.64571  1.0000 -0.2026322878
C   C193      1.0  0.66963  0.88049  0.25330  1.0000 0.0837930833
C   C194      1.0  0.33037  0.11951  0.25330  1.0000 0.0837930833
C   C195      1.0  0.66963  0.11951  0.74670  1.0000 0.0837930833
C   C196      1.0  0.33037  0.88049  0.74670  1.0000 0.0837930833
C   C197      1.0  0.88049  0.74670  0.33037  1.0000 0.0837930833
C   C198      1.0  0.11951  0.74670  0.66963  1.0000 0.0837930833
C   C199      1.0  0.11951  0.25330  0.33037  1.0000 0.0837930833
C   C200      1.0  0.88049  0.25330  0.66963  1.0000 0.0837930833
C   C201      1.0  0.74670  0.66963  0.11951  1.0000 0.0837930833
C   C202      1.0  0.74670  0.33037  0.88049  1.0000 0.0837930833
C   C203      1.0  0.25330  0.66963  0.88049  1.0000 0.0837930833
C   C204      1.0  0.25330  0.33037  0.11951  1.0000 0.0837930833
C   C205      1.0  0.61951  0.83037  0.75330  1.0000 0.0837930833
C   C206      1.0  0.38049  0.16963  0.75330  1.0000 0.0837930833
C   C207      1.0  0.38049  0.83037  0.24670  1.0000 0.0837930833
C   C208      1.0  0.61951  0.16963  0.24670  1.0000 0.0837930833
C   C209      1.0  0.75330  0.61951  0.83037  1.0000 0.0837930833
C   C210      1.0  0.75330  0.38049  0.16963  1.0000 0.0837930833
C   C211      1.0  0.24670  0.38049  0.83037  1.0000 0.0837930833
C   C212      1.0  0.24670  0.61951  0.16963  1.0000 0.0837930833
C   C213      1.0  0.83037  0.75330  0.61951  1.0000 0.0837930833
C   C214      1.0  0.16963  0.75330  0.38049  1.0000 0.0837930833
C   C215      1.0  0.83037  0.24670  0.38049  1.0000 0.0837930833
C   C216      1.0  0.16963  0.24670  0.61951  1.0000 0.0837930833
C   C217      1.0  0.65115  0.89229  0.28978  1.0000 -0.1625831067
C   C218      1.0  0.34885  0.10771  0.28978  1.0000 -0.1625831067
C   C219      1.0  0.65115  0.10771  0.71022  1.0000 -0.1625831067
C   C220      1.0  0.34885  0.89229  0.71022  1.0000 -0.1625831067
C   C221      1.0  0.89229  0.71022  0.34885  1.0000 -0.1625831067
C   C222      1.0  0.10771  0.71022  0.65115  1.0000 -0.1625831067
C   C223      1.0  0.10771  0.28978  0.34885  1.0000 -0.1625831067
C   C224      1.0  0.89229  0.28978  0.65115  1.0000 -0.1625831067
C   C225      1.0  0.71022  0.65115  0.10771  1.0000 -0.1625831067
C   C226      1.0  0.71022  0.34885  0.89229  1.0000 -0.1625831067
C   C227      1.0  0.28978  0.65115  0.89229  1.0000 -0.1625831067
C   C228      1.0  0.28978  0.34885  0.10771  1.0000 -0.1625831067
C   C229      1.0  0.60771  0.84885  0.78978  1.0000 -0.1625831067
C   C230      1.0  0.39229  0.15115  0.78978  1.0000 -0.1625831067
C   C231      1.0  0.39229  0.84885  0.21022  1.0000 -0.1625831067
C   C232      1.0  0.60771  0.15115  0.21022  1.0000 -0.1625831067
C   C233      1.0  0.78978  0.60771  0.84885  1.0000 -0.1625831067
C   C234      1.0  0.78978  0.39229  0.15115  1.0000 -0.1625831067
C   C235      1.0  0.21022  0.39229  0.84885  1.0000 -0.1625831067
C   C236      1.0  0.21022  0.60771  0.15115  1.0000 -0.1625831067
C   C237      1.0  0.84885  0.78978  0.60771  1.0000 -0.1625831067
C   C238      1.0  0.15115  0.78978  0.39229  1.0000 -0.1625831067
C   C239      1.0  0.84885  0.21022  0.39229  1.0000 -0.1625831067
C   C240      1.0  0.15115  0.21022  0.60771  1.0000 -0.1625831067
C   C241      1.0  0.61720  0.91523  0.29095  1.0000 -0.0960809521
C   C242      1.0  0.38280  0.08477  0.29095  1.0000 -0.0960809521
C   C243      1.0  0.61720  0.08477  0.70905  1.0000 -0.0960809521
C   C244      1.0  0.38280  0.91523  0.70905  1.0000 -0.0960809521
C   C245      1.0  0.91523  0.70905  0.38280  1.0000 -0.0960809521
C   C246      1.0  0.08477  0.70905  0.61720  1.0000 -0.0960809521
C   C247      1.0  0.08477  0.29095  0.38280  1.0000 -0.0960809521
C   C248      1.0  0.91523  0.29095  0.61720  1.0000 -0.0960809521
C   C249      1.0  0.70905  0.61720  0.08477  1.0000 -0.0960809521
C   C250      1.0  0.70905  0.38280  0.91523  1.0000 -0.0960809521
C   C251      1.0  0.29095  0.61720  0.91523  1.0000 -0.0960809521
C   C252      1.0  0.29095  0.38280  0.08477  1.0000 -0.0960809521
C   C253      1.0  0.58477  0.88280  0.79095  1.0000 -0.0960809521
C   C254      1.0  0.41523  0.11720  0.79095  1.0000 -0.0960809521
C   C255      1.0  0.41523  0.88280  0.20905  1.0000 -0.0960809521
C   C256      1.0  0.58477  0.11720  0.20905  1.0000 -0.0960809521
C   C257      1.0  0.79095  0.58477  0.88280  1.0000 -0.0960809521
C   C258      1.0  0.79095  0.41523  0.11720  1.0000 -0.0960809521
C   C259      1.0  0.20905  0.41523  0.88280  1.0000 -0.0960809521
C   C260      1.0  0.20905  0.58477  0.11720  1.0000 -0.0960809521
C   C261      1.0  0.88280  0.79095  0.58477  1.0000 -0.0960809521
C   C262      1.0  0.11720  0.79095  0.41523  1.0000 -0.0960809521
C   C263      1.0  0.88280  0.20905  0.41523  1.0000 -0.0960809521
C   C264      1.0  0.11720  0.20905  0.58477  1.0000 -0.0960809521
C   C265      1.0  0.75506  0.81463  0.21429  1.0000 0.0890293618
C   C266      1.0  0.24494  0.18537  0.21429  1.0000 0.0890293618
C   C267      1.0  0.75506  0.18537  0.78571  1.0000 0.0890293618
C   C268      1.0  0.24494  0.81463  0.78571  1.0000 0.0890293618
C   C269      1.0  0.81463  0.78571  0.24494  1.0000 0.0890293618
C   C270      1.0  0.18537  0.78571  0.75506  1.0000 0.0890293618
C   C271      1.0  0.18537  0.21429  0.24494  1.0000 0.0890293618
C   C272      1.0  0.81463  0.21429  0.75506  1.0000 0.0890293618
C   C273      1.0  0.78571  0.75506  0.18537  1.0000 0.0890293618
C   C274      1.0  0.78571  0.24494  0.81463  1.0000 0.0890293618
C   C275      1.0  0.21429  0.75506  0.81463  1.0000 0.0890293618
C   C276      1.0  0.21429  0.24494  0.18537  1.0000 0.0890293618
C   C277      1.0  0.68537  0.74494  0.71429  1.0000 0.0890293618
C   C278      1.0  0.31463  0.25506  0.71429  1.0000 0.0890293618
C   C279      1.0  0.31463  0.74494  0.28571  1.0000 0.0890293618
C   C280      1.0  0.68537  0.25506  0.28571  1.0000 0.0890293618
C   C281      1.0  0.71429  0.68537  0.74494  1.0000 0.0890293618
C   C282      1.0  0.71429  0.31463  0.25506  1.0000 0.0890293618
C   C283      1.0  0.28571  0.31463  0.74494  1.0000 0.0890293618
C   C284      1.0  0.28571  0.68537  0.25506  1.0000 0.0890293618
C   C285      1.0  0.74494  0.71429  0.68537  1.0000 0.0890293618
C   C286      1.0  0.25506  0.71429  0.31463  1.0000 0.0890293618
C   C287      1.0  0.74494  0.28571  0.31463  1.0000 0.0890293618
C   C288      1.0  0.25506  0.28571  0.68537  1.0000 0.0890293618
C   C289      1.0  0.78488  0.81556  0.24386  1.0000 -0.2026322878
C   C290      1.0  0.21512  0.18444  0.24386  1.0000 -0.2026322878
C   C291      1.0  0.78488  0.18444  0.75614  1.0000 -0.2026322878
C   C292      1.0  0.21512  0.81556  0.75614  1.0000 -0.2026322878
C   C293      1.0  0.81556  0.75614  0.21512  1.0000 -0.2026322878
C   C294      1.0  0.18444  0.75614  0.78488  1.0000 -0.2026322878
C   C295      1.0  0.18444  0.24386  0.21512  1.0000 -0.2026322878
C   C296      1.0  0.81556  0.24386  0.78488  1.0000 -0.2026322878
C   C297      1.0  0.75614  0.78488  0.18444  1.0000 -0.2026322878
C   C298      1.0  0.75614  0.21512  0.81556  1.0000 -0.2026322878
C   C299      1.0  0.24386  0.78488  0.81556  1.0000 -0.2026322878
C   C300      1.0  0.24386  0.21512  0.18444  1.0000 -0.2026322878
C   C301      1.0  0.68444  0.71512  0.74386  1.0000 -0.2026322878
C   C302      1.0  0.31556  0.28488  0.74386  1.0000 -0.2026322878
C   C303      1.0  0.31556  0.71512  0.25614  1.0000 -0.2026322878
C   C304      1.0  0.68444  0.28488  0.25614  1.0000 -0.2026322878
C   C305      1.0  0.74386  0.68444  0.71512  1.0000 -0.2026322878
C   C306      1.0  0.74386  0.31556  0.28488  1.0000 -0.2026322878
C   C307      1.0  0.25614  0.31556  0.71512  1.0000 -0.2026322878
C   C308      1.0  0.25614  0.68444  0.28488  1.0000 -0.2026322878
C   C309      1.0  0.71512  0.74386  0.68444  1.0000 -0.2026322878
C   C310      1.0  0.28488  0.74386  0.31556  1.0000 -0.2026322878
C   C311      1.0  0.71512  0.25614  0.31556  1.0000 -0.2026322878
C   C312      1.0  0.28488  0.25614  0.68444  1.0000 -0.2026322878
C   C313      1.0  0.95583  0.56293  0.74474  1.0000 0.5958709032
C   C314      1.0  0.04417  0.43707  0.74474  1.0000 0.5958709032
C   C315      1.0  0.04417  0.56293  0.25526  1.0000 0.5958709032
C   C316      1.0  0.95583  0.43707  0.25526  1.0000 0.5958709032
C   C317      1.0  0.74474  0.95583  0.56293  1.0000 0.5958709032
C   C318      1.0  0.74474  0.04417  0.43707  1.0000 0.5958709032
C   C319      1.0  0.25526  0.04417  0.56293  1.0000 0.5958709032
C   C320      1.0  0.25526  0.95583  0.43707  1.0000 0.5958709032
C   C321      1.0  0.56293  0.74474  0.95583  1.0000 0.5958709032
C   C322      1.0  0.43707  0.74474  0.04417  1.0000 0.5958709032
C   C323      1.0  0.56293  0.25526  0.04417  1.0000 0.5958709032
C   C324      1.0  0.43707  0.25526  0.95583  1.0000 0.5958709032
C   C325      1.0  0.93707  0.54417  0.24474  1.0000 0.5958709032
C   C326      1.0  0.06293  0.45583  0.24474  1.0000 0.5958709032
C   C327      1.0  0.93707  0.45583  0.75526  1.0000 0.5958709032
C   C328      1.0  0.06293  0.54417  0.75526  1.0000 0.5958709032
C   C329      1.0  0.54417  0.75526  0.06293  1.0000 0.5958709032
C   C330      1.0  0.45583  0.75526  0.93707  1.0000 0.5958709032
C   C331      1.0  0.45583  0.24474  0.06293  1.0000 0.5958709032
C   C332      1.0  0.54417  0.24474  0.93707  1.0000 0.5958709032
C   C333      1.0  0.75526  0.93707  0.45583  1.0000 0.5958709032
C   C334      1.0  0.75526  0.06293  0.54417  1.0000 0.5958709032
C   C335      1.0  0.24474  0.93707  0.54417  1.0000 0.5958709032
C   C336      1.0  0.24474  0.06293  0.45583  1.0000 0.5958709032
C   C337      1.0  0.92987  0.60059  0.74604  1.0000 -0.0201708557
C   C338      1.0  0.07013  0.39941  0.74604  1.0000 -0.0201708557
C   C339      1.0  0.07013  0.60059  0.25396  1.0000 -0.0201708557
C   C340      1.0  0.92987  0.39941  0.25396  1.0000 -0.0201708557
C   C341      1.0  0.74604  0.92987  0.60059  1.0000 -0.0201708557
C   C342      1.0  0.74604  0.07013  0.39941  1.0000 -0.0201708557
C   C343      1.0  0.25396  0.07013  0.60059  1.0000 -0.0201708557
C   C344      1.0  0.25396  0.92987  0.39941  1.0000 -0.0201708557
C   C345      1.0  0.60059  0.74604  0.92987  1.0000 -0.0201708557
C   C346      1.0  0.39941  0.74604  0.07013  1.0000 -0.0201708557
C   C347      1.0  0.60059  0.25396  0.07013  1.0000 -0.0201708557
C   C348      1.0  0.39941  0.25396  0.92987  1.0000 -0.0201708557
C   C349      1.0  0.89941  0.57013  0.24604  1.0000 -0.0201708557
C   C350      1.0  0.10059  0.42987  0.24604  1.0000 -0.0201708557
C   C351      1.0  0.89941  0.42987  0.75396  1.0000 -0.0201708557
C   C352      1.0  0.10059  0.57013  0.75396  1.0000 -0.0201708557
C   C353      1.0  0.57013  0.75396  0.10059  1.0000 -0.0201708557
C   C354      1.0  0.42987  0.75396  0.89941  1.0000 -0.0201708557
C   C355      1.0  0.42987  0.24604  0.10059  1.0000 -0.0201708557
C   C356      1.0  0.57013  0.24604  0.89941  1.0000 -0.0201708557
C   C357      1.0  0.75396  0.89941  0.42987  1.0000 -0.0201708557
C   C358      1.0  0.75396  0.10059  0.57013  1.0000 -0.0201708557
C   C359      1.0  0.24604  0.89941  0.57013  1.0000 -0.0201708557
C   C360      1.0  0.24604  0.10059  0.42987  1.0000 -0.0201708557
C   C361      1.0  0.91978  0.61765  0.78249  1.0000 -0.1465436048
C   C362      1.0  0.08022  0.38235  0.78249  1.0000 -0.1465436048
C   C363      1.0  0.08022  0.61765  0.21751  1.0000 -0.1465436048
C   C364      1.0  0.91978  0.38235  0.21751  1.0000 -0.1465436048
C   C365      1.0  0.78249  0.91978  0.61765  1.0000 -0.1465436048
C   C366      1.0  0.78249  0.08022  0.38235  1.0000 -0.1465436048
C   C367      1.0  0.21751  0.08022  0.61765  1.0000 -0.1465436048
C   C368      1.0  0.21751  0.91978  0.38235  1.0000 -0.1465436048
C   C369      1.0  0.61765  0.78249  0.91978  1.0000 -0.1465436048
C   C370      1.0  0.38235  0.78249  0.08022  1.0000 -0.1465436048
C   C371      1.0  0.61765  0.21751  0.08022  1.0000 -0.1465436048
C   C372      1.0  0.38235  0.21751  0.91978  1.0000 -0.1465436048
C   C373      1.0  0.88235  0.58022  0.28249  1.0000 -0.1465436048
C   C374      1.0  0.11765  0.41978  0.28249  1.0000 -0.1465436048
C   C375      1.0  0.88235  0.41978  0.71751  1.0000 -0.1465436048
C   C376      1.0  0.11765  0.58022  0.71751  1.0000 -0.1465436048
C   C377      1.0  0.58022  0.71751  0.11765  1.0000 -0.1465436048
C   C378      1.0  0.41978  0.71751  0.88235  1.0000 -0.1465436048
C   C379      1.0  0.41978  0.28249  0.11765  1.0000 -0.1465436048
C   C380      1.0  0.58022  0.28249  0.88235  1.0000 -0.1465436048
C   C381      1.0  0.71751  0.88235  0.41978  1.0000 -0.1465436048
C   C382      1.0  0.71751  0.11765  0.58022  1.0000 -0.1465436048
C   C383      1.0  0.28249  0.88235  0.58022  1.0000 -0.1465436048
C   C384      1.0  0.28249  0.11765  0.41978  1.0000 -0.1465436048
C   C385      1.0  0.89619  0.65287  0.78439  1.0000 0.0688745184
C   C386      1.0  0.10381  0.34713  0.78439  1.0000 0.0688745184
C   C387      1.0  0.10381  0.65287  0.21561  1.0000 0.0688745184
C   C388      1.0  0.89619  0.34713  0.21561  1.0000 0.0688745184
C   C389      1.0  0.78439  0.89619  0.65287  1.0000 0.0688745184
C   C390      1.0  0.78439  0.10381  0.34713  1.0000 0.0688745184
C   C391      1.0  0.21561  0.10381  0.65287  1.0000 0.0688745184
C   C392      1.0  0.21561  0.89619  0.34713  1.0000 0.0688745184
C   C393      1.0  0.65287  0.78439  0.89619  1.0000 0.0688745184
C   C394      1.0  0.34713  0.78439  0.10381  1.0000 0.0688745184
C   C395      1.0  0.65287  0.21561  0.10381  1.0000 0.0688745184
C   C396      1.0  0.34713  0.21561  0.89619  1.0000 0.0688745184
C   C397      1.0  0.84713  0.60381  0.28439  1.0000 0.0688745184
C   C398      1.0  0.15287  0.39619  0.28439  1.0000 0.0688745184
C   C399      1.0  0.84713  0.39619  0.71561  1.0000 0.0688745184
C   C400      1.0  0.15287  0.60381  0.71561  1.0000 0.0688745184
C   C401      1.0  0.60381  0.71561  0.15287  1.0000 0.0688745184
C   C402      1.0  0.39619  0.71561  0.84713  1.0000 0.0688745184
C   C403      1.0  0.39619  0.28439  0.15287  1.0000 0.0688745184
C   C404      1.0  0.60381  0.28439  0.84713  1.0000 0.0688745184
C   C405      1.0  0.71561  0.84713  0.39619  1.0000 0.0688745184
C   C406      1.0  0.71561  0.15287  0.60381  1.0000 0.0688745184
C   C407      1.0  0.28439  0.84713  0.60381  1.0000 0.0688745184
C   C408      1.0  0.28439  0.15287  0.39619  1.0000 0.0688745184
C   C409      1.0  0.88501  0.67109  0.82061  1.0000 -0.1445794983
C   C410      1.0  0.11499  0.32891  0.82061  1.0000 -0.1465436048
C   C411      1.0  0.11499  0.67109  0.17939  1.0000 -0.1445794983
C   C412      1.0  0.88501  0.32891  0.17939  1.0000 -0.1445794983
C   C413      1.0  0.82061  0.88501  0.67109  1.0000 -0.1445794983
C   C414      1.0  0.82061  0.11499  0.32891  1.0000 -0.1445794983
C   C415      1.0  0.17939  0.11499  0.67109  1.0000 -0.1445794983
C   C416      1.0  0.17939  0.88501  0.32891  1.0000 -0.1445794983
C   C417      1.0  0.67109  0.82061  0.88501  1.0000 -0.1445794983
C   C418      1.0  0.32891  0.82061  0.11499  1.0000 -0.1465436048
C   C419      1.0  0.67109  0.17939  0.11499  1.0000 -0.1445794983
C   C420      1.0  0.32891  0.17939  0.88501  1.0000 -0.1445794983
C   C421      1.0  0.82891  0.61499  0.32061  1.0000 -0.1445794983
C   C422      1.0  0.17109  0.38501  0.32061  1.0000 -0.1445794983
C   C423      1.0  0.82891  0.38501  0.67939  1.0000 -0.1445794983
C   C424      1.0  0.17109  0.61499  0.67939  1.0000 -0.1465436048
C   C425      1.0  0.61499  0.67939  0.17109  1.0000 -0.1445794983
C   C426      1.0  0.38501  0.67939  0.82891  1.0000 -0.1445794983
C   C427      1.0  0.38501  0.32061  0.17109  1.0000 -0.1445794983
C   C428      1.0  0.61499  0.32061  0.82891  1.0000 -0.1445794983
C   C429      1.0  0.67939  0.82891  0.38501  1.0000 -0.1445794983
C   C430      1.0  0.67939  0.17109  0.61499  1.0000 -0.1445794983
C   C431      1.0  0.32061  0.82891  0.61499  1.0000 -0.1445794983
C   C432      1.0  0.32061  0.17109  0.38501  1.0000 -0.1445794983
C   C433      1.0  0.85931  0.70451  0.82115  1.0000 -0.1625831067
C   C434      1.0  0.14069  0.29549  0.82115  1.0000 -0.1625831067
C   C435      1.0  0.14069  0.70451  0.17885  1.0000 -0.1625831067
C   C436      1.0  0.85931  0.29549  0.17885  1.0000 -0.1625831067
C   C437      1.0  0.82115  0.85931  0.70451  1.0000 -0.1625831067
C   C438      1.0  0.82115  0.14069  0.29549  1.0000 -0.1625831067
C   C439      1.0  0.17885  0.14069  0.70451  1.0000 -0.1625831067
C   C440      1.0  0.17885  0.85931  0.29549  1.0000 -0.1625831067
C   C441      1.0  0.70451  0.82115  0.85931  1.0000 -0.1625831067
C   C442      1.0  0.29549  0.82115  0.14069  1.0000 -0.1625831067
C   C443      1.0  0.70451  0.17885  0.14069  1.0000 -0.1625831067
C   C444      1.0  0.29549  0.17885  0.85931  1.0000 -0.1625831067
C   C445      1.0  0.79549  0.64069  0.32115  1.0000 -0.1625831067
C   C446      1.0  0.20451  0.35931  0.32115  1.0000 -0.1625831067
C   C447      1.0  0.79549  0.35931  0.67885  1.0000 -0.1625831067
C   C448      1.0  0.20451  0.64069  0.67885  1.0000 -0.1625831067
C   C449      1.0  0.64069  0.67885  0.20451  1.0000 -0.1625831067
C   C450      1.0  0.35931  0.67885  0.79549  1.0000 -0.1655324748
C   C451      1.0  0.35931  0.32115  0.20451  1.0000 -0.1625831067
C   C452      1.0  0.64069  0.32115  0.79549  1.0000 -0.1625831067
C   C453      1.0  0.67885  0.79549  0.35931  1.0000 -0.1625831067
C   C454      1.0  0.67885  0.20451  0.64069  1.0000 -0.1625831067
C   C455      1.0  0.32115  0.79549  0.64069  1.0000 -0.1625831067
C   C456      1.0  0.32115  0.20451  0.35931  1.0000 -0.1625831067
C   C457      1.0  0.84426  0.72080  0.78561  1.0000 0.0688745184
C   C458      1.0  0.15574  0.27920  0.78561  1.0000 0.0688745184
C   C459      1.0  0.15574  0.72080  0.21439  1.0000 0.0688745184
C   C460      1.0  0.84426  0.27920  0.21439  1.0000 0.0688745184
C   C461      1.0  0.78561  0.84426  0.72080  1.0000 0.0688745184
C   C462      1.0  0.78561  0.15574  0.27920  1.0000 0.0688745184
C   C463      1.0  0.21439  0.15574  0.72080  1.0000 0.0688745184
C   C464      1.0  0.21439  0.84426  0.27920  1.0000 0.0688745184
C   C465      1.0  0.72080  0.78561  0.84426  1.0000 0.0688745184
C   C466      1.0  0.27920  0.78561  0.15574  1.0000 0.0688745184
C   C467      1.0  0.72080  0.21439  0.15574  1.0000 0.0688745184
C   C468      1.0  0.27920  0.21439  0.84426  1.0000 0.0688745184
C   C469      1.0  0.77920  0.65574  0.28561  1.0000 0.0688745184
C   C470      1.0  0.22080  0.34426  0.28561  1.0000 0.0688745184
C   C471      1.0  0.77920  0.34426  0.71439  1.0000 0.0688745184
C   C472      1.0  0.22080  0.65574  0.71439  1.0000 0.0688745184
C   C473      1.0  0.65574  0.71439  0.22080  1.0000 0.0688745184
C   C474      1.0  0.34426  0.71439  0.77920  1.0000 0.0688745184
C   C475      1.0  0.34426  0.28561  0.22080  1.0000 0.0688745184
C   C476      1.0  0.65574  0.28561  0.77920  1.0000 0.0688745184
C   C477      1.0  0.71439  0.77920  0.34426  1.0000 0.0688745184
C   C478      1.0  0.71439  0.22080  0.65574  1.0000 0.0688745184
C   C479      1.0  0.28561  0.77920  0.65574  1.0000 0.0688745184
C   C480      1.0  0.28561  0.22080  0.34426  1.0000 0.0688745184
C   C481      1.0  0.85429  0.70316  0.74923  1.0000 -0.2026322878
C   C482      1.0  0.14571  0.29684  0.74923  1.0000 -0.2026322878
C   C483      1.0  0.14571  0.70316  0.25077  1.0000 -0.2026322878
C   C484      1.0  0.85429  0.29684  0.25077  1.0000 -0.2026322878
C   C485      1.0  0.74923  0.85429  0.70316  1.0000 -0.2026322878
C   C486      1.0  0.74923  0.14571  0.29684  1.0000 -0.2026322878
C   C487      1.0  0.25077  0.14571  0.70316  1.0000 -0.2026322878
C   C488      1.0  0.25077  0.85429  0.29684  1.0000 -0.2026322878
C   C489      1.0  0.70316  0.74923  0.85429  1.0000 -0.2026322878
C   C490      1.0  0.29684  0.74923  0.14571  1.0000 -0.2026322878
C   C491      1.0  0.70316  0.25077  0.14571  1.0000 -0.2026322878
C   C492      1.0  0.29684  0.25077  0.85429  1.0000 -0.2026322878
C   C493      1.0  0.79684  0.64571  0.24923  1.0000 -0.2026322878
C   C494      1.0  0.20316  0.35429  0.24923  1.0000 -0.2026322878
C   C495      1.0  0.79684  0.35429  0.75077  1.0000 -0.2026322878
C   C496      1.0  0.20316  0.64571  0.75077  1.0000 -0.2026322878
C   C497      1.0  0.64571  0.75077  0.20316  1.0000 -0.2026322878
C   C498      1.0  0.35429  0.75077  0.79684  1.0000 -0.2026322878
C   C499      1.0  0.35429  0.24923  0.20316  1.0000 -0.2026322878
C   C500      1.0  0.64571  0.24923  0.79684  1.0000 -0.2026322878
C   C501      1.0  0.75077  0.79684  0.35429  1.0000 -0.2026322878
C   C502      1.0  0.75077  0.20316  0.64571  1.0000 -0.2026322878
C   C503      1.0  0.24923  0.79684  0.64571  1.0000 -0.2026322878
C   C504      1.0  0.24923  0.20316  0.35429  1.0000 -0.2026322878
C   C505      1.0  0.88049  0.66963  0.74670  1.0000 0.0837930833
C   C506      1.0  0.11951  0.33037  0.74670  1.0000 0.0837930833
C   C507      1.0  0.11951  0.66963  0.25330  1.0000 0.0837930833
C   C508      1.0  0.88049  0.33037  0.25330  1.0000 0.0837930833
C   C509      1.0  0.74670  0.88049  0.66963  1.0000 0.0837930833
C   C510      1.0  0.74670  0.11951  0.33037  1.0000 0.0837930833
C   C511      1.0  0.25330  0.11951  0.66963  1.0000 0.0837930833
C   C512      1.0  0.25330  0.88049  0.33037  1.0000 0.0837930833
C   C513      1.0  0.66963  0.74670  0.88049  1.0000 0.0837930833
C   C514      1.0  0.33037  0.74670  0.11951  1.0000 0.0837930833
C   C515      1.0  0.66963  0.25330  0.11951  1.0000 0.0837930833
C   C516      1.0  0.33037  0.25330  0.88049  1.0000 0.0837930833
C   C517      1.0  0.83037  0.61951  0.24670  1.0000 0.0837930833
C   C518      1.0  0.16963  0.38049  0.24670  1.0000 0.0837930833
C   C519      1.0  0.83037  0.38049  0.75330  1.0000 0.0837930833
C   C520      1.0  0.16963  0.61951  0.75330  1.0000 0.0837930833
C   C521      1.0  0.61951  0.75330  0.16963  1.0000 0.0837930833
C   C522      1.0  0.38049  0.75330  0.83037  1.0000 0.0837930833
C   C523      1.0  0.38049  0.24670  0.16963  1.0000 0.0837930833
C   C524      1.0  0.61951  0.24670  0.83037  1.0000 0.0837930833
C   C525      1.0  0.75330  0.83037  0.38049  1.0000 0.0837930833
C   C526      1.0  0.75330  0.16963  0.61951  1.0000 0.0837930833
C   C527      1.0  0.24670  0.83037  0.61951  1.0000 0.0837930833
C   C528      1.0  0.24670  0.16963  0.38049  1.0000 0.0837930833
C   C529      1.0  0.89229  0.65115  0.71022  1.0000 -0.1625831067
C   C530      1.0  0.10771  0.34885  0.71022  1.0000 -0.1625831067
C   C531      1.0  0.10771  0.65115  0.28978  1.0000 -0.1625831067
C   C532      1.0  0.89229  0.34885  0.28978  1.0000 -0.1625831067
C   C533      1.0  0.71022  0.89229  0.65115  1.0000 -0.1625831067
C   C534      1.0  0.71022  0.10771  0.34885  1.0000 -0.1625831067
C   C535      1.0  0.28978  0.10771  0.65115  1.0000 -0.1625831067
C   C536      1.0  0.28978  0.89229  0.34885  1.0000 -0.1625831067
C   C537      1.0  0.65115  0.71022  0.89229  1.0000 -0.1625831067
C   C538      1.0  0.34885  0.71022  0.10771  1.0000 -0.1625831067
C   C539      1.0  0.65115  0.28978  0.10771  1.0000 -0.1625831067
C   C540      1.0  0.34885  0.28978  0.89229  1.0000 -0.1625831067
C   C541      1.0  0.84885  0.60771  0.21022  1.0000 -0.1625831067
C   C542      1.0  0.15115  0.39229  0.21022  1.0000 -0.1625831067
C   C543      1.0  0.84885  0.39229  0.78978  1.0000 -0.1625831067
C   C544      1.0  0.15115  0.60771  0.78978  1.0000 -0.1625831067
C   C545      1.0  0.60771  0.78978  0.15115  1.0000 -0.1625831067
C   C546      1.0  0.39229  0.78978  0.84885  1.0000 -0.1625831067
C   C547      1.0  0.39229  0.21022  0.15115  1.0000 -0.1625831067
C   C548      1.0  0.60771  0.21022  0.84885  1.0000 -0.1625831067
C   C549      1.0  0.78978  0.84885  0.39229  1.0000 -0.1625831067
C   C550      1.0  0.78978  0.15115  0.60771  1.0000 -0.1625831067
C   C551      1.0  0.21022  0.84885  0.60771  1.0000 -0.1625831067
C   C552      1.0  0.21022  0.15115  0.39229  1.0000 -0.1625831067
C   C553      1.0  0.91523  0.61720  0.70905  1.0000 -0.0960809521
C   C554      1.0  0.08477  0.38280  0.70905  1.0000 -0.0960809521
C   C555      1.0  0.08477  0.61720  0.29095  1.0000 -0.0960809521
C   C556      1.0  0.91523  0.38280  0.29095  1.0000 -0.0960809521
C   C557      1.0  0.70905  0.91523  0.61720  1.0000 -0.0960809521
C   C558      1.0  0.70905  0.08477  0.38280  1.0000 -0.0960809521
C   C559      1.0  0.29095  0.08477  0.61720  1.0000 -0.0960809521
C   C560      1.0  0.29095  0.91523  0.38280  1.0000 -0.0960809521
C   C561      1.0  0.61720  0.70905  0.91523  1.0000 -0.0960809521
C   C562      1.0  0.38280  0.70905  0.08477  1.0000 -0.0960809521
C   C563      1.0  0.61720  0.29095  0.08477  1.0000 -0.0960809521
C   C564      1.0  0.38280  0.29095  0.91523  1.0000 -0.0960809521
C   C565      1.0  0.88280  0.58477  0.20905  1.0000 -0.0960809521
C   C566      1.0  0.11720  0.41523  0.20905  1.0000 -0.0960809521
C   C567      1.0  0.88280  0.41523  0.79095  1.0000 -0.0960809521
C   C568      1.0  0.11720  0.58477  0.79095  1.0000 -0.0960809521
C   C569      1.0  0.58477  0.79095  0.11720  1.0000 -0.0960809521
C   C570      1.0  0.41523  0.79095  0.88280  1.0000 -0.0960809521
C   C571      1.0  0.41523  0.20905  0.11720  1.0000 -0.0960809521
C   C572      1.0  0.58477  0.20905  0.88280  1.0000 -0.0960809521
C   C573      1.0  0.79095  0.88280  0.41523  1.0000 -0.0960809521
C   C574      1.0  0.79095  0.11720  0.58477  1.0000 -0.0960809521
C   C575      1.0  0.20905  0.88280  0.58477  1.0000 -0.0960809521
C   C576      1.0  0.20905  0.11720  0.41523  1.0000 -0.0960809521
C   C577      1.0  0.81463  0.75506  0.78571  1.0000 0.0890293618
C   C578      1.0  0.18537  0.24494  0.78571  1.0000 0.0890293618
C   C579      1.0  0.18537  0.75506  0.21429  1.0000 0.0890293618
C   C580      1.0  0.81463  0.24494  0.21429  1.0000 0.0890293618
C   C581      1.0  0.78571  0.81463  0.75506  1.0000 0.0890293618
C   C582      1.0  0.78571  0.18537  0.24494  1.0000 0.0890293618
C   C583      1.0  0.21429  0.18537  0.75506  1.0000 0.0890293618
C   C584      1.0  0.21429  0.81463  0.24494  1.0000 0.0890293618
C   C585      1.0  0.75506  0.78571  0.81463  1.0000 0.0890293618
C   C586      1.0  0.24494  0.78571  0.18537  1.0000 0.0890293618
C   C587      1.0  0.75506  0.21429  0.18537  1.0000 0.0890293618
C   C588      1.0  0.24494  0.21429  0.81463  1.0000 0.0890293618
C   C589      1.0  0.74494  0.68537  0.28571  1.0000 0.0890293618
C   C590      1.0  0.25506  0.31463  0.28571  1.0000 0.0890293618
C   C591      1.0  0.74494  0.31463  0.71429  1.0000 0.0890293618
C   C592      1.0  0.25506  0.68537  0.71429  1.0000 0.0890293618
C   C593      1.0  0.68537  0.71429  0.25506  1.0000 0.0890293618
C   C594      1.0  0.31463  0.71429  0.74494  1.0000 0.0890293618
C   C595      1.0  0.31463  0.28571  0.25506  1.0000 0.0890293618
C   C596      1.0  0.68537  0.28571  0.74494  1.0000 0.0890293618
C   C597      1.0  0.71429  0.74494  0.31463  1.0000 0.0890293618
C   C598      1.0  0.71429  0.25506  0.68537  1.0000 0.0890293618
C   C599      1.0  0.28571  0.74494  0.68537  1.0000 0.0890293618
C   C600      1.0  0.28571  0.25506  0.31463  1.0000 0.0890293618
C   C601      1.0  0.81556  0.78488  0.75614  1.0000 -0.2026322878
C   C602      1.0  0.18444  0.21512  0.75614  1.0000 -0.2026322878
C   C603      1.0  0.18444  0.78488  0.24386  1.0000 -0.2026322878
C   C604      1.0  0.81556  0.21512  0.24386  1.0000 -0.2026322878
C   C605      1.0  0.75614  0.81556  0.78488  1.0000 -0.2026322878
C   C606      1.0  0.75614  0.18444  0.21512  1.0000 -0.2026322878
C   C607      1.0  0.24386  0.18444  0.78488  1.0000 -0.2026322878
C   C608      1.0  0.24386  0.81556  0.21512  1.0000 -0.2026322878
C   C609      1.0  0.78488  0.75614  0.81556  1.0000 -0.2026322878
C   C610      1.0  0.21512  0.75614  0.18444  1.0000 -0.2026322878
C   C611      1.0  0.78488  0.24386  0.18444  1.0000 -0.2026322878
C   C612      1.0  0.21512  0.24386  0.81556  1.0000 -0.2026322878
C   C613      1.0  0.71512  0.68444  0.25614  1.0000 -0.2026322878
C   C614      1.0  0.28488  0.31556  0.25614  1.0000 -0.2026322878
C   C615      1.0  0.71512  0.31556  0.74386  1.0000 -0.2026322878
C   C616      1.0  0.28488  0.68444  0.74386  1.0000 -0.2026322878
C   C617      1.0  0.68444  0.74386  0.28488  1.0000 -0.2026322878
C   C618      1.0  0.31556  0.74386  0.71512  1.0000 -0.2026322878
C   C619      1.0  0.31556  0.25614  0.28488  1.0000 -0.2026322878
C   C620      1.0  0.68444  0.25614  0.71512  1.0000 -0.2026322878
C   C621      1.0  0.74386  0.71512  0.31556  1.0000 -0.2026322878
C   C622      1.0  0.74386  0.28488  0.68444  1.0000 -0.2026322878
C   C623      1.0  0.25614  0.71512  0.68444  1.0000 -0.2026322878
C   C624      1.0  0.25614  0.28488  0.31556  1.0000 -0.2026322878
O   O1        1.0  0.54849  0.96607  0.22130  1.0000 -0.5548919298
O   O2        1.0  0.45151  0.03393  0.22130  1.0000 -0.5548919298
O   O3        1.0  0.54849  0.03393  0.77870  1.0000 -0.5557779125
O   O4        1.0  0.45151  0.96607  0.77870  1.0000 -0.5548919298
O   O5        1.0  0.96607  0.77870  0.45151  1.0000 -0.5548919298
O   O6        1.0  0.03393  0.77870  0.54849  1.0000 -0.5557779125
O   O7        1.0  0.03393  0.22130  0.45151  1.0000 -0.5548919298
O   O8        1.0  0.96607  0.22130  0.54849  1.0000 -0.5548919298
O   O9        1.0  0.77870  0.54849  0.03393  1.0000 -0.5557779125
O   O10       1.0  0.77870  0.45151  0.96607  1.0000 -0.5548919298
O   O11       1.0  0.22130  0.54849  0.96607  1.0000 -0.5548919298
O   O12       1.0  0.22130  0.45151  0.03393  1.0000 -0.5548919298
O   O13       1.0  0.53393  0.95151  0.72130  1.0000 -0.5548919298
O   O14       1.0  0.46607  0.04849  0.72130  1.0000 -0.5557779125
O   O15       1.0  0.46607  0.95151  0.27870  1.0000 -0.5548919298
O   O16       1.0  0.53393  0.04849  0.27870  1.0000 -0.5557779125
O   O17       1.0  0.72130  0.53393  0.95151  1.0000 -0.5548919298
O   O18       1.0  0.72130  0.46607  0.04849  1.0000 -0.5548919298
O   O19       1.0  0.27870  0.46607  0.95151  1.0000 -0.5557779125
O   O20       1.0  0.27870  0.53393  0.04849  1.0000 -0.5557779125
O   O21       1.0  0.95151  0.72130  0.53393  1.0000 -0.5548919298
O   O22       1.0  0.04849  0.72130  0.46607  1.0000 -0.5548919298
O   O23       1.0  0.95151  0.27870  0.46607  1.0000 -0.5557779125
O   O24       1.0  0.04849  0.27870  0.53393  1.0000 -0.5557779125
O   O25       1.0  0.54970  0.96549  0.28962  1.0000 -0.5343748265
O   O26       1.0  0.45030  0.03451  0.28962  1.0000 -0.5343748265
O   O27       1.0  0.54970  0.03451  0.71038  1.0000 -0.5343748265
O   O28       1.0  0.45030  0.96549  0.71038  1.0000 -0.5343748265
O   O29       1.0  0.96549  0.71038  0.45030  1.0000 -0.5343748265
O   O30       1.0  0.03451  0.71038  0.54970  1.0000 -0.5343748265
O   O31       1.0  0.03451  0.28962  0.45030  1.0000 -0.5343748265
O   O32       1.0  0.96549  0.28962  0.54970  1.0000 -0.5343748265
O   O33       1.0  0.71038  0.54970  0.03451  1.0000 -0.5343748265
O   O34       1.0  0.71038  0.45030  0.96549  1.0000 -0.5343748265
O   O35       1.0  0.28962  0.54970  0.96549  1.0000 -0.5343748265
O   O36       1.0  0.28962  0.45030  0.03451  1.0000 -0.5343748265
O   O37       1.0  0.53451  0.95030  0.78962  1.0000 -0.5343748265
O   O38       1.0  0.46549  0.04970  0.78962  1.0000 -0.5343748265
O   O39       1.0  0.46549  0.95030  0.21038  1.0000 -0.5343748265
O   O40       1.0  0.53451  0.04970  0.21038  1.0000 -0.5354572586
O   O41       1.0  0.78962  0.53451  0.95030  1.0000 -0.5343748265
O   O42       1.0  0.78962  0.46549  0.04970  1.0000 -0.5343748265
O   O43       1.0  0.21038  0.46549  0.95030  1.0000 -0.5343748265
O   O44       1.0  0.21038  0.53451  0.04970  1.0000 -0.5343748265
O   O45       1.0  0.95030  0.78962  0.53451  1.0000 -0.5343748265
O   O46       1.0  0.04970  0.78962  0.46549  1.0000 -0.5343748265
O   O47       1.0  0.95030  0.21038  0.46549  1.0000 -0.5343748265
O   O48       1.0  0.04970  0.21038  0.53451  1.0000 -0.5354572586
O   O49       1.0  0.96607  0.54849  0.77870  1.0000 -0.5557779125
O   O50       1.0  0.03393  0.45151  0.77870  1.0000 -0.5548919298
O   O51       1.0  0.03393  0.54849  0.22130  1.0000 -0.5548919298
O   O52       1.0  0.96607  0.45151  0.22130  1.0000 -0.5548919298
O   O53       1.0  0.77870  0.96607  0.54849  1.0000 -0.5557779125
O   O54       1.0  0.77870  0.03393  0.45151  1.0000 -0.5548919298
O   O55       1.0  0.22130  0.03393  0.54849  1.0000 -0.5548919298
O   O56       1.0  0.22130  0.96607  0.45151  1.0000 -0.5548919298
O   O57       1.0  0.54849  0.77870  0.96607  1.0000 -0.5557779125
O   O58       1.0  0.45151  0.77870  0.03393  1.0000 -0.5548919298
O   O59       1.0  0.54849  0.22130  0.03393  1.0000 -0.5548919298
O   O60       1.0  0.45151  0.22130  0.96607  1.0000 -0.5548919298
O   O61       1.0  0.95151  0.53393  0.27870  1.0000 -0.5548919298
O   O62       1.0  0.04849  0.46607  0.27870  1.0000 -0.5557779125
O   O63       1.0  0.95151  0.46607  0.72130  1.0000 -0.5548919298
O   O64       1.0  0.04849  0.53393  0.72130  1.0000 -0.5548919298
O   O65       1.0  0.53393  0.72130  0.04849  1.0000 -0.5548919298
O   O66       1.0  0.46607  0.72130  0.95151  1.0000 -0.5557779125
O   O67       1.0  0.46607  0.27870  0.04849  1.0000 -0.5557779125
O   O68       1.0  0.53393  0.27870  0.95151  1.0000 -0.5557779125
O   O69       1.0  0.72130  0.95151  0.46607  1.0000 -0.5548919298
O   O70       1.0  0.72130  0.04849  0.53393  1.0000 -0.5548919298
O   O71       1.0  0.27870  0.95151  0.53393  1.0000 -0.5548919298
O   O72       1.0  0.27870  0.04849  0.46607  1.0000 -0.5557779125
O   O73       1.0  0.96549  0.54970  0.71038  1.0000 -0.5343748265
O   O74       1.0  0.03451  0.45030  0.71038  1.0000 -0.5343748265
O   O75       1.0  0.03451  0.54970  0.28962  1.0000 -0.5343748265
O   O76       1.0  0.96549  0.45030  0.28962  1.0000 -0.5343748265
O   O77       1.0  0.71038  0.96549  0.54970  1.0000 -0.5343748265
O   O78       1.0  0.71038  0.03451  0.45030  1.0000 -0.5343748265
O   O79       1.0  0.28962  0.03451  0.54970  1.0000 -0.5343748265
O   O80       1.0  0.28962  0.96549  0.45030  1.0000 -0.5343748265
O   O81       1.0  0.54970  0.71038  0.96549  1.0000 -0.5343748265
O   O82       1.0  0.45030  0.71038  0.03451  1.0000 -0.5343748265
O   O83       1.0  0.54970  0.28962  0.03451  1.0000 -0.5343748265
O   O84       1.0  0.45030  0.28962  0.96549  1.0000 -0.5343748265
O   O85       1.0  0.95030  0.53451  0.21038  1.0000 -0.5343748265
O   O86       1.0  0.04970  0.46549  0.21038  1.0000 -0.5343748265
O   O87       1.0  0.95030  0.46549  0.78962  1.0000 -0.5343748265
O   O88       1.0  0.04970  0.53451  0.78962  1.0000 -0.5343748265
O   O89       1.0  0.53451  0.78962  0.04970  1.0000 -0.5343748265
O   O90       1.0  0.46549  0.78962  0.95030  1.0000 -0.5343748265
O   O91       1.0  0.46549  0.21038  0.04970  1.0000 -0.5343748265
O   O92       1.0  0.53451  0.21038  0.95030  1.0000 -0.5343748265
O   O93       1.0  0.78962  0.95030  0.46549  1.0000 -0.5343748265
O   O94       1.0  0.78962  0.04970  0.53451  1.0000 -0.5343748265
O   O95       1.0  0.21038  0.95030  0.53451  1.0000 -0.5343748265
O   O96       1.0  0.21038  0.04970  0.46549  1.0000 -0.5343748265
