# DDEC6 charges by PACMAN v1.1 (https://github.com/mtap-research/PACMAN-charge/)
data_2013[Mn][pto]3[ASR]1
_chemical_formula_sum              "Mn24 H336 C624 O96"
_cell_length_a       33.5118
_cell_length_b       33.5118
_cell_length_c       33.5118
_cell_angle_alpha    90
_cell_angle_beta     90
_cell_angle_gamma    90

_symmetry_space_group_name_H-M    "P 1"
_symmetry_Int_Tables_number       1

loop_
  _symmetry_equiv_pos_as_xyz
  'x, y, z'

loop_
  _atom_site_type_symbol
  _atom_site_label
  _atom_site_symmetry_multiplicity
  _atom_site_fract_x
  _atom_site_fract_y
  _atom_site_fract_z
  _atom_site_occupancy
  _atom_site_charge
Mn  Mn1       1.0  0.79894  0.50000  0.00000  1.0000 1.0380010466
Mn  Mn2       1.0  0.20106  0.50000  0.00000  1.0000 1.0380010466
Mn  Mn3       1.0  0.50000  0.00000  0.20106  1.0000 1.0380010466
Mn  Mn4       1.0  0.50000  0.00000  0.79894  1.0000 1.0380010466
Mn  Mn5       1.0  0.00000  0.79894  0.50000  1.0000 1.0380010466
Mn  Mn6       1.0  0.00000  0.20106  0.50000  1.0000 1.0380010466
Mn  Mn7       1.0  0.00000  0.70106  0.50000  1.0000 1.0380010466
Mn  Mn8       1.0  0.00000  0.29894  0.50000  1.0000 1.0380010466
Mn  Mn9       1.0  0.50000  0.00000  0.70106  1.0000 1.0380010466
Mn  Mn10      1.0  0.50000  0.00000  0.29894  1.0000 1.0380010466
Mn  Mn11      1.0  0.70106  0.50000  0.00000  1.0000 1.0380010466
Mn  Mn12      1.0  0.29894  0.50000  0.00000  1.0000 1.0380010466
Mn  Mn13      1.0  0.50000  0.79894  0.00000  1.0000 1.0380010466
Mn  Mn14      1.0  0.50000  0.20106  0.00000  1.0000 1.0380010466
Mn  Mn15      1.0  0.00000  0.50000  0.79894  1.0000 1.0380010466
Mn  Mn16      1.0  0.00000  0.50000  0.20106  1.0000 1.0380010466
Mn  Mn17      1.0  0.79894  0.00000  0.50000  1.0000 1.0380010466
Mn  Mn18      1.0  0.20106  0.00000  0.50000  1.0000 1.0380010466
Mn  Mn19      1.0  0.70106  0.00000  0.50000  1.0000 1.0380010466
Mn  Mn20      1.0  0.29894  0.00000  0.50000  1.0000 1.0380010466
Mn  Mn21      1.0  0.00000  0.50000  0.29894  1.0000 1.0380010466
Mn  Mn22      1.0  0.00000  0.50000  0.70106  1.0000 1.0380010466
Mn  Mn23      1.0  0.50000  0.70106  0.00000  1.0000 1.0380010466
Mn  Mn24      1.0  0.50000  0.29894  0.00000  1.0000 1.0380010466
H   H1        1.0  0.68540  0.42450  0.10690  1.0000 0.126676327
H   H2        1.0  0.31460  0.57550  0.10690  1.0000 0.126676327
H   H3        1.0  0.68540  0.57550  0.89310  1.0000 0.126676327
H   H4        1.0  0.31460  0.42450  0.89310  1.0000 0.126676327
H   H5        1.0  0.42450  0.89310  0.31460  1.0000 0.126676327
H   H6        1.0  0.57550  0.89310  0.68540  1.0000 0.126676327
H   H7        1.0  0.57550  0.10690  0.31460  1.0000 0.126676327
H   H8        1.0  0.42450  0.10690  0.68540  1.0000 0.126676327
H   H9        1.0  0.89310  0.68540  0.57550  1.0000 0.126676327
H   H10       1.0  0.89310  0.31460  0.42450  1.0000 0.126676327
H   H11       1.0  0.10690  0.68540  0.42450  1.0000 0.126676327
H   H12       1.0  0.10690  0.31460  0.57550  1.0000 0.126676327
H   H13       1.0  0.07550  0.81460  0.60690  1.0000 0.126676327
H   H14       1.0  0.92450  0.18540  0.60690  1.0000 0.126676327
H   H15       1.0  0.92450  0.81460  0.39310  1.0000 0.126676327
H   H16       1.0  0.07550  0.18540  0.39310  1.0000 0.126676327
H   H17       1.0  0.60690  0.07550  0.81460  1.0000 0.126676327
H   H18       1.0  0.60690  0.92450  0.18540  1.0000 0.126676327
H   H19       1.0  0.39310  0.92450  0.81460  1.0000 0.126676327
H   H20       1.0  0.39310  0.07550  0.18540  1.0000 0.126676327
H   H21       1.0  0.81460  0.60690  0.07550  1.0000 0.126676327
H   H22       1.0  0.18540  0.60690  0.92450  1.0000 0.126676327
H   H23       1.0  0.81460  0.39310  0.92450  1.0000 0.126676327
H   H24       1.0  0.18540  0.39310  0.07550  1.0000 0.126676327
H   H25       1.0  0.65040  0.38380  0.15900  1.0000 0.1126462734
H   H26       1.0  0.34960  0.61620  0.15900  1.0000 0.1126462734
H   H27       1.0  0.65040  0.61620  0.84100  1.0000 0.1126462734
H   H28       1.0  0.34960  0.38380  0.84100  1.0000 0.1126462734
H   H29       1.0  0.38380  0.84100  0.34960  1.0000 0.1126462734
H   H30       1.0  0.61620  0.84100  0.65040  1.0000 0.1126462734
H   H31       1.0  0.61620  0.15900  0.34960  1.0000 0.1126462734
H   H32       1.0  0.38380  0.15900  0.65040  1.0000 0.1126462734
H   H33       1.0  0.84100  0.65040  0.61620  1.0000 0.1126462734
H   H34       1.0  0.84100  0.34960  0.38380  1.0000 0.1126462734
H   H35       1.0  0.15900  0.65040  0.38380  1.0000 0.1126462734
H   H36       1.0  0.15900  0.34960  0.61620  1.0000 0.1126462734
H   H37       1.0  0.11620  0.84960  0.65900  1.0000 0.1126462734
H   H38       1.0  0.88380  0.15040  0.65900  1.0000 0.1126462734
H   H39       1.0  0.88380  0.84960  0.34100  1.0000 0.1126462734
H   H40       1.0  0.11620  0.15040  0.34100  1.0000 0.1126462734
H   H41       1.0  0.65900  0.11620  0.84960  1.0000 0.1126462734
H   H42       1.0  0.65900  0.88380  0.15040  1.0000 0.1126462734
H   H43       1.0  0.34100  0.88380  0.84960  1.0000 0.1126462734
H   H44       1.0  0.34100  0.11620  0.15040  1.0000 0.1126462734
H   H45       1.0  0.84960  0.65900  0.11620  1.0000 0.1126462734
H   H46       1.0  0.15040  0.65900  0.88380  1.0000 0.1126462734
H   H47       1.0  0.84960  0.34100  0.88380  1.0000 0.1126462734
H   H48       1.0  0.15040  0.34100  0.11620  1.0000 0.1126462734
H   H49       1.0  0.65270  0.34090  0.21360  1.0000 0.118366307
H   H50       1.0  0.34730  0.65910  0.21360  1.0000 0.118366307
H   H51       1.0  0.65270  0.65910  0.78640  1.0000 0.118366307
H   H52       1.0  0.34730  0.34090  0.78640  1.0000 0.118366307
H   H53       1.0  0.34090  0.78640  0.34730  1.0000 0.118366307
H   H54       1.0  0.65910  0.78640  0.65270  1.0000 0.118366307
H   H55       1.0  0.65910  0.21360  0.34730  1.0000 0.118366307
H   H56       1.0  0.34090  0.21360  0.65270  1.0000 0.118366307
H   H57       1.0  0.78640  0.65270  0.65910  1.0000 0.118366307
H   H58       1.0  0.78640  0.34730  0.34090  1.0000 0.118366307
H   H59       1.0  0.21360  0.65270  0.34090  1.0000 0.118366307
H   H60       1.0  0.21360  0.34730  0.65910  1.0000 0.118366307
H   H61       1.0  0.15910  0.84730  0.71360  1.0000 0.118366307
H   H62       1.0  0.84090  0.15270  0.71360  1.0000 0.118366307
H   H63       1.0  0.84090  0.84730  0.28640  1.0000 0.118366307
H   H64       1.0  0.15910  0.15270  0.28640  1.0000 0.118366307
H   H65       1.0  0.71360  0.15910  0.84730  1.0000 0.118366307
H   H66       1.0  0.71360  0.84090  0.15270  1.0000 0.118366307
H   H67       1.0  0.28640  0.84090  0.84730  1.0000 0.118366307
H   H68       1.0  0.28640  0.15910  0.15270  1.0000 0.118366307
H   H69       1.0  0.84730  0.71360  0.15910  1.0000 0.118366307
H   H70       1.0  0.15270  0.71360  0.84090  1.0000 0.118366307
H   H71       1.0  0.84730  0.28640  0.84090  1.0000 0.118366307
H   H72       1.0  0.15270  0.28640  0.15910  1.0000 0.118366307
H   H73       1.0  0.77310  0.34430  0.21050  1.0000 0.1126462734
H   H74       1.0  0.22690  0.65570  0.21050  1.0000 0.1126462734
H   H75       1.0  0.77310  0.65570  0.78950  1.0000 0.1126462734
H   H76       1.0  0.22690  0.34430  0.78950  1.0000 0.1126462734
H   H77       1.0  0.34430  0.78950  0.22690  1.0000 0.1126462734
H   H78       1.0  0.65570  0.78950  0.77310  1.0000 0.1126462734
H   H79       1.0  0.65570  0.21050  0.22690  1.0000 0.1126462734
H   H80       1.0  0.34430  0.21050  0.77310  1.0000 0.1126462734
H   H81       1.0  0.78950  0.77310  0.65570  1.0000 0.1126462734
H   H82       1.0  0.78950  0.22690  0.34430  1.0000 0.1126462734
H   H83       1.0  0.21050  0.77310  0.34430  1.0000 0.1126462734
H   H84       1.0  0.21050  0.22690  0.65570  1.0000 0.1126462734
H   H85       1.0  0.15570  0.72690  0.71050  1.0000 0.1126462734
H   H86       1.0  0.84430  0.27310  0.71050  1.0000 0.1126462734
H   H87       1.0  0.84430  0.72690  0.28950  1.0000 0.1126462734
H   H88       1.0  0.15570  0.27310  0.28950  1.0000 0.1126462734
H   H89       1.0  0.71050  0.15570  0.72690  1.0000 0.1126462734
H   H90       1.0  0.71050  0.84430  0.27310  1.0000 0.1126462734
H   H91       1.0  0.28950  0.84430  0.72690  1.0000 0.1126462734
H   H92       1.0  0.28950  0.15570  0.27310  1.0000 0.1126462734
H   H93       1.0  0.72690  0.71050  0.15570  1.0000 0.1126462734
H   H94       1.0  0.27310  0.71050  0.84430  1.0000 0.1126462734
H   H95       1.0  0.72690  0.28950  0.84430  1.0000 0.1126462734
H   H96       1.0  0.27310  0.28950  0.15570  1.0000 0.1126462734
H   H97       1.0  0.80740  0.38820  0.16080  1.0000 0.118366307
H   H98       1.0  0.19260  0.61180  0.16080  1.0000 0.118366307
H   H99       1.0  0.80740  0.61180  0.83920  1.0000 0.118366307
H   H100      1.0  0.19260  0.38820  0.83920  1.0000 0.118366307
H   H101      1.0  0.38820  0.83920  0.19260  1.0000 0.118366307
H   H102      1.0  0.61180  0.83920  0.80740  1.0000 0.118366307
H   H103      1.0  0.61180  0.16080  0.19260  1.0000 0.118366307
H   H104      1.0  0.38820  0.16080  0.80740  1.0000 0.118366307
H   H105      1.0  0.83920  0.80740  0.61180  1.0000 0.118366307
H   H106      1.0  0.83920  0.19260  0.38820  1.0000 0.118366307
H   H107      1.0  0.16080  0.80740  0.38820  1.0000 0.118366307
H   H108      1.0  0.16080  0.19260  0.61180  1.0000 0.118366307
H   H109      1.0  0.11180  0.69260  0.66080  1.0000 0.118366307
H   H110      1.0  0.88820  0.30740  0.66080  1.0000 0.118366307
H   H111      1.0  0.88820  0.69260  0.33920  1.0000 0.118366307
H   H112      1.0  0.11180  0.30740  0.33920  1.0000 0.118366307
H   H113      1.0  0.66080  0.11180  0.69260  1.0000 0.118366307
H   H114      1.0  0.66080  0.88820  0.30740  1.0000 0.118366307
H   H115      1.0  0.33920  0.88820  0.69260  1.0000 0.118366307
H   H116      1.0  0.33920  0.11180  0.30740  1.0000 0.118366307
H   H117      1.0  0.69260  0.66080  0.11180  1.0000 0.118366307
H   H118      1.0  0.30740  0.66080  0.88820  1.0000 0.118366307
H   H119      1.0  0.69260  0.33920  0.88820  1.0000 0.118366307
H   H120      1.0  0.30740  0.33920  0.11180  1.0000 0.118366307
H   H121      1.0  0.80420  0.42620  0.10350  1.0000 0.126676327
H   H122      1.0  0.19580  0.57380  0.10350  1.0000 0.126676327
H   H123      1.0  0.80420  0.57380  0.89650  1.0000 0.126676327
H   H124      1.0  0.19580  0.42620  0.89650  1.0000 0.126676327
H   H125      1.0  0.42620  0.89650  0.19580  1.0000 0.126676327
H   H126      1.0  0.57380  0.89650  0.80420  1.0000 0.126676327
H   H127      1.0  0.57380  0.10350  0.19580  1.0000 0.126676327
H   H128      1.0  0.42620  0.10350  0.80420  1.0000 0.126676327
H   H129      1.0  0.89650  0.80420  0.57380  1.0000 0.126676327
H   H130      1.0  0.89650  0.19580  0.42620  1.0000 0.126676327
H   H131      1.0  0.10350  0.80420  0.42620  1.0000 0.126676327
H   H132      1.0  0.10350  0.19580  0.57380  1.0000 0.126676327
H   H133      1.0  0.07380  0.69580  0.60350  1.0000 0.126676327
H   H134      1.0  0.92620  0.30420  0.60350  1.0000 0.126676327
H   H135      1.0  0.92620  0.69580  0.39650  1.0000 0.126676327
H   H136      1.0  0.07380  0.30420  0.39650  1.0000 0.126676327
H   H137      1.0  0.60350  0.07380  0.69580  1.0000 0.126676327
H   H138      1.0  0.60350  0.92620  0.30420  1.0000 0.126676327
H   H139      1.0  0.39650  0.92620  0.69580  1.0000 0.126676327
H   H140      1.0  0.39650  0.07380  0.30420  1.0000 0.126676327
H   H141      1.0  0.69580  0.60350  0.07380  1.0000 0.126676327
H   H142      1.0  0.30420  0.60350  0.92620  1.0000 0.126676327
H   H143      1.0  0.69580  0.39650  0.92620  1.0000 0.126676327
H   H144      1.0  0.30420  0.39650  0.07380  1.0000 0.126676327
H   H145      1.0  0.66720  0.27740  0.23520  1.0000 0.1126462734
H   H146      1.0  0.33280  0.72260  0.23520  1.0000 0.1126462734
H   H147      1.0  0.66720  0.72260  0.76480  1.0000 0.1126462734
H   H148      1.0  0.33280  0.27740  0.76480  1.0000 0.1126462734
H   H149      1.0  0.27740  0.76480  0.33280  1.0000 0.1126462734
H   H150      1.0  0.72260  0.76480  0.66720  1.0000 0.1126462734
H   H151      1.0  0.72260  0.23520  0.33280  1.0000 0.1126462734
H   H152      1.0  0.27740  0.23520  0.66720  1.0000 0.1126462734
H   H153      1.0  0.76480  0.66720  0.72260  1.0000 0.1126462734
H   H154      1.0  0.76480  0.33280  0.27740  1.0000 0.1126462734
H   H155      1.0  0.23520  0.66720  0.27740  1.0000 0.1126462734
H   H156      1.0  0.23520  0.33280  0.72260  1.0000 0.1126462734
H   H157      1.0  0.22260  0.83280  0.73520  1.0000 0.1126462734
H   H158      1.0  0.77740  0.16720  0.73520  1.0000 0.1126462734
H   H159      1.0  0.77740  0.83280  0.26480  1.0000 0.1126462734
H   H160      1.0  0.22260  0.16720  0.26480  1.0000 0.1126462734
H   H161      1.0  0.73520  0.22260  0.83280  1.0000 0.1126462734
H   H162      1.0  0.73520  0.77740  0.16720  1.0000 0.1126462734
H   H163      1.0  0.26480  0.77740  0.83280  1.0000 0.1126462734
H   H164      1.0  0.26480  0.22260  0.16720  1.0000 0.1126462734
H   H165      1.0  0.83280  0.73520  0.22260  1.0000 0.1126462734
H   H166      1.0  0.16720  0.73520  0.77740  1.0000 0.1126462734
H   H167      1.0  0.83280  0.26480  0.77740  1.0000 0.1126462734
H   H168      1.0  0.16720  0.26480  0.22260  1.0000 0.1126462734
H   H169      1.0  0.42450  0.68540  0.89310  1.0000 0.126676327
H   H170      1.0  0.57550  0.31460  0.89310  1.0000 0.126676327
H   H171      1.0  0.57550  0.68540  0.10690  1.0000 0.126676327
H   H172      1.0  0.42450  0.31460  0.10690  1.0000 0.126676327
H   H173      1.0  0.89310  0.42450  0.68540  1.0000 0.126676327
H   H174      1.0  0.89310  0.57550  0.31460  1.0000 0.126676327
H   H175      1.0  0.10690  0.57550  0.68540  1.0000 0.126676327
H   H176      1.0  0.10690  0.42450  0.31460  1.0000 0.126676327
H   H177      1.0  0.68540  0.89310  0.42450  1.0000 0.126676327
H   H178      1.0  0.31460  0.89310  0.57550  1.0000 0.126676327
H   H179      1.0  0.68540  0.10690  0.57550  1.0000 0.126676327
H   H180      1.0  0.31460  0.10690  0.42450  1.0000 0.126676327
H   H181      1.0  0.81460  0.07550  0.39310  1.0000 0.126676327
H   H182      1.0  0.18540  0.92450  0.39310  1.0000 0.126676327
H   H183      1.0  0.81460  0.92450  0.60690  1.0000 0.126676327
H   H184      1.0  0.18540  0.07550  0.60690  1.0000 0.126676327
H   H185      1.0  0.07550  0.60690  0.18540  1.0000 0.126676327
H   H186      1.0  0.92450  0.60690  0.81460  1.0000 0.126676327
H   H187      1.0  0.92450  0.39310  0.18540  1.0000 0.126676327
H   H188      1.0  0.07550  0.39310  0.81460  1.0000 0.126676327
H   H189      1.0  0.60690  0.81460  0.92450  1.0000 0.126676327
H   H190      1.0  0.60690  0.18540  0.07550  1.0000 0.126676327
H   H191      1.0  0.39310  0.81460  0.07550  1.0000 0.126676327
H   H192      1.0  0.39310  0.18540  0.92450  1.0000 0.126676327
H   H193      1.0  0.38380  0.65040  0.84100  1.0000 0.1126462734
H   H194      1.0  0.61620  0.34960  0.84100  1.0000 0.1126462734
H   H195      1.0  0.61620  0.65040  0.15900  1.0000 0.1126462734
H   H196      1.0  0.38380  0.34960  0.15900  1.0000 0.1126462734
H   H197      1.0  0.84100  0.38380  0.65040  1.0000 0.1126462734
H   H198      1.0  0.84100  0.61620  0.34960  1.0000 0.1126462734
H   H199      1.0  0.15900  0.61620  0.65040  1.0000 0.1126462734
H   H200      1.0  0.15900  0.38380  0.34960  1.0000 0.1126462734
H   H201      1.0  0.65040  0.84100  0.38380  1.0000 0.1126462734
H   H202      1.0  0.34960  0.84100  0.61620  1.0000 0.1126462734
H   H203      1.0  0.65040  0.15900  0.61620  1.0000 0.1126462734
H   H204      1.0  0.34960  0.15900  0.38380  1.0000 0.1126462734
H   H205      1.0  0.84960  0.11620  0.34100  1.0000 0.1126462734
H   H206      1.0  0.15040  0.88380  0.34100  1.0000 0.1126462734
H   H207      1.0  0.84960  0.88380  0.65900  1.0000 0.1126462734
H   H208      1.0  0.15040  0.11620  0.65900  1.0000 0.1126462734
H   H209      1.0  0.11620  0.65900  0.15040  1.0000 0.1126462734
H   H210      1.0  0.88380  0.65900  0.84960  1.0000 0.1126462734
H   H211      1.0  0.88380  0.34100  0.15040  1.0000 0.1126462734
H   H212      1.0  0.11620  0.34100  0.84960  1.0000 0.1126462734
H   H213      1.0  0.65900  0.84960  0.88380  1.0000 0.1126462734
H   H214      1.0  0.65900  0.15040  0.11620  1.0000 0.1126462734
H   H215      1.0  0.34100  0.84960  0.11620  1.0000 0.1126462734
H   H216      1.0  0.34100  0.15040  0.88380  1.0000 0.1126462734
H   H217      1.0  0.34090  0.65270  0.78640  1.0000 0.118366307
H   H218      1.0  0.65910  0.34730  0.78640  1.0000 0.118366307
H   H219      1.0  0.65910  0.65270  0.21360  1.0000 0.118366307
H   H220      1.0  0.34090  0.34730  0.21360  1.0000 0.118366307
H   H221      1.0  0.78640  0.34090  0.65270  1.0000 0.118366307
H   H222      1.0  0.78640  0.65910  0.34730  1.0000 0.118366307
H   H223      1.0  0.21360  0.65910  0.65270  1.0000 0.118366307
H   H224      1.0  0.21360  0.34090  0.34730  1.0000 0.118366307
H   H225      1.0  0.65270  0.78640  0.34090  1.0000 0.118366307
H   H226      1.0  0.34730  0.78640  0.65910  1.0000 0.118366307
H   H227      1.0  0.65270  0.21360  0.65910  1.0000 0.118366307
H   H228      1.0  0.34730  0.21360  0.34090  1.0000 0.118366307
H   H229      1.0  0.84730  0.15910  0.28640  1.0000 0.118366307
H   H230      1.0  0.15270  0.84090  0.28640  1.0000 0.118366307
H   H231      1.0  0.84730  0.84090  0.71360  1.0000 0.118366307
H   H232      1.0  0.15270  0.15910  0.71360  1.0000 0.118366307
H   H233      1.0  0.15910  0.71360  0.15270  1.0000 0.118366307
H   H234      1.0  0.84090  0.71360  0.84730  1.0000 0.118366307
H   H235      1.0  0.84090  0.28640  0.15270  1.0000 0.118366307
H   H236      1.0  0.15910  0.28640  0.84730  1.0000 0.118366307
H   H237      1.0  0.71360  0.84730  0.84090  1.0000 0.118366307
H   H238      1.0  0.71360  0.15270  0.15910  1.0000 0.118366307
H   H239      1.0  0.28640  0.84730  0.15910  1.0000 0.118366307
H   H240      1.0  0.28640  0.15270  0.84090  1.0000 0.118366307
H   H241      1.0  0.34430  0.77310  0.78950  1.0000 0.1126462734
H   H242      1.0  0.65570  0.22690  0.78950  1.0000 0.1126462734
H   H243      1.0  0.65570  0.77310  0.21050  1.0000 0.1126462734
H   H244      1.0  0.34430  0.22690  0.21050  1.0000 0.1126462734
H   H245      1.0  0.78950  0.34430  0.77310  1.0000 0.1126462734
H   H246      1.0  0.78950  0.65570  0.22690  1.0000 0.1126462734
H   H247      1.0  0.21050  0.65570  0.77310  1.0000 0.1126462734
H   H248      1.0  0.21050  0.34430  0.22690  1.0000 0.1126462734
H   H249      1.0  0.77310  0.78950  0.34430  1.0000 0.1126462734
H   H250      1.0  0.22690  0.78950  0.65570  1.0000 0.1126462734
H   H251      1.0  0.77310  0.21050  0.65570  1.0000 0.1126462734
H   H252      1.0  0.22690  0.21050  0.34430  1.0000 0.1126462734
H   H253      1.0  0.72690  0.15570  0.28950  1.0000 0.1126462734
H   H254      1.0  0.27310  0.84430  0.28950  1.0000 0.1126462734
H   H255      1.0  0.72690  0.84430  0.71050  1.0000 0.1126462734
H   H256      1.0  0.27310  0.15570  0.71050  1.0000 0.1126462734
H   H257      1.0  0.15570  0.71050  0.27310  1.0000 0.1126462734
H   H258      1.0  0.84430  0.71050  0.72690  1.0000 0.1126462734
H   H259      1.0  0.84430  0.28950  0.27310  1.0000 0.1126462734
H   H260      1.0  0.15570  0.28950  0.72690  1.0000 0.1126462734
H   H261      1.0  0.71050  0.72690  0.84430  1.0000 0.1126462734
H   H262      1.0  0.71050  0.27310  0.15570  1.0000 0.1126462734
H   H263      1.0  0.28950  0.72690  0.15570  1.0000 0.1126462734
H   H264      1.0  0.28950  0.27310  0.84430  1.0000 0.1126462734
H   H265      1.0  0.38820  0.80740  0.83920  1.0000 0.118366307
H   H266      1.0  0.61180  0.19260  0.83920  1.0000 0.118366307
H   H267      1.0  0.61180  0.80740  0.16080  1.0000 0.118366307
H   H268      1.0  0.38820  0.19260  0.16080  1.0000 0.118366307
H   H269      1.0  0.83920  0.38820  0.80740  1.0000 0.118366307
H   H270      1.0  0.83920  0.61180  0.19260  1.0000 0.118366307
H   H271      1.0  0.16080  0.61180  0.80740  1.0000 0.118366307
H   H272      1.0  0.16080  0.38820  0.19260  1.0000 0.118366307
H   H273      1.0  0.80740  0.83920  0.38820  1.0000 0.118366307
H   H274      1.0  0.19260  0.83920  0.61180  1.0000 0.118366307
H   H275      1.0  0.80740  0.16080  0.61180  1.0000 0.118366307
H   H276      1.0  0.19260  0.16080  0.38820  1.0000 0.118366307
H   H277      1.0  0.69260  0.11180  0.33920  1.0000 0.118366307
H   H278      1.0  0.30740  0.88820  0.33920  1.0000 0.118366307
H   H279      1.0  0.69260  0.88820  0.66080  1.0000 0.118366307
H   H280      1.0  0.30740  0.11180  0.66080  1.0000 0.118366307
H   H281      1.0  0.11180  0.66080  0.30740  1.0000 0.118366307
H   H282      1.0  0.88820  0.66080  0.69260  1.0000 0.118366307
H   H283      1.0  0.88820  0.33920  0.30740  1.0000 0.118366307
H   H284      1.0  0.11180  0.33920  0.69260  1.0000 0.118366307
H   H285      1.0  0.66080  0.69260  0.88820  1.0000 0.118366307
H   H286      1.0  0.66080  0.30740  0.11180  1.0000 0.118366307
H   H287      1.0  0.33920  0.69260  0.11180  1.0000 0.118366307
H   H288      1.0  0.33920  0.30740  0.88820  1.0000 0.118366307
H   H289      1.0  0.42620  0.80420  0.89650  1.0000 0.126676327
H   H290      1.0  0.57380  0.19580  0.89650  1.0000 0.126676327
H   H291      1.0  0.57380  0.80420  0.10350  1.0000 0.126676327
H   H292      1.0  0.42620  0.19580  0.10350  1.0000 0.126676327
H   H293      1.0  0.89650  0.42620  0.80420  1.0000 0.126676327
H   H294      1.0  0.89650  0.57380  0.19580  1.0000 0.126676327
H   H295      1.0  0.10350  0.57380  0.80420  1.0000 0.126676327
H   H296      1.0  0.10350  0.42620  0.19580  1.0000 0.126676327
H   H297      1.0  0.80420  0.89650  0.42620  1.0000 0.126676327
H   H298      1.0  0.19580  0.89650  0.57380  1.0000 0.126676327
H   H299      1.0  0.80420  0.10350  0.57380  1.0000 0.126676327
H   H300      1.0  0.19580  0.10350  0.42620  1.0000 0.126676327
H   H301      1.0  0.69580  0.07380  0.39650  1.0000 0.126676327
H   H302      1.0  0.30420  0.92620  0.39650  1.0000 0.126676327
H   H303      1.0  0.69580  0.92620  0.60350  1.0000 0.126676327
H   H304      1.0  0.30420  0.07380  0.60350  1.0000 0.126676327
H   H305      1.0  0.07380  0.60350  0.30420  1.0000 0.126676327
H   H306      1.0  0.92620  0.60350  0.69580  1.0000 0.126676327
H   H307      1.0  0.92620  0.39650  0.30420  1.0000 0.126676327
H   H308      1.0  0.07380  0.39650  0.69580  1.0000 0.126676327
H   H309      1.0  0.60350  0.69580  0.92620  1.0000 0.126676327
H   H310      1.0  0.60350  0.30420  0.07380  1.0000 0.126676327
H   H311      1.0  0.39650  0.69580  0.07380  1.0000 0.126676327
H   H312      1.0  0.39650  0.30420  0.92620  1.0000 0.126676327
H   H313      1.0  0.27740  0.66720  0.76480  1.0000 0.1126462734
H   H314      1.0  0.72260  0.33280  0.76480  1.0000 0.1126462734
H   H315      1.0  0.72260  0.66720  0.23520  1.0000 0.1126462734
H   H316      1.0  0.27740  0.33280  0.23520  1.0000 0.1126462734
H   H317      1.0  0.76480  0.27740  0.66720  1.0000 0.1126462734
H   H318      1.0  0.76480  0.72260  0.33280  1.0000 0.1126462734
H   H319      1.0  0.23520  0.72260  0.66720  1.0000 0.1126462734
H   H320      1.0  0.23520  0.27740  0.33280  1.0000 0.1126462734
H   H321      1.0  0.66720  0.76480  0.27740  1.0000 0.1126462734
H   H322      1.0  0.33280  0.76480  0.72260  1.0000 0.1126462734
H   H323      1.0  0.66720  0.23520  0.72260  1.0000 0.1126462734
H   H324      1.0  0.33280  0.23520  0.27740  1.0000 0.1126462734
H   H325      1.0  0.83280  0.22260  0.26480  1.0000 0.1126462734
H   H326      1.0  0.16720  0.77740  0.26480  1.0000 0.1126462734
H   H327      1.0  0.83280  0.77740  0.73520  1.0000 0.1126462734
H   H328      1.0  0.16720  0.22260  0.73520  1.0000 0.1126462734
H   H329      1.0  0.22260  0.73520  0.16720  1.0000 0.1126462734
H   H330      1.0  0.77740  0.73520  0.83280  1.0000 0.1126462734
H   H331      1.0  0.77740  0.26480  0.16720  1.0000 0.1126462734
H   H332      1.0  0.22260  0.26480  0.83280  1.0000 0.1126462734
H   H333      1.0  0.73520  0.83280  0.77740  1.0000 0.1126462734
H   H334      1.0  0.73520  0.16720  0.22260  1.0000 0.1126462734
H   H335      1.0  0.26480  0.83280  0.22260  1.0000 0.1126462734
H   H336      1.0  0.26480  0.16720  0.77740  1.0000 0.1126462734
C   C1        1.0  0.74113  0.45634  0.06497  1.0000 0.5935160429
C   C2        1.0  0.25887  0.54366  0.06497  1.0000 0.5935160429
C   C3        1.0  0.74113  0.54366  0.93503  1.0000 0.5935160429
C   C4        1.0  0.25887  0.45634  0.93503  1.0000 0.5935160429
C   C5        1.0  0.45634  0.93503  0.25887  1.0000 0.5935160429
C   C6        1.0  0.54366  0.93503  0.74113  1.0000 0.5935160429
C   C7        1.0  0.54366  0.06497  0.25887  1.0000 0.5935160429
C   C8        1.0  0.45634  0.06497  0.74113  1.0000 0.5935160429
C   C9        1.0  0.93503  0.74113  0.54366  1.0000 0.5935160429
C   C10       1.0  0.93503  0.25887  0.45634  1.0000 0.5935160429
C   C11       1.0  0.06497  0.74113  0.45634  1.0000 0.5935160429
C   C12       1.0  0.06497  0.25887  0.54366  1.0000 0.5935160429
C   C13       1.0  0.04366  0.75887  0.56497  1.0000 0.5935160429
C   C14       1.0  0.95634  0.24113  0.56497  1.0000 0.5935160429
C   C15       1.0  0.95634  0.75887  0.43503  1.0000 0.5935160429
C   C16       1.0  0.04366  0.24113  0.43503  1.0000 0.5935160429
C   C17       1.0  0.56497  0.04366  0.75887  1.0000 0.5935160429
C   C18       1.0  0.56497  0.95634  0.24113  1.0000 0.5935160429
C   C19       1.0  0.43503  0.95634  0.75887  1.0000 0.5935160429
C   C20       1.0  0.43503  0.04366  0.24113  1.0000 0.5935160429
C   C21       1.0  0.75887  0.56497  0.04366  1.0000 0.5935160429
C   C22       1.0  0.24113  0.56497  0.95634  1.0000 0.5935160429
C   C23       1.0  0.75887  0.43503  0.95634  1.0000 0.5935160429
C   C24       1.0  0.24113  0.43503  0.04366  1.0000 0.5935160429
C   C25       1.0  0.74373  0.42901  0.10027  1.0000 -0.0127837905
C   C26       1.0  0.25627  0.57099  0.10027  1.0000 -0.0127837905
C   C27       1.0  0.74373  0.57099  0.89973  1.0000 -0.0127837905
C   C28       1.0  0.25627  0.42901  0.89973  1.0000 -0.0127837905
C   C29       1.0  0.42901  0.89973  0.25627  1.0000 -0.0127837905
C   C30       1.0  0.57099  0.89973  0.74373  1.0000 -0.0127837905
C   C31       1.0  0.57099  0.10027  0.25627  1.0000 -0.0127837905
C   C32       1.0  0.42901  0.10027  0.74373  1.0000 -0.0127837905
C   C33       1.0  0.89973  0.74373  0.57099  1.0000 -0.0127837905
C   C34       1.0  0.89973  0.25627  0.42901  1.0000 -0.0127837905
C   C35       1.0  0.10027  0.74373  0.42901  1.0000 -0.0127837905
C   C36       1.0  0.10027  0.25627  0.57099  1.0000 -0.0127837905
C   C37       1.0  0.07099  0.75627  0.60027  1.0000 -0.0127837905
C   C38       1.0  0.92901  0.24373  0.60027  1.0000 -0.0127837905
C   C39       1.0  0.92901  0.75627  0.39973  1.0000 -0.0127837905
C   C40       1.0  0.07099  0.24373  0.39973  1.0000 -0.0127837905
C   C41       1.0  0.60027  0.07099  0.75627  1.0000 -0.0127837905
C   C42       1.0  0.60027  0.92901  0.24373  1.0000 -0.0127837905
C   C43       1.0  0.39973  0.92901  0.75627  1.0000 -0.0127837905
C   C44       1.0  0.39973  0.07099  0.24373  1.0000 -0.0127837905
C   C45       1.0  0.75627  0.60027  0.07099  1.0000 -0.0127837905
C   C46       1.0  0.24373  0.60027  0.92901  1.0000 -0.0127837905
C   C47       1.0  0.75627  0.39973  0.92901  1.0000 -0.0127837905
C   C48       1.0  0.24373  0.39973  0.07099  1.0000 -0.0127837905
C   C49       1.0  0.71006  0.41640  0.11746  1.0000 -0.1401515394
C   C50       1.0  0.28994  0.58360  0.11746  1.0000 -0.1401515394
C   C51       1.0  0.71006  0.58360  0.88254  1.0000 -0.1401515394
C   C52       1.0  0.28994  0.41640  0.88254  1.0000 -0.1401515394
C   C53       1.0  0.41640  0.88254  0.28994  1.0000 -0.1401515394
C   C54       1.0  0.58360  0.88254  0.71006  1.0000 -0.1401515394
C   C55       1.0  0.58360  0.11746  0.28994  1.0000 -0.1401515394
C   C56       1.0  0.41640  0.11746  0.71006  1.0000 -0.1401515394
C   C57       1.0  0.88254  0.71006  0.58360  1.0000 -0.1401515394
C   C58       1.0  0.88254  0.28994  0.41640  1.0000 -0.1401515394
C   C59       1.0  0.11746  0.71006  0.41640  1.0000 -0.1401515394
C   C60       1.0  0.11746  0.28994  0.58360  1.0000 -0.1401515394
C   C61       1.0  0.08360  0.78994  0.61746  1.0000 -0.1401515394
C   C62       1.0  0.91640  0.21006  0.61746  1.0000 -0.1401515394
C   C63       1.0  0.91640  0.78994  0.38254  1.0000 -0.1401515394
C   C64       1.0  0.08360  0.21006  0.38254  1.0000 -0.1401515394
C   C65       1.0  0.61746  0.08360  0.78994  1.0000 -0.1401515394
C   C66       1.0  0.61746  0.91640  0.21006  1.0000 -0.1401515394
C   C67       1.0  0.38254  0.91640  0.78994  1.0000 -0.1401515394
C   C68       1.0  0.38254  0.08360  0.21006  1.0000 -0.1401515394
C   C69       1.0  0.78994  0.61746  0.08360  1.0000 -0.1401515394
C   C70       1.0  0.21006  0.61746  0.91640  1.0000 -0.1401515394
C   C71       1.0  0.78994  0.38254  0.91640  1.0000 -0.1401515394
C   C72       1.0  0.21006  0.38254  0.08360  1.0000 -0.1401515394
C   C73       1.0  0.71086  0.39109  0.15134  1.0000 0.0632548034
C   C74       1.0  0.28914  0.60891  0.15134  1.0000 0.0632548034
C   C75       1.0  0.71086  0.60891  0.84866  1.0000 0.0632548034
C   C76       1.0  0.28914  0.39109  0.84866  1.0000 0.0632548034
C   C77       1.0  0.39109  0.84866  0.28914  1.0000 0.0632548034
C   C78       1.0  0.60891  0.84866  0.71086  1.0000 0.0632548034
C   C79       1.0  0.60891  0.15134  0.28914  1.0000 0.0632548034
C   C80       1.0  0.39109  0.15134  0.71086  1.0000 0.0632548034
C   C81       1.0  0.84866  0.71086  0.60891  1.0000 0.0632548034
C   C82       1.0  0.84866  0.28914  0.39109  1.0000 0.0632548034
C   C83       1.0  0.15134  0.71086  0.39109  1.0000 0.0632548034
C   C84       1.0  0.15134  0.28914  0.60891  1.0000 0.0632548034
C   C85       1.0  0.10891  0.78914  0.65134  1.0000 0.0632548034
C   C86       1.0  0.89109  0.21086  0.65134  1.0000 0.0632548034
C   C87       1.0  0.89109  0.78914  0.34866  1.0000 0.0632548034
C   C88       1.0  0.10891  0.21086  0.34866  1.0000 0.0632548034
C   C89       1.0  0.65134  0.10891  0.78914  1.0000 0.0632548034
C   C90       1.0  0.65134  0.89109  0.21086  1.0000 0.0632548034
C   C91       1.0  0.34866  0.89109  0.78914  1.0000 0.0632548034
C   C92       1.0  0.34866  0.10891  0.21086  1.0000 0.0632548034
C   C93       1.0  0.78914  0.65134  0.10891  1.0000 0.0632548034
C   C94       1.0  0.21086  0.65134  0.89109  1.0000 0.0632548034
C   C95       1.0  0.78914  0.34866  0.89109  1.0000 0.0632548034
C   C96       1.0  0.21086  0.34866  0.10891  1.0000 0.0632548034
C   C97       1.0  0.67531  0.37616  0.16940  1.0000 -0.1588144356
C   C98       1.0  0.32469  0.62384  0.16940  1.0000 -0.1588144356
C   C99       1.0  0.67531  0.62384  0.83060  1.0000 -0.1588144356
C   C100      1.0  0.32469  0.37616  0.83060  1.0000 -0.1588144356
C   C101      1.0  0.37616  0.83060  0.32469  1.0000 -0.1588144356
C   C102      1.0  0.62384  0.83060  0.67531  1.0000 -0.1588144356
C   C103      1.0  0.62384  0.16940  0.32469  1.0000 -0.1588144356
C   C104      1.0  0.37616  0.16940  0.67531  1.0000 -0.1588144356
C   C105      1.0  0.83060  0.67531  0.62384  1.0000 -0.1588144356
C   C106      1.0  0.83060  0.32469  0.37616  1.0000 -0.1588144356
C   C107      1.0  0.16940  0.67531  0.37616  1.0000 -0.1588144356
C   C108      1.0  0.16940  0.32469  0.62384  1.0000 -0.1588144356
C   C109      1.0  0.12384  0.82469  0.66940  1.0000 -0.1588144356
C   C110      1.0  0.87616  0.17531  0.66940  1.0000 -0.1588144356
C   C111      1.0  0.87616  0.82469  0.33060  1.0000 -0.1588144356
C   C112      1.0  0.12384  0.17531  0.33060  1.0000 -0.1588144356
C   C113      1.0  0.66940  0.12384  0.82469  1.0000 -0.1588144356
C   C114      1.0  0.66940  0.87616  0.17531  1.0000 -0.1588144356
C   C115      1.0  0.33060  0.87616  0.82469  1.0000 -0.1588144356
C   C116      1.0  0.33060  0.12384  0.17531  1.0000 -0.1588144356
C   C117      1.0  0.82469  0.66940  0.12384  1.0000 -0.1588144356
C   C118      1.0  0.17531  0.66940  0.87616  1.0000 -0.1588144356
C   C119      1.0  0.82469  0.33060  0.87616  1.0000 -0.1588144356
C   C120      1.0  0.17531  0.33060  0.12384  1.0000 -0.1588144356
C   C121      1.0  0.67646  0.35047  0.20212  1.0000 -0.1588144356
C   C122      1.0  0.32354  0.64953  0.20212  1.0000 -0.1588144356
C   C123      1.0  0.67646  0.64953  0.79788  1.0000 -0.1588144356
C   C124      1.0  0.32354  0.35047  0.79788  1.0000 -0.1588144356
C   C125      1.0  0.35047  0.79788  0.32354  1.0000 -0.1588144356
C   C126      1.0  0.64953  0.79788  0.67646  1.0000 -0.1588144356
C   C127      1.0  0.64953  0.20212  0.32354  1.0000 -0.1588144356
C   C128      1.0  0.35047  0.20212  0.67646  1.0000 -0.1588144356
C   C129      1.0  0.79788  0.67646  0.64953  1.0000 -0.1588144356
C   C130      1.0  0.79788  0.32354  0.35047  1.0000 -0.1588144356
C   C131      1.0  0.20212  0.67646  0.35047  1.0000 -0.1588144356
C   C132      1.0  0.20212  0.32354  0.64953  1.0000 -0.1588144356
C   C133      1.0  0.14953  0.82354  0.70212  1.0000 -0.1588144356
C   C134      1.0  0.85047  0.17646  0.70212  1.0000 -0.1588144356
C   C135      1.0  0.85047  0.82354  0.29788  1.0000 -0.1588144356
C   C136      1.0  0.14953  0.17646  0.29788  1.0000 -0.1588144356
C   C137      1.0  0.70212  0.14953  0.82354  1.0000 -0.1588144356
C   C138      1.0  0.70212  0.85047  0.17646  1.0000 -0.1588144356
C   C139      1.0  0.29788  0.85047  0.82354  1.0000 -0.1588144356
C   C140      1.0  0.29788  0.14953  0.17646  1.0000 -0.1588144356
C   C141      1.0  0.82354  0.70212  0.14953  1.0000 -0.1588144356
C   C142      1.0  0.17646  0.70212  0.85047  1.0000 -0.1588144356
C   C143      1.0  0.82354  0.29788  0.85047  1.0000 -0.1588144356
C   C144      1.0  0.17646  0.29788  0.14953  1.0000 -0.1588144356
C   C145      1.0  0.71397  0.33903  0.21783  1.0000 0.0696203843
C   C146      1.0  0.28603  0.66097  0.21783  1.0000 0.0696203843
C   C147      1.0  0.71397  0.66097  0.78217  1.0000 0.0696203843
C   C148      1.0  0.28603  0.33903  0.78217  1.0000 0.0696203843
C   C149      1.0  0.33903  0.78217  0.28603  1.0000 0.0696203843
C   C150      1.0  0.66097  0.78217  0.71397  1.0000 0.0696203843
C   C151      1.0  0.66097  0.21783  0.28603  1.0000 0.0696203843
C   C152      1.0  0.33903  0.21783  0.71397  1.0000 0.0696203843
C   C153      1.0  0.78217  0.71397  0.66097  1.0000 0.0696203843
C   C154      1.0  0.78217  0.28603  0.33903  1.0000 0.0696203843
C   C155      1.0  0.21783  0.71397  0.33903  1.0000 0.0696203843
C   C156      1.0  0.21783  0.28603  0.66097  1.0000 0.0696203843
C   C157      1.0  0.16097  0.78603  0.71783  1.0000 0.0696203843
C   C158      1.0  0.83903  0.21397  0.71783  1.0000 0.0696203843
C   C159      1.0  0.83903  0.78603  0.28217  1.0000 0.0696203843
C   C160      1.0  0.16097  0.21397  0.28217  1.0000 0.0696203843
C   C161      1.0  0.71783  0.16097  0.78603  1.0000 0.0696203843
C   C162      1.0  0.71783  0.83903  0.21397  1.0000 0.0696203843
C   C163      1.0  0.28217  0.83903  0.78603  1.0000 0.0696203843
C   C164      1.0  0.28217  0.16097  0.21397  1.0000 0.0696203843
C   C165      1.0  0.78603  0.71783  0.16097  1.0000 0.0696203843
C   C166      1.0  0.21397  0.71783  0.83903  1.0000 0.0696203843
C   C167      1.0  0.78603  0.28217  0.83903  1.0000 0.0696203843
C   C168      1.0  0.21397  0.28217  0.16097  1.0000 0.0696203843
C   C169      1.0  0.74838  0.35266  0.20017  1.0000 -0.2030331898
C   C170      1.0  0.25162  0.64734  0.20017  1.0000 -0.2030331898
C   C171      1.0  0.74838  0.64734  0.79983  1.0000 -0.2030331898
C   C172      1.0  0.25162  0.35266  0.79983  1.0000 -0.2030331898
C   C173      1.0  0.35266  0.79983  0.25162  1.0000 -0.2030331898
C   C174      1.0  0.64734  0.79983  0.74838  1.0000 -0.2030331898
C   C175      1.0  0.64734  0.20017  0.25162  1.0000 -0.2030331898
C   C176      1.0  0.35266  0.20017  0.74838  1.0000 -0.2030331898
C   C177      1.0  0.79983  0.74838  0.64734  1.0000 -0.2030331898
C   C178      1.0  0.79983  0.25162  0.35266  1.0000 -0.2030331898
C   C179      1.0  0.20017  0.74838  0.35266  1.0000 -0.2030331898
C   C180      1.0  0.20017  0.25162  0.64734  1.0000 -0.2030331898
C   C181      1.0  0.14734  0.75162  0.70017  1.0000 -0.2030331898
C   C182      1.0  0.85266  0.24838  0.70017  1.0000 -0.2030331898
C   C183      1.0  0.85266  0.75162  0.29983  1.0000 -0.2030331898
C   C184      1.0  0.14734  0.24838  0.29983  1.0000 -0.2050237
C   C185      1.0  0.70017  0.14734  0.75162  1.0000 -0.2030331898
C   C186      1.0  0.70017  0.85266  0.24838  1.0000 -0.2030331898
C   C187      1.0  0.29983  0.85266  0.75162  1.0000 -0.2030331898
C   C188      1.0  0.29983  0.14734  0.24838  1.0000 -0.2050237
C   C189      1.0  0.75162  0.70017  0.14734  1.0000 -0.2030331898
C   C190      1.0  0.24838  0.70017  0.85266  1.0000 -0.2030331898
C   C191      1.0  0.75162  0.29983  0.85266  1.0000 -0.2030331898
C   C192      1.0  0.24838  0.29983  0.14734  1.0000 -0.2050237
C   C193      1.0  0.74788  0.37900  0.16672  1.0000 0.0778536944
C   C194      1.0  0.25212  0.62100  0.16672  1.0000 0.0778536944
C   C195      1.0  0.74788  0.62100  0.83328  1.0000 0.0778536944
C   C196      1.0  0.25212  0.37900  0.83328  1.0000 0.0778536944
C   C197      1.0  0.37900  0.83328  0.25212  1.0000 0.0778536944
C   C198      1.0  0.62100  0.83328  0.74788  1.0000 0.0778536944
C   C199      1.0  0.62100  0.16672  0.25212  1.0000 0.0778536944
C   C200      1.0  0.37900  0.16672  0.74788  1.0000 0.0778536944
C   C201      1.0  0.83328  0.74788  0.62100  1.0000 0.0778536944
C   C202      1.0  0.83328  0.25212  0.37900  1.0000 0.0778536944
C   C203      1.0  0.16672  0.74788  0.37900  1.0000 0.0778536944
C   C204      1.0  0.16672  0.25212  0.62100  1.0000 0.0778536944
C   C205      1.0  0.12100  0.75212  0.66667  1.0000 0.0778536944
C   C206      1.0  0.87900  0.24788  0.66667  1.0000 0.0778536944
C   C207      1.0  0.87900  0.75212  0.33328  1.0000 0.0778536944
C   C208      1.0  0.12100  0.24788  0.33328  1.0000 0.0778536944
C   C209      1.0  0.66667  0.12100  0.75212  1.0000 0.0778536944
C   C210      1.0  0.66667  0.87900  0.24788  1.0000 0.0778536944
C   C211      1.0  0.33328  0.87900  0.75212  1.0000 0.0778536944
C   C212      1.0  0.33328  0.12100  0.24788  1.0000 0.0778536944
C   C213      1.0  0.75212  0.66667  0.12100  1.0000 0.0778536944
C   C214      1.0  0.24788  0.66667  0.87900  1.0000 0.0778536944
C   C215      1.0  0.75212  0.33328  0.87900  1.0000 0.0778536944
C   C216      1.0  0.24788  0.33328  0.12100  1.0000 0.0778536944
C   C217      1.0  0.78249  0.39415  0.14944  1.0000 -0.1588144356
C   C218      1.0  0.21751  0.60585  0.14944  1.0000 -0.1588144356
C   C219      1.0  0.78249  0.60585  0.85056  1.0000 -0.1588144356
C   C220      1.0  0.21751  0.39415  0.85056  1.0000 -0.1588144356
C   C221      1.0  0.39415  0.85056  0.21751  1.0000 -0.1588144356
C   C222      1.0  0.60585  0.85056  0.78249  1.0000 -0.1588144356
C   C223      1.0  0.60585  0.14944  0.21751  1.0000 -0.1588144356
C   C224      1.0  0.39415  0.14944  0.78249  1.0000 -0.1588144356
C   C225      1.0  0.85056  0.78249  0.60585  1.0000 -0.1588144356
C   C226      1.0  0.85056  0.21751  0.39415  1.0000 -0.1588144356
C   C227      1.0  0.14944  0.78249  0.39415  1.0000 -0.1588144356
C   C228      1.0  0.14944  0.21751  0.60585  1.0000 -0.1588144356
C   C229      1.0  0.10585  0.71751  0.64944  1.0000 -0.1588144356
C   C230      1.0  0.89415  0.28249  0.64944  1.0000 -0.1588144356
C   C231      1.0  0.89415  0.71751  0.35056  1.0000 -0.1588144356
C   C232      1.0  0.10585  0.28249  0.35056  1.0000 -0.1588144356
C   C233      1.0  0.64944  0.10585  0.71751  1.0000 -0.1588144356
C   C234      1.0  0.64944  0.89415  0.28249  1.0000 -0.1588144356
C   C235      1.0  0.35056  0.89415  0.71751  1.0000 -0.1588144356
C   C236      1.0  0.35056  0.10585  0.28249  1.0000 -0.1588144356
C   C237      1.0  0.71751  0.64944  0.10585  1.0000 -0.1588144356
C   C238      1.0  0.28249  0.64944  0.89415  1.0000 -0.1588144356
C   C239      1.0  0.71751  0.35056  0.89415  1.0000 -0.1588144356
C   C240      1.0  0.28249  0.35056  0.10585  1.0000 -0.1588144356
C   C241      1.0  0.78055  0.41767  0.11595  1.0000 -0.0935383305
C   C242      1.0  0.21945  0.58233  0.11595  1.0000 -0.0935383305
C   C243      1.0  0.78055  0.58233  0.88405  1.0000 -0.0935383305
C   C244      1.0  0.21945  0.41767  0.88405  1.0000 -0.0935383305
C   C245      1.0  0.41767  0.88405  0.21945  1.0000 -0.0935383305
C   C246      1.0  0.58233  0.88405  0.78055  1.0000 -0.0935383305
C   C247      1.0  0.58233  0.11595  0.21945  1.0000 -0.0935383305
C   C248      1.0  0.41767  0.11595  0.78055  1.0000 -0.0935383305
C   C249      1.0  0.88405  0.78055  0.58233  1.0000 -0.0935383305
C   C250      1.0  0.88405  0.21945  0.41767  1.0000 -0.0935383305
C   C251      1.0  0.11595  0.78055  0.41767  1.0000 -0.0935383305
C   C252      1.0  0.11595  0.21945  0.58233  1.0000 -0.0935383305
C   C253      1.0  0.08233  0.71945  0.61595  1.0000 -0.0935383305
C   C254      1.0  0.91767  0.28055  0.61595  1.0000 -0.0935383305
C   C255      1.0  0.91767  0.71945  0.38405  1.0000 -0.0935383305
C   C256      1.0  0.08233  0.28055  0.38405  1.0000 -0.0935383305
C   C257      1.0  0.61595  0.08233  0.71945  1.0000 -0.0935383305
C   C258      1.0  0.61595  0.91767  0.28055  1.0000 -0.0935383305
C   C259      1.0  0.38405  0.91767  0.71945  1.0000 -0.0935383305
C   C260      1.0  0.38405  0.08233  0.28055  1.0000 -0.0935383305
C   C261      1.0  0.71945  0.61595  0.08233  1.0000 -0.0935383305
C   C262      1.0  0.28055  0.61595  0.91767  1.0000 -0.0935383305
C   C263      1.0  0.71945  0.38405  0.91767  1.0000 -0.0935383305
C   C264      1.0  0.28055  0.38405  0.08233  1.0000 -0.0935383305
C   C265      1.0  0.71627  0.31006  0.25077  1.0000 0.0778536944
C   C266      1.0  0.28373  0.68994  0.25077  1.0000 0.0778536944
C   C267      1.0  0.71627  0.68994  0.74923  1.0000 0.0778536944
C   C268      1.0  0.28373  0.31006  0.74923  1.0000 0.0778536944
C   C269      1.0  0.31006  0.74923  0.28373  1.0000 0.0778536944
C   C270      1.0  0.68994  0.74923  0.71627  1.0000 0.0778536944
C   C271      1.0  0.68994  0.25077  0.28373  1.0000 0.0778536944
C   C272      1.0  0.31006  0.25077  0.71627  1.0000 0.0778536944
C   C273      1.0  0.74923  0.71627  0.68994  1.0000 0.0778536944
C   C274      1.0  0.74923  0.28373  0.31006  1.0000 0.0778536944
C   C275      1.0  0.25077  0.71627  0.31006  1.0000 0.0778536944
C   C276      1.0  0.25077  0.28373  0.68994  1.0000 0.0778536944
C   C277      1.0  0.18994  0.78373  0.75077  1.0000 0.0778536944
C   C278      1.0  0.81006  0.21627  0.75077  1.0000 0.0778536944
C   C279      1.0  0.81006  0.78373  0.24923  1.0000 0.0778536944
C   C280      1.0  0.18994  0.21627  0.24923  1.0000 0.0778536944
C   C281      1.0  0.75077  0.18994  0.78373  1.0000 0.0778536944
C   C282      1.0  0.75077  0.81006  0.21627  1.0000 0.0778536944
C   C283      1.0  0.24923  0.81006  0.78373  1.0000 0.0778536944
C   C284      1.0  0.24923  0.18994  0.21627  1.0000 0.0778536944
C   C285      1.0  0.78373  0.75077  0.18994  1.0000 0.0778536944
C   C286      1.0  0.21627  0.75077  0.81006  1.0000 0.0778536944
C   C287      1.0  0.78373  0.24923  0.81006  1.0000 0.0778536944
C   C288      1.0  0.21627  0.24923  0.18994  1.0000 0.0778536944
C   C289      1.0  0.68800  0.27891  0.25396  1.0000 -0.2030331898
C   C290      1.0  0.31200  0.72109  0.25396  1.0000 -0.2030331898
C   C291      1.0  0.68800  0.72109  0.74604  1.0000 -0.2030331898
C   C292      1.0  0.31200  0.27891  0.74604  1.0000 -0.2030331898
C   C293      1.0  0.27891  0.74604  0.31200  1.0000 -0.2030331898
C   C294      1.0  0.72109  0.74604  0.68800  1.0000 -0.2030331898
C   C295      1.0  0.72109  0.25396  0.31200  1.0000 -0.2030331898
C   C296      1.0  0.27891  0.25396  0.68800  1.0000 -0.2030331898
C   C297      1.0  0.74604  0.68800  0.72109  1.0000 -0.2030331898
C   C298      1.0  0.74604  0.31200  0.27891  1.0000 -0.2030331898
C   C299      1.0  0.25396  0.68800  0.27891  1.0000 -0.2030331898
C   C300      1.0  0.25396  0.31200  0.72109  1.0000 -0.2030331898
C   C301      1.0  0.22109  0.81200  0.75396  1.0000 -0.2030331898
C   C302      1.0  0.77891  0.18800  0.75396  1.0000 -0.2030331898
C   C303      1.0  0.77891  0.81200  0.24604  1.0000 -0.2030331898
C   C304      1.0  0.22109  0.18800  0.24604  1.0000 -0.2030331898
C   C305      1.0  0.75396  0.22109  0.81200  1.0000 -0.2030331898
C   C306      1.0  0.75396  0.77891  0.18800  1.0000 -0.2030331898
C   C307      1.0  0.24604  0.77891  0.81200  1.0000 -0.2030331898
C   C308      1.0  0.24604  0.22109  0.18800  1.0000 -0.2030331898
C   C309      1.0  0.81200  0.75396  0.22109  1.0000 -0.2030331898
C   C310      1.0  0.18800  0.75396  0.77891  1.0000 -0.2030331898
C   C311      1.0  0.81200  0.24604  0.77891  1.0000 -0.2030331898
C   C312      1.0  0.18800  0.24604  0.22109  1.0000 -0.2030331898
C   C313      1.0  0.45634  0.74113  0.93503  1.0000 0.5935160429
C   C314      1.0  0.54366  0.25887  0.93503  1.0000 0.5935160429
C   C315      1.0  0.54366  0.74113  0.06497  1.0000 0.5935160429
C   C316      1.0  0.45634  0.25887  0.06497  1.0000 0.5935160429
C   C317      1.0  0.93503  0.45634  0.74113  1.0000 0.5935160429
C   C318      1.0  0.93503  0.54366  0.25887  1.0000 0.5935160429
C   C319      1.0  0.06497  0.54366  0.74113  1.0000 0.5935160429
C   C320      1.0  0.06497  0.45634  0.25887  1.0000 0.5935160429
C   C321      1.0  0.74113  0.93503  0.45634  1.0000 0.5935160429
C   C322      1.0  0.25887  0.93503  0.54366  1.0000 0.5935160429
C   C323      1.0  0.74113  0.06497  0.54366  1.0000 0.5935160429
C   C324      1.0  0.25887  0.06497  0.45634  1.0000 0.5935160429
C   C325      1.0  0.75887  0.04366  0.43503  1.0000 0.5935160429
C   C326      1.0  0.24113  0.95634  0.43503  1.0000 0.5935160429
C   C327      1.0  0.75887  0.95634  0.56497  1.0000 0.5935160429
C   C328      1.0  0.24113  0.04366  0.56497  1.0000 0.5935160429
C   C329      1.0  0.04366  0.56497  0.24113  1.0000 0.5935160429
C   C330      1.0  0.95634  0.56497  0.75887  1.0000 0.5935160429
C   C331      1.0  0.95634  0.43503  0.24113  1.0000 0.5935160429
C   C332      1.0  0.04366  0.43503  0.75887  1.0000 0.5935160429
C   C333      1.0  0.56497  0.75887  0.95634  1.0000 0.5935160429
C   C334      1.0  0.56497  0.24113  0.04366  1.0000 0.5935160429
C   C335      1.0  0.43503  0.75887  0.04366  1.0000 0.5935160429
C   C336      1.0  0.43503  0.24113  0.95634  1.0000 0.5935160429
C   C337      1.0  0.42901  0.74373  0.89973  1.0000 -0.0127837905
C   C338      1.0  0.57099  0.25627  0.89973  1.0000 -0.0127837905
C   C339      1.0  0.57099  0.74373  0.10027  1.0000 -0.0127837905
C   C340      1.0  0.42901  0.25627  0.10027  1.0000 -0.0127837905
C   C341      1.0  0.89973  0.42901  0.74373  1.0000 -0.0127837905
C   C342      1.0  0.89973  0.57099  0.25627  1.0000 -0.0127837905
C   C343      1.0  0.10027  0.57099  0.74373  1.0000 -0.0127837905
C   C344      1.0  0.10027  0.42901  0.25627  1.0000 -0.0127837905
C   C345      1.0  0.74373  0.89973  0.42901  1.0000 -0.0127837905
C   C346      1.0  0.25627  0.89973  0.57099  1.0000 -0.0127837905
C   C347      1.0  0.74373  0.10027  0.57099  1.0000 -0.0127837905
C   C348      1.0  0.25627  0.10027  0.42901  1.0000 -0.0127837905
C   C349      1.0  0.75627  0.07099  0.39973  1.0000 -0.0127837905
C   C350      1.0  0.24373  0.92901  0.39973  1.0000 -0.0127837905
C   C351      1.0  0.75627  0.92901  0.60027  1.0000 -0.0127837905
C   C352      1.0  0.24373  0.07099  0.60027  1.0000 -0.0127837905
C   C353      1.0  0.07099  0.60027  0.24373  1.0000 -0.0127837905
C   C354      1.0  0.92901  0.60027  0.75627  1.0000 -0.0127837905
C   C355      1.0  0.92901  0.39973  0.24373  1.0000 -0.0127837905
C   C356      1.0  0.07099  0.39973  0.75627  1.0000 -0.0127837905
C   C357      1.0  0.60027  0.75627  0.92901  1.0000 -0.0127837905
C   C358      1.0  0.60027  0.24373  0.07099  1.0000 -0.0127837905
C   C359      1.0  0.39973  0.75627  0.07099  1.0000 -0.0127837905
C   C360      1.0  0.39973  0.24373  0.92901  1.0000 -0.0127837905
C   C361      1.0  0.41640  0.71006  0.88254  1.0000 -0.1401515394
C   C362      1.0  0.58360  0.28994  0.88254  1.0000 -0.1401515394
C   C363      1.0  0.58360  0.71006  0.11746  1.0000 -0.1401515394
C   C364      1.0  0.41640  0.28994  0.11746  1.0000 -0.1401515394
C   C365      1.0  0.88254  0.41640  0.71006  1.0000 -0.1401515394
C   C366      1.0  0.88254  0.58360  0.28994  1.0000 -0.1401515394
C   C367      1.0  0.11746  0.58360  0.71006  1.0000 -0.1401515394
C   C368      1.0  0.11746  0.41640  0.28994  1.0000 -0.1401515394
C   C369      1.0  0.71006  0.88254  0.41640  1.0000 -0.1401515394
C   C370      1.0  0.28994  0.88254  0.58360  1.0000 -0.1401515394
C   C371      1.0  0.71006  0.11746  0.58360  1.0000 -0.1401515394
C   C372      1.0  0.28994  0.11746  0.41640  1.0000 -0.1401515394
C   C373      1.0  0.78994  0.08360  0.38254  1.0000 -0.1401515394
C   C374      1.0  0.21006  0.91640  0.38254  1.0000 -0.1401515394
C   C375      1.0  0.78994  0.91640  0.61746  1.0000 -0.1401515394
C   C376      1.0  0.21006  0.08360  0.61746  1.0000 -0.1401515394
C   C377      1.0  0.08360  0.61746  0.21006  1.0000 -0.1401515394
C   C378      1.0  0.91640  0.61746  0.78994  1.0000 -0.1401515394
C   C379      1.0  0.91640  0.38254  0.21006  1.0000 -0.1401515394
C   C380      1.0  0.08360  0.38254  0.78994  1.0000 -0.1401515394
C   C381      1.0  0.61746  0.78994  0.91640  1.0000 -0.1401515394
C   C382      1.0  0.61746  0.21006  0.08360  1.0000 -0.1401515394
C   C383      1.0  0.38254  0.78994  0.08360  1.0000 -0.1401515394
C   C384      1.0  0.38254  0.21006  0.91640  1.0000 -0.1401515394
C   C385      1.0  0.39109  0.71086  0.84866  1.0000 0.0632548034
C   C386      1.0  0.60891  0.28914  0.84866  1.0000 0.0632548034
C   C387      1.0  0.60891  0.71086  0.15134  1.0000 0.0632548034
C   C388      1.0  0.39109  0.28914  0.15134  1.0000 0.0632548034
C   C389      1.0  0.84866  0.39109  0.71086  1.0000 0.0632548034
C   C390      1.0  0.84866  0.60891  0.28914  1.0000 0.0632548034
C   C391      1.0  0.15134  0.60891  0.71086  1.0000 0.0632548034
C   C392      1.0  0.15134  0.39109  0.28914  1.0000 0.0632548034
C   C393      1.0  0.71086  0.84866  0.39109  1.0000 0.0632548034
C   C394      1.0  0.28914  0.84866  0.60891  1.0000 0.0632548034
C   C395      1.0  0.71086  0.15134  0.60891  1.0000 0.0632548034
C   C396      1.0  0.28914  0.15134  0.39109  1.0000 0.0632548034
C   C397      1.0  0.78914  0.10891  0.34866  1.0000 0.0632548034
C   C398      1.0  0.21086  0.89109  0.34866  1.0000 0.0632548034
C   C399      1.0  0.78914  0.89109  0.65134  1.0000 0.0632548034
C   C400      1.0  0.21086  0.10891  0.65134  1.0000 0.0632548034
C   C401      1.0  0.10891  0.65134  0.21086  1.0000 0.0632548034
C   C402      1.0  0.89109  0.65134  0.78914  1.0000 0.0632548034
C   C403      1.0  0.89109  0.34866  0.21086  1.0000 0.0632548034
C   C404      1.0  0.10891  0.34866  0.78914  1.0000 0.0632548034
C   C405      1.0  0.65134  0.78914  0.89109  1.0000 0.0632548034
C   C406      1.0  0.65134  0.21086  0.10891  1.0000 0.0632548034
C   C407      1.0  0.34866  0.78914  0.10891  1.0000 0.0632548034
C   C408      1.0  0.34866  0.21086  0.89109  1.0000 0.0632548034
C   C409      1.0  0.37616  0.67531  0.83060  1.0000 -0.1588144356
C   C410      1.0  0.62384  0.32469  0.83060  1.0000 -0.1588144356
C   C411      1.0  0.62384  0.67531  0.16940  1.0000 -0.1588144356
C   C412      1.0  0.37616  0.32469  0.16940  1.0000 -0.1588144356
C   C413      1.0  0.83060  0.37616  0.67531  1.0000 -0.1588144356
C   C414      1.0  0.83060  0.62384  0.32469  1.0000 -0.1588144356
C   C415      1.0  0.16940  0.62384  0.67531  1.0000 -0.1588144356
C   C416      1.0  0.16940  0.37616  0.32469  1.0000 -0.1588144356
C   C417      1.0  0.67531  0.83060  0.37616  1.0000 -0.1588144356
C   C418      1.0  0.32469  0.83060  0.62384  1.0000 -0.1588144356
C   C419      1.0  0.67531  0.16940  0.62384  1.0000 -0.1588144356
C   C420      1.0  0.32469  0.16940  0.37616  1.0000 -0.1588144356
C   C421      1.0  0.82469  0.12384  0.33060  1.0000 -0.1588144356
C   C422      1.0  0.17531  0.87616  0.33060  1.0000 -0.1588144356
C   C423      1.0  0.82469  0.87616  0.66940  1.0000 -0.1588144356
C   C424      1.0  0.17531  0.12384  0.66940  1.0000 -0.1588144356
C   C425      1.0  0.12384  0.66940  0.17531  1.0000 -0.1588144356
C   C426      1.0  0.87616  0.66940  0.82469  1.0000 -0.1588144356
C   C427      1.0  0.87616  0.33060  0.17531  1.0000 -0.1588144356
C   C428      1.0  0.12384  0.33060  0.82469  1.0000 -0.1588144356
C   C429      1.0  0.66940  0.82469  0.87616  1.0000 -0.1588144356
C   C430      1.0  0.66940  0.17531  0.12384  1.0000 -0.1588144356
C   C431      1.0  0.33060  0.82469  0.12384  1.0000 -0.1588144356
C   C432      1.0  0.33060  0.17531  0.87616  1.0000 -0.1588144356
C   C433      1.0  0.35047  0.67646  0.79788  1.0000 -0.1588144356
C   C434      1.0  0.64953  0.32354  0.79788  1.0000 -0.1588144356
C   C435      1.0  0.64953  0.67646  0.20212  1.0000 -0.1588144356
C   C436      1.0  0.35047  0.32354  0.20212  1.0000 -0.1588144356
C   C437      1.0  0.79788  0.35047  0.67646  1.0000 -0.1588144356
C   C438      1.0  0.79788  0.64953  0.32354  1.0000 -0.1588144356
C   C439      1.0  0.20212  0.64953  0.67646  1.0000 -0.1588144356
C   C440      1.0  0.20212  0.35047  0.32354  1.0000 -0.1588144356
C   C441      1.0  0.67646  0.79788  0.35047  1.0000 -0.1588144356
C   C442      1.0  0.32354  0.79788  0.64953  1.0000 -0.1588144356
C   C443      1.0  0.67646  0.20212  0.64953  1.0000 -0.1588144356
C   C444      1.0  0.32354  0.20212  0.35047  1.0000 -0.1588144356
C   C445      1.0  0.82354  0.14953  0.29788  1.0000 -0.1588144356
C   C446      1.0  0.17646  0.85047  0.29788  1.0000 -0.1588144356
C   C447      1.0  0.82354  0.85047  0.70212  1.0000 -0.1588144356
C   C448      1.0  0.17646  0.14953  0.70212  1.0000 -0.1588144356
C   C449      1.0  0.14953  0.70212  0.17646  1.0000 -0.1588144356
C   C450      1.0  0.85047  0.70212  0.82354  1.0000 -0.1588144356
C   C451      1.0  0.85047  0.29788  0.17646  1.0000 -0.1588144356
C   C452      1.0  0.14953  0.29788  0.82354  1.0000 -0.1588144356
C   C453      1.0  0.70212  0.82354  0.85047  1.0000 -0.1588144356
C   C454      1.0  0.70212  0.17646  0.14953  1.0000 -0.1588144356
C   C455      1.0  0.29788  0.82354  0.14953  1.0000 -0.1588144356
C   C456      1.0  0.29788  0.17646  0.85047  1.0000 -0.1588144356
C   C457      1.0  0.33903  0.71397  0.78217  1.0000 0.0696203843
C   C458      1.0  0.66097  0.28603  0.78217  1.0000 0.0696203843
C   C459      1.0  0.66097  0.71397  0.21783  1.0000 0.0696203843
C   C460      1.0  0.33903  0.28603  0.21783  1.0000 0.0696203843
C   C461      1.0  0.78217  0.33903  0.71397  1.0000 0.0696203843
C   C462      1.0  0.78217  0.66097  0.28603  1.0000 0.0696203843
C   C463      1.0  0.21783  0.66097  0.71397  1.0000 0.0696203843
C   C464      1.0  0.21783  0.33903  0.28603  1.0000 0.0696203843
C   C465      1.0  0.71397  0.78217  0.33903  1.0000 0.0696203843
C   C466      1.0  0.28603  0.78217  0.66097  1.0000 0.0696203843
C   C467      1.0  0.71397  0.21783  0.66097  1.0000 0.0696203843
C   C468      1.0  0.28603  0.21783  0.33903  1.0000 0.0696203843
C   C469      1.0  0.78603  0.16097  0.28217  1.0000 0.0696203843
C   C470      1.0  0.21397  0.83903  0.28217  1.0000 0.0696203843
C   C471      1.0  0.78603  0.83903  0.71783  1.0000 0.0696203843
C   C472      1.0  0.21397  0.16097  0.71783  1.0000 0.0696203843
C   C473      1.0  0.16097  0.71783  0.21397  1.0000 0.0696203843
C   C474      1.0  0.83903  0.71783  0.78603  1.0000 0.0696203843
C   C475      1.0  0.83903  0.28217  0.21397  1.0000 0.0696203843
C   C476      1.0  0.16097  0.28217  0.78603  1.0000 0.0696203843
C   C477      1.0  0.71783  0.78603  0.83903  1.0000 0.0696203843
C   C478      1.0  0.71783  0.21397  0.16097  1.0000 0.0696203843
C   C479      1.0  0.28217  0.78603  0.16097  1.0000 0.0696203843
C   C480      1.0  0.28217  0.21397  0.83903  1.0000 0.0696203843
C   C481      1.0  0.35266  0.74838  0.79983  1.0000 -0.2030331898
C   C482      1.0  0.64734  0.25162  0.79983  1.0000 -0.2030331898
C   C483      1.0  0.64734  0.74838  0.20017  1.0000 -0.2030331898
C   C484      1.0  0.35266  0.25162  0.20017  1.0000 -0.2030331898
C   C485      1.0  0.79983  0.35266  0.74838  1.0000 -0.2030331898
C   C486      1.0  0.79983  0.64734  0.25162  1.0000 -0.2030331898
C   C487      1.0  0.20017  0.64734  0.74838  1.0000 -0.2030331898
C   C488      1.0  0.20017  0.35266  0.25162  1.0000 -0.2030331898
C   C489      1.0  0.74838  0.79983  0.35266  1.0000 -0.2030331898
C   C490      1.0  0.25162  0.79983  0.64734  1.0000 -0.2030331898
C   C491      1.0  0.74838  0.20017  0.64734  1.0000 -0.2030331898
C   C492      1.0  0.25162  0.20017  0.35266  1.0000 -0.2030331898
C   C493      1.0  0.75162  0.14734  0.29983  1.0000 -0.2030331898
C   C494      1.0  0.24838  0.85266  0.29983  1.0000 -0.2030331898
C   C495      1.0  0.75162  0.85266  0.70017  1.0000 -0.2030331898
C   C496      1.0  0.24838  0.14734  0.70017  1.0000 -0.2030331898
C   C497      1.0  0.14734  0.70017  0.24838  1.0000 -0.2050237
C   C498      1.0  0.85266  0.70017  0.75162  1.0000 -0.2030331898
C   C499      1.0  0.85266  0.29983  0.24838  1.0000 -0.2030331898
C   C500      1.0  0.14734  0.29983  0.75162  1.0000 -0.2030331898
C   C501      1.0  0.70017  0.75162  0.85266  1.0000 -0.2030331898
C   C502      1.0  0.70017  0.24838  0.14734  1.0000 -0.2050237
C   C503      1.0  0.29983  0.75162  0.14734  1.0000 -0.2030331898
C   C504      1.0  0.29983  0.24838  0.85266  1.0000 -0.2030331898
C   C505      1.0  0.37900  0.74788  0.83328  1.0000 0.0778536944
C   C506      1.0  0.62100  0.25212  0.83328  1.0000 0.0778536944
C   C507      1.0  0.62100  0.74788  0.16672  1.0000 0.0778536944
C   C508      1.0  0.37900  0.25212  0.16672  1.0000 0.0778536944
C   C509      1.0  0.83328  0.37900  0.74788  1.0000 0.0778536944
C   C510      1.0  0.83328  0.62100  0.25212  1.0000 0.0778536944
C   C511      1.0  0.16672  0.62100  0.74788  1.0000 0.0778536944
C   C512      1.0  0.16672  0.37900  0.25212  1.0000 0.0778536944
C   C513      1.0  0.74788  0.83328  0.37900  1.0000 0.0778536944
C   C514      1.0  0.25212  0.83328  0.62100  1.0000 0.0778536944
C   C515      1.0  0.74788  0.16672  0.62100  1.0000 0.0778536944
C   C516      1.0  0.25212  0.16672  0.37900  1.0000 0.0778536944
C   C517      1.0  0.75212  0.12100  0.33328  1.0000 0.0778536944
C   C518      1.0  0.24788  0.87900  0.33328  1.0000 0.0778536944
C   C519      1.0  0.75212  0.87900  0.66667  1.0000 0.0778536944
C   C520      1.0  0.24788  0.12100  0.66667  1.0000 0.0778536944
C   C521      1.0  0.12100  0.66667  0.24788  1.0000 0.0778536944
C   C522      1.0  0.87900  0.66667  0.75212  1.0000 0.0778536944
C   C523      1.0  0.87900  0.33328  0.24788  1.0000 0.0778536944
C   C524      1.0  0.12100  0.33328  0.75212  1.0000 0.0778536944
C   C525      1.0  0.66667  0.75212  0.87900  1.0000 0.0778536944
C   C526      1.0  0.66667  0.24788  0.12100  1.0000 0.0778536944
C   C527      1.0  0.33328  0.75212  0.12100  1.0000 0.0778536944
C   C528      1.0  0.33328  0.24788  0.87900  1.0000 0.0778536944
C   C529      1.0  0.39415  0.78249  0.85056  1.0000 -0.1588144356
C   C530      1.0  0.60585  0.21751  0.85056  1.0000 -0.1588144356
C   C531      1.0  0.60585  0.78249  0.14944  1.0000 -0.1588144356
C   C532      1.0  0.39415  0.21751  0.14944  1.0000 -0.1588144356
C   C533      1.0  0.85056  0.39415  0.78249  1.0000 -0.1588144356
C   C534      1.0  0.85056  0.60585  0.21751  1.0000 -0.1588144356
C   C535      1.0  0.14944  0.60585  0.78249  1.0000 -0.1588144356
C   C536      1.0  0.14944  0.39415  0.21751  1.0000 -0.1588144356
C   C537      1.0  0.78249  0.85056  0.39415  1.0000 -0.1588144356
C   C538      1.0  0.21751  0.85056  0.60585  1.0000 -0.1588144356
C   C539      1.0  0.78249  0.14944  0.60585  1.0000 -0.1588144356
C   C540      1.0  0.21751  0.14944  0.39415  1.0000 -0.1588144356
C   C541      1.0  0.71751  0.10585  0.35056  1.0000 -0.1588144356
C   C542      1.0  0.28249  0.89415  0.35056  1.0000 -0.1588144356
C   C543      1.0  0.71751  0.89415  0.64944  1.0000 -0.1588144356
C   C544      1.0  0.28249  0.10585  0.64944  1.0000 -0.1588144356
C   C545      1.0  0.10585  0.64944  0.28249  1.0000 -0.1588144356
C   C546      1.0  0.89415  0.64944  0.71751  1.0000 -0.1588144356
C   C547      1.0  0.89415  0.35056  0.28249  1.0000 -0.1588144356
C   C548      1.0  0.10585  0.35056  0.71751  1.0000 -0.1588144356
C   C549      1.0  0.64944  0.71751  0.89415  1.0000 -0.1588144356
C   C550      1.0  0.64944  0.28249  0.10585  1.0000 -0.1588144356
C   C551      1.0  0.35056  0.71751  0.10585  1.0000 -0.1588144356
C   C552      1.0  0.35056  0.28249  0.89415  1.0000 -0.1588144356
C   C553      1.0  0.41767  0.78055  0.88405  1.0000 -0.0935383305
C   C554      1.0  0.58233  0.21945  0.88405  1.0000 -0.0935383305
C   C555      1.0  0.58233  0.78055  0.11595  1.0000 -0.0935383305
C   C556      1.0  0.41767  0.21945  0.11595  1.0000 -0.0935383305
C   C557      1.0  0.88405  0.41767  0.78055  1.0000 -0.0935383305
C   C558      1.0  0.88405  0.58233  0.21945  1.0000 -0.0935383305
C   C559      1.0  0.11595  0.58233  0.78055  1.0000 -0.0935383305
C   C560      1.0  0.11595  0.41767  0.21945  1.0000 -0.0935383305
C   C561      1.0  0.78055  0.88405  0.41767  1.0000 -0.0935383305
C   C562      1.0  0.21945  0.88405  0.58233  1.0000 -0.0935383305
C   C563      1.0  0.78055  0.11595  0.58233  1.0000 -0.0935383305
C   C564      1.0  0.21945  0.11595  0.41767  1.0000 -0.0935383305
C   C565      1.0  0.71945  0.08233  0.38405  1.0000 -0.0935383305
C   C566      1.0  0.28055  0.91767  0.38405  1.0000 -0.0935383305
C   C567      1.0  0.71945  0.91767  0.61595  1.0000 -0.0935383305
C   C568      1.0  0.28055  0.08233  0.61595  1.0000 -0.0935383305
C   C569      1.0  0.08233  0.61595  0.28055  1.0000 -0.0935383305
C   C570      1.0  0.91767  0.61595  0.71945  1.0000 -0.0935383305
C   C571      1.0  0.91767  0.38405  0.28055  1.0000 -0.0935383305
C   C572      1.0  0.08233  0.38405  0.71945  1.0000 -0.0935383305
C   C573      1.0  0.61595  0.71945  0.91767  1.0000 -0.0935383305
C   C574      1.0  0.61595  0.28055  0.08233  1.0000 -0.0935383305
C   C575      1.0  0.38405  0.71945  0.08233  1.0000 -0.0935383305
C   C576      1.0  0.38405  0.28055  0.91767  1.0000 -0.0935383305
C   C577      1.0  0.31006  0.71627  0.74923  1.0000 0.0778536944
C   C578      1.0  0.68994  0.28373  0.74923  1.0000 0.0778536944
C   C579      1.0  0.68994  0.71627  0.25077  1.0000 0.0778536944
C   C580      1.0  0.31006  0.28373  0.25077  1.0000 0.0778536944
C   C581      1.0  0.74923  0.31006  0.71627  1.0000 0.0778536944
C   C582      1.0  0.74923  0.68994  0.28373  1.0000 0.0778536944
C   C583      1.0  0.25077  0.68994  0.71627  1.0000 0.0778536944
C   C584      1.0  0.25077  0.31006  0.28373  1.0000 0.0778536944
C   C585      1.0  0.71627  0.74923  0.31006  1.0000 0.0778536944
C   C586      1.0  0.28373  0.74923  0.68994  1.0000 0.0778536944
C   C587      1.0  0.71627  0.25077  0.68994  1.0000 0.0778536944
C   C588      1.0  0.28373  0.25077  0.31006  1.0000 0.0778536944
C   C589      1.0  0.78373  0.18994  0.24923  1.0000 0.0778536944
C   C590      1.0  0.21627  0.81006  0.24923  1.0000 0.0778536944
C   C591      1.0  0.78373  0.81006  0.75077  1.0000 0.0778536944
C   C592      1.0  0.21627  0.18994  0.75077  1.0000 0.0778536944
C   C593      1.0  0.18994  0.75077  0.21627  1.0000 0.0778536944
C   C594      1.0  0.81006  0.75077  0.78373  1.0000 0.0778536944
C   C595      1.0  0.81006  0.24923  0.21627  1.0000 0.0778536944
C   C596      1.0  0.18994  0.24923  0.78373  1.0000 0.0778536944
C   C597      1.0  0.75077  0.78373  0.81006  1.0000 0.0778536944
C   C598      1.0  0.75077  0.21627  0.18994  1.0000 0.0778536944
C   C599      1.0  0.24923  0.78373  0.18994  1.0000 0.0778536944
C   C600      1.0  0.24923  0.21627  0.81006  1.0000 0.0778536944
C   C601      1.0  0.27891  0.68800  0.74604  1.0000 -0.2030331898
C   C602      1.0  0.72109  0.31200  0.74604  1.0000 -0.2030331898
C   C603      1.0  0.72109  0.68800  0.25396  1.0000 -0.2030331898
C   C604      1.0  0.27891  0.31200  0.25396  1.0000 -0.2030331898
C   C605      1.0  0.74604  0.27891  0.68800  1.0000 -0.2030331898
C   C606      1.0  0.74604  0.72109  0.31200  1.0000 -0.2030331898
C   C607      1.0  0.25396  0.72109  0.68800  1.0000 -0.2030331898
C   C608      1.0  0.25396  0.27891  0.31200  1.0000 -0.2030331898
C   C609      1.0  0.68800  0.74604  0.27891  1.0000 -0.2030331898
C   C610      1.0  0.31200  0.74604  0.72109  1.0000 -0.2030331898
C   C611      1.0  0.68800  0.25396  0.72109  1.0000 -0.2030331898
C   C612      1.0  0.31200  0.25396  0.27891  1.0000 -0.2030331898
C   C613      1.0  0.81200  0.22109  0.24604  1.0000 -0.2030331898
C   C614      1.0  0.18800  0.77891  0.24604  1.0000 -0.2030331898
C   C615      1.0  0.81200  0.77891  0.75396  1.0000 -0.2030331898
C   C616      1.0  0.18800  0.22109  0.75396  1.0000 -0.2030331898
C   C617      1.0  0.22109  0.75396  0.18800  1.0000 -0.2030331898
C   C618      1.0  0.77891  0.75396  0.81200  1.0000 -0.2030331898
C   C619      1.0  0.77891  0.24604  0.18800  1.0000 -0.2030331898
C   C620      1.0  0.22109  0.24604  0.81200  1.0000 -0.2030331898
C   C621      1.0  0.75396  0.81200  0.77891  1.0000 -0.2030331898
C   C622      1.0  0.75396  0.18800  0.22109  1.0000 -0.2030331898
C   C623      1.0  0.24604  0.81200  0.22109  1.0000 -0.2030331898
C   C624      1.0  0.24604  0.18800  0.77891  1.0000 -0.2030331898
O   O1        1.0  0.70756  0.46536  0.05182  1.0000 -0.5409240663
O   O2        1.0  0.29244  0.53464  0.05182  1.0000 -0.5409240663
O   O3        1.0  0.70756  0.53464  0.94818  1.0000 -0.5409240663
O   O4        1.0  0.29244  0.46536  0.94818  1.0000 -0.5409240663
O   O5        1.0  0.46536  0.94818  0.29244  1.0000 -0.5409240663
O   O6        1.0  0.53464  0.94818  0.70756  1.0000 -0.5409240663
O   O7        1.0  0.53464  0.05182  0.29244  1.0000 -0.5409240663
O   O8        1.0  0.46536  0.05182  0.70756  1.0000 -0.5409240663
O   O9        1.0  0.94818  0.70756  0.53464  1.0000 -0.5409240663
O   O10       1.0  0.94818  0.29244  0.46536  1.0000 -0.5409240663
O   O11       1.0  0.05182  0.70756  0.46536  1.0000 -0.5409240663
O   O12       1.0  0.05182  0.29244  0.53464  1.0000 -0.5409240663
O   O13       1.0  0.03464  0.79244  0.55182  1.0000 -0.5409240663
O   O14       1.0  0.96536  0.20756  0.55182  1.0000 -0.5409240663
O   O15       1.0  0.96536  0.79244  0.44818  1.0000 -0.5409240663
O   O16       1.0  0.03464  0.20756  0.44818  1.0000 -0.5409240663
O   O17       1.0  0.55182  0.03464  0.79244  1.0000 -0.5409240663
O   O18       1.0  0.55182  0.96536  0.20756  1.0000 -0.5409240663
O   O19       1.0  0.44818  0.96536  0.79244  1.0000 -0.5409240663
O   O20       1.0  0.44818  0.03464  0.20756  1.0000 -0.5409240663
O   O21       1.0  0.79244  0.55182  0.03464  1.0000 -0.5409240663
O   O22       1.0  0.20756  0.55182  0.96536  1.0000 -0.5409240663
O   O23       1.0  0.79244  0.44818  0.96536  1.0000 -0.5409240663
O   O24       1.0  0.20756  0.44818  0.03464  1.0000 -0.5409240663
O   O25       1.0  0.77369  0.46713  0.04991  1.0000 -0.5590084732
O   O26       1.0  0.22631  0.53287  0.04991  1.0000 -0.5590084732
O   O27       1.0  0.77369  0.53287  0.95009  1.0000 -0.5590084732
O   O28       1.0  0.22631  0.46713  0.95009  1.0000 -0.5590084732
O   O29       1.0  0.46713  0.95009  0.22631  1.0000 -0.5590084732
O   O30       1.0  0.53287  0.95009  0.77369  1.0000 -0.5590084732
O   O31       1.0  0.53287  0.04991  0.22631  1.0000 -0.5590084732
O   O32       1.0  0.46713  0.04991  0.77369  1.0000 -0.5590084732
O   O33       1.0  0.95009  0.77369  0.53287  1.0000 -0.5590084732
O   O34       1.0  0.95009  0.22631  0.46713  1.0000 -0.5590084732
O   O35       1.0  0.04991  0.77369  0.46713  1.0000 -0.5590084732
O   O36       1.0  0.04991  0.22631  0.53287  1.0000 -0.5590084732
O   O37       1.0  0.03287  0.72631  0.54991  1.0000 -0.5590084732
O   O38       1.0  0.96713  0.27369  0.54991  1.0000 -0.5590084732
O   O39       1.0  0.96713  0.72631  0.45009  1.0000 -0.5590084732
O   O40       1.0  0.03287  0.27369  0.45009  1.0000 -0.5590084732
O   O41       1.0  0.54991  0.03287  0.72631  1.0000 -0.5590084732
O   O42       1.0  0.54991  0.96713  0.27369  1.0000 -0.5590084732
O   O43       1.0  0.45009  0.96713  0.72631  1.0000 -0.5590084732
O   O44       1.0  0.45009  0.03287  0.27369  1.0000 -0.5590084732
O   O45       1.0  0.72631  0.54991  0.03287  1.0000 -0.5590084732
O   O46       1.0  0.27369  0.54991  0.96713  1.0000 -0.5590084732
O   O47       1.0  0.72631  0.45009  0.96713  1.0000 -0.5590084732
O   O48       1.0  0.27369  0.45009  0.03287  1.0000 -0.5590084732
O   O49       1.0  0.46536  0.70756  0.94818  1.0000 -0.5409240663
O   O50       1.0  0.53464  0.29244  0.94818  1.0000 -0.5409240663
O   O51       1.0  0.53464  0.70756  0.05182  1.0000 -0.5409240663
O   O52       1.0  0.46536  0.29244  0.05182  1.0000 -0.5409240663
O   O53       1.0  0.94818  0.46536  0.70756  1.0000 -0.5409240663
O   O54       1.0  0.94818  0.53464  0.29244  1.0000 -0.5409240663
O   O55       1.0  0.05182  0.53464  0.70756  1.0000 -0.5409240663
O   O56       1.0  0.05182  0.46536  0.29244  1.0000 -0.5409240663
O   O57       1.0  0.70756  0.94818  0.46536  1.0000 -0.5409240663
O   O58       1.0  0.29244  0.94818  0.53464  1.0000 -0.5409240663
O   O59       1.0  0.70756  0.05182  0.53464  1.0000 -0.5409240663
O   O60       1.0  0.29244  0.05182  0.46536  1.0000 -0.5409240663
O   O61       1.0  0.79244  0.03464  0.44818  1.0000 -0.5409240663
O   O62       1.0  0.20756  0.96536  0.44818  1.0000 -0.5409240663
O   O63       1.0  0.79244  0.96536  0.55182  1.0000 -0.5409240663
O   O64       1.0  0.20756  0.03464  0.55182  1.0000 -0.5409240663
O   O65       1.0  0.03464  0.55182  0.20756  1.0000 -0.5409240663
O   O66       1.0  0.96536  0.55182  0.79244  1.0000 -0.5409240663
O   O67       1.0  0.96536  0.44818  0.20756  1.0000 -0.5409240663
O   O68       1.0  0.03464  0.44818  0.79244  1.0000 -0.5409240663
O   O69       1.0  0.55182  0.79244  0.96536  1.0000 -0.5409240663
O   O70       1.0  0.55182  0.20756  0.03464  1.0000 -0.5409240663
O   O71       1.0  0.44818  0.79244  0.03464  1.0000 -0.5409240663
O   O72       1.0  0.44818  0.20756  0.96536  1.0000 -0.5409240663
O   O73       1.0  0.46713  0.77369  0.95009  1.0000 -0.5590084732
O   O74       1.0  0.53287  0.22631  0.95009  1.0000 -0.5590084732
O   O75       1.0  0.53287  0.77369  0.04991  1.0000 -0.5590084732
O   O76       1.0  0.46713  0.22631  0.04991  1.0000 -0.5590084732
O   O77       1.0  0.95009  0.46713  0.77369  1.0000 -0.5590084732
O   O78       1.0  0.95009  0.53287  0.22631  1.0000 -0.5590084732
O   O79       1.0  0.04991  0.53287  0.77369  1.0000 -0.5590084732
O   O80       1.0  0.04991  0.46713  0.22631  1.0000 -0.5590084732
O   O81       1.0  0.77369  0.95009  0.46713  1.0000 -0.5590084732
O   O82       1.0  0.22631  0.95009  0.53287  1.0000 -0.5590084732
O   O83       1.0  0.77369  0.04991  0.53287  1.0000 -0.5590084732
O   O84       1.0  0.22631  0.04991  0.46713  1.0000 -0.5590084732
O   O85       1.0  0.72631  0.03287  0.45009  1.0000 -0.5590084732
O   O86       1.0  0.27369  0.96713  0.45009  1.0000 -0.5590084732
O   O87       1.0  0.72631  0.96713  0.54991  1.0000 -0.5590084732
O   O88       1.0  0.27369  0.03287  0.54991  1.0000 -0.5590084732
O   O89       1.0  0.03287  0.54991  0.27369  1.0000 -0.5590084732
O   O90       1.0  0.96713  0.54991  0.72631  1.0000 -0.5590084732
O   O91       1.0  0.96713  0.45009  0.27369  1.0000 -0.5590084732
O   O92       1.0  0.03287  0.45009  0.72631  1.0000 -0.5590084732
O   O93       1.0  0.54991  0.72631  0.96713  1.0000 -0.5590084732
O   O94       1.0  0.54991  0.27369  0.03287  1.0000 -0.5590084732
O   O95       1.0  0.45009  0.72631  0.03287  1.0000 -0.5590084732
O   O96       1.0  0.45009  0.27369  0.96713  1.0000 -0.5590084732
