# DDEC6 charges by PACMAN v1.1 (https://github.com/mtap-research/PACMAN-charge/)
data_2013[Gd][nan]3[ASR]2
_chemical_formula_sum              "Gd8 H66 C135 O73"
_cell_length_a       14.6484
_cell_length_b       16.4358
_cell_length_c       16.5923
_cell_angle_alpha    90
_cell_angle_beta     90
_cell_angle_gamma    90

_symmetry_space_group_name_H-M    "P 1"
_symmetry_Int_Tables_number       1

loop_
  _symmetry_equiv_pos_as_xyz
  'x, y, z'

loop_
  _atom_site_type_symbol
  _atom_site_label
  _atom_site_symmetry_multiplicity
  _atom_site_fract_x
  _atom_site_fract_y
  _atom_site_fract_z
  _atom_site_occupancy
  _atom_site_charge
Gd  Gd1       1.0  0.83528  0.99885  0.49863  1.0000 2.0214280172
Gd  Gd2       1.0  0.16282  0.99712  0.00013  1.0000 2.0214280172
Gd  Gd3       1.0  0.33610  0.49766  0.50049  1.0000 2.0214280172
Gd  Gd4       1.0  0.66216  0.49708  0.00183  1.0000 2.0214280172
Gd  Gd5       1.0  0.99973  0.83180  0.75003  1.0000 2.0358385129
Gd  Gd6       1.0  0.00000  0.16880  0.25003  1.0000 2.0214280172
Gd  Gd7       1.0  0.49914  0.33239  0.75097  1.0000 2.0296753927
Gd  Gd8       1.0  0.50025  0.66522  0.25067  1.0000 2.0214280172
H   H1        1.0  0.11108  0.73573  0.22864  1.0000 0.372465147
H   H2        1.0  0.88817  0.73541  0.27160  1.0000 0.372465147
H   H3        1.0  0.10585  0.23852  0.78241  1.0000 0.0982757067
H   H4        1.0  0.60251  0.25549  0.21722  1.0000 0.0982757067
H   H5        1.0  0.39795  0.74502  0.71721  1.0000 0.0982757067
H   H6        1.0  0.20166  0.84709  0.22283  1.0000 0.1404302993
H   H7        1.0  0.79898  0.84679  0.27579  1.0000 0.1404302993
H   H8        1.0  0.05027  0.14537  0.75379  1.0000 0.0922797369
H   H9        1.0  0.55212  0.35096  0.24524  1.0000 0.0922797369
H   H10       1.0  0.44577  0.64789  0.74384  1.0000 0.0922797369
H   H11       1.0  0.72300  0.08924  0.02970  1.0000 0.0982757067
H   H12       1.0  0.27393  0.09081  0.46936  1.0000 0.0982757067
H   H13       1.0  0.77103  0.41410  0.53559  1.0000 0.0922797369
H   H14       1.0  0.22672  0.41372  0.96652  1.0000 0.0922797369
H   H15       1.0  0.84136  0.06296  0.01635  1.0000 0.0982757067
H   H16       1.0  0.15684  0.06080  0.48513  1.0000 0.0982757067
H   H17       1.0  0.65484  0.44252  0.51545  1.0000 0.0922797369
H   H18       1.0  0.34357  0.44166  0.98394  1.0000 0.0922797369
H   H19       1.0  0.11398  0.72399  0.56978  1.0000 0.1404302993
H   H20       1.0  0.87023  0.26396  0.07158  1.0000 0.1404302993
H   H21       1.0  0.88493  0.72312  0.93043  1.0000 0.1404302993
H   H22       1.0  0.12270  0.27005  0.42800  1.0000 0.1404302993
H   H23       1.0  0.62204  0.22789  0.57168  1.0000 0.1404302993
H   H24       1.0  0.37613  0.76906  0.07083  1.0000 0.1404302993
H   H25       1.0  0.36875  0.23390  0.92828  1.0000 0.1404302993
H   H26       1.0  0.63020  0.76293  0.42860  1.0000 0.1404302993
H   H27       1.0  0.17225  0.65607  0.32343  1.0000 0.1404302993
H   H28       1.0  0.83926  0.33948  0.82332  1.0000 0.1565552387
H   H29       1.0  0.82750  0.65531  0.17699  1.0000 0.1404302993
H   H30       1.0  0.15656  0.33508  0.67834  1.0000 0.1309723863
H   H31       1.0  0.65697  0.16247  0.32143  1.0000 0.1309723863
H   H32       1.0  0.34741  0.83848  0.82106  1.0000 0.1309723863
H   H33       1.0  0.33881  0.15800  0.17690  1.0000 0.1565552387
H   H34       1.0  0.65817  0.84144  0.67637  1.0000 0.1565552387
H   H35       1.0  0.00475  0.86931  0.37315  1.0000 0.1509238366
H   H36       1.0  0.03607  0.14972  0.88735  1.0000 0.1404302993
H   H37       1.0  0.99393  0.86904  0.12668  1.0000 0.1509238366
H   H38       1.0  0.98219  0.13180  0.61246  1.0000 0.1309723863
H   H39       1.0  0.48144  0.36511  0.38721  1.0000 0.1404302993
H   H40       1.0  0.51736  0.63200  0.88673  1.0000 0.1309723863
H   H41       1.0  0.53564  0.34695  0.11172  1.0000 0.1404302993
H   H42       1.0  0.46600  0.64799  0.61316  1.0000 0.1404302993
H   H43       1.0  0.74547  0.12504  0.67970  1.0000 0.1404302993
H   H44       1.0  0.29101  0.89973  0.18487  1.0000 0.1404302993
H   H45       1.0  0.26002  0.11974  0.82070  1.0000 0.1404302993
H   H46       1.0  0.70963  0.89882  0.31475  1.0000 0.1404302993
H   H47       1.0  0.24494  0.62610  0.67978  1.0000 0.1404302993
H   H48       1.0  0.75954  0.37718  0.18253  1.0000 0.1404302993
H   H49       1.0  0.74851  0.63004  0.82080  1.0000 0.1404302993
H   H50       1.0  0.24568  0.37284  0.31809  1.0000 0.1404302993
H   H51       1.0  0.65523  0.15433  0.92589  1.0000 0.1309723863
H   H52       1.0  0.34314  0.84619  0.43262  1.0000 0.1509238366
H   H53       1.0  0.34412  0.15514  0.57347  1.0000 0.1309723863
H   H54       1.0  0.65715  0.84619  0.06642  1.0000 0.1509238366
H   H55       1.0  0.15983  0.65716  0.92835  1.0000 0.1509238366
H   H56       1.0  0.84451  0.34557  0.42982  1.0000 0.1309723863
H   H57       1.0  0.84003  0.65671  0.57344  1.0000 0.1509238366
H   H58       1.0  0.15557  0.34526  0.07169  1.0000 0.1247308759
H   H59       1.0  0.86077  0.97303  0.86681  1.0000 0.1404302993
H   H60       1.0  0.16327  0.04707  0.36119  1.0000 0.1404302993
H   H61       1.0  0.14148  0.97129  0.63222  1.0000 0.1404302993
H   H62       1.0  0.83733  0.04645  0.13841  1.0000 0.1404302993
H   H63       1.0  0.34847  0.46276  0.86230  1.0000 0.1404302993
H   H64       1.0  0.64151  0.52858  0.36918  1.0000 0.1404302993
H   H65       1.0  0.64952  0.46354  0.63912  1.0000 0.1404302993
H   H66       1.0  0.35992  0.52716  0.13214  1.0000 0.1309723863
C   C1        1.0  0.05223  0.21179  0.74319  1.0000 0.0026070304
C   C2        1.0  0.55095  0.28471  0.25665  1.0000 0.0026070304
C   C3        1.0  0.44873  0.71402  0.75625  1.0000 0.0088277055
C   C4        1.0  0.77113  0.05012  0.99550  1.0000 0.0088277055
C   C5        1.0  0.22816  0.05020  0.50428  1.0000 0.0088277055
C   C6        1.0  0.72690  0.45403  0.49820  1.0000 0.0088277055
C   C7        1.0  0.27217  0.45338  0.00291  1.0000 0.0088277055
C   C8        1.0  0.01298  0.85848  0.53833  1.0000 0.6711990604
C   C9        1.0  0.99450  0.14315  0.04589  1.0000 0.6630964918
C   C10       1.0  0.98551  0.85784  0.96165  1.0000 0.6711990604
C   C11       1.0  0.00631  0.14047  0.45318  1.0000 0.6630964918
C   C12       1.0  0.50825  0.35653  0.54696  1.0000 0.6711990604
C   C13       1.0  0.49277  0.64218  0.04686  1.0000 0.6769413038
C   C14       1.0  0.49142  0.35596  0.95604  1.0000 0.6711990604
C   C15       1.0  0.50539  0.64269  0.45432  1.0000 0.6769413038
C   C16       1.0  0.20481  0.61282  0.47241  1.0000 0.5607687687
C   C17       1.0  0.78169  0.37151  0.97146  1.0000 0.5607687687
C   C18       1.0  0.79673  0.60997  0.02806  1.0000 0.5607687687
C   C19       1.0  0.20724  0.37646  0.53017  1.0000 0.5677195728
C   C20       1.0  0.70530  0.11951  0.47009  1.0000 0.5677195728
C   C21       1.0  0.29478  0.87912  0.97007  1.0000 0.5677195728
C   C22       1.0  0.28450  0.12156  0.02887  1.0000 0.5607687687
C   C23       1.0  0.71213  0.87760  0.52822  1.0000 0.5607687687
C   C24       1.0  0.05651  0.80257  0.47689  1.0000 -0.0182736726
C   C25       1.0  0.95564  0.20019  0.98386  1.0000 -0.0182736726
C   C26       1.0  0.94195  0.80204  0.02311  1.0000 -0.0182736726
C   C27       1.0  0.04716  0.19627  0.51464  1.0000 -0.0396620598
C   C28       1.0  0.54731  0.30098  0.48480  1.0000 -0.0396620598
C   C29       1.0  0.45195  0.69639  0.98432  1.0000 -0.0327691508
C   C30       1.0  0.45389  0.29675  0.01628  1.0000 -0.0182736726
C   C31       1.0  0.54563  0.69924  0.51628  1.0000 -0.0117090153
C   C32       1.0  0.10712  0.73515  0.50494  1.0000 -0.0798354525
C   C33       1.0  0.88926  0.25755  0.00797  1.0000 -0.092745261
C   C34       1.0  0.89178  0.73424  0.99528  1.0000 -0.0719860213
C   C35       1.0  0.10588  0.25963  0.49164  1.0000 -0.0798354525
C   C36       1.0  0.60565  0.23752  0.50787  1.0000 -0.0798354525
C   C37       1.0  0.39341  0.75991  0.00715  1.0000 -0.0719860213
C   C38       1.0  0.38813  0.23912  0.99187  1.0000 -0.092745261
C   C39       1.0  0.61073  0.75773  0.49219  1.0000 -0.0719860213
C   C40       1.0  0.14737  0.68313  0.44823  1.0000 0.0088277055
C   C41       1.0  0.84849  0.30700  0.94896  1.0000 0.0026070304
C   C42       1.0  0.85221  0.68173  0.05204  1.0000 0.0088277055
C   C43       1.0  0.14306  0.30968  0.55161  1.0000 -0.0117090153
C   C44       1.0  0.64270  0.18723  0.44815  1.0000 -0.0182736726
C   C45       1.0  0.35758  0.81138  0.94785  1.0000 -0.0117090153
C   C46       1.0  0.34859  0.18860  0.05087  1.0000 0.0088277055
C   C47       1.0  0.64952  0.80945  0.55037  1.0000 0.0026070304
C   C48       1.0  0.13932  0.69792  0.36598  1.0000 -0.2015124874
C   C49       1.0  0.87176  0.30011  0.86816  1.0000 -0.1569521643
C   C50       1.0  0.85997  0.69717  0.13426  1.0000 -0.2015124874
C   C51       1.0  0.12419  0.29567  0.63337  1.0000 -0.1118770817
C   C52       1.0  0.62416  0.20160  0.36642  1.0000 -0.1015865477
C   C53       1.0  0.37764  0.79784  0.86613  1.0000 -0.1118770817
C   C54       1.0  0.37112  0.19699  0.13166  1.0000 -0.1525914573
C   C55       1.0  0.62744  0.80107  0.63148  1.0000 -0.1525914573
C   C56       1.0  0.09226  0.76708  0.33902  1.0000 0.2888179902
C   C57       1.0  0.94114  0.24473  0.84547  1.0000 0.2558974011
C   C58       1.0  0.90683  0.76655  0.16101  1.0000 0.2950703783
C   C59       1.0  0.06789  0.23076  0.65605  1.0000 0.0782373513
C   C60       1.0  0.56726  0.26614  0.34370  1.0000 0.0723328633
C   C61       1.0  0.43295  0.73218  0.84342  1.0000 0.0782373513
C   C62       1.0  0.43976  0.25289  0.15462  1.0000 0.2528464368
C   C63       1.0  0.56050  0.74370  0.65447  1.0000 0.2528464368
C   C64       1.0  0.04746  0.81863  0.39412  1.0000 -0.1714002507
C   C65       1.0  0.98349  0.19427  0.90351  1.0000 -0.1911846267
C   C66       1.0  0.95134  0.81823  0.10581  1.0000 -0.1714002507
C   C67       1.0  0.02786  0.18209  0.59641  1.0000 -0.1118770817
C   C68       1.0  0.52744  0.31510  0.40324  1.0000 -0.1015865477
C   C69       1.0  0.47176  0.68237  0.90272  1.0000 -0.1015865477
C   C70       1.0  0.48273  0.30243  0.09629  1.0000 -0.1784584439
C   C71       1.0  0.51810  0.69291  0.59682  1.0000 -0.1911846267
C   C72       1.0  0.86221  0.99847  0.70663  1.0000 0.6711990604
C   C73       1.0  0.14056  0.00524  0.20633  1.0000 0.6489896758
C   C74       1.0  0.13960  0.99656  0.79277  1.0000 0.6630964918
C   C75       1.0  0.85863  0.00654  0.29253  1.0000 0.6489896758
C   C76       1.0  0.36049  0.49707  0.70588  1.0000 0.6630964918
C   C77       1.0  0.64039  0.50121  0.20803  1.0000 0.6630964918
C   C78       1.0  0.63635  0.49915  0.79579  1.0000 0.6711990604
C   C79       1.0  0.36192  0.49925  0.29279  1.0000 0.6711990604
C   C80       1.0  0.63111  0.21284  0.78006  1.0000 0.5677195728
C   C81       1.0  0.37084  0.78402  0.28563  1.0000 0.5444698019
C   C82       1.0  0.37086  0.21074  0.72067  1.0000 0.5677195728
C   C83       1.0  0.62897  0.78415  0.21463  1.0000 0.5444698019
C   C84       1.0  0.13095  0.71471  0.78008  1.0000 0.5607687687
C   C85       1.0  0.87116  0.28885  0.28198  1.0000 0.5677195728
C   C86       1.0  0.86697  0.71608  0.72046  1.0000 0.5607687687
C   C87       1.0  0.13066  0.28717  0.21869  1.0000 0.5677195728
C   C88       1.0  0.80739  0.04423  0.76782  1.0000 -0.0327691508
C   C89       1.0  0.20225  0.96447  0.26808  1.0000 0.0782373513
C   C90       1.0  0.19639  0.04071  0.73199  1.0000 -0.0327691508
C   C91       1.0  0.79757  0.96444  0.23123  1.0000 0.0782373513
C   C92       1.0  0.30296  0.54135  0.76691  1.0000 -0.0117090153
C   C93       1.0  0.69710  0.45854  0.26983  1.0000 -0.0396620598
C   C94       1.0  0.69257  0.54420  0.73414  1.0000 0.0026070304
C   C95       1.0  0.30696  0.45493  0.23088  1.0000 -0.0327691508
C   C96       1.0  0.74974  0.10774  0.74335  1.0000 -0.0798354525
C   C97       1.0  0.25407  0.89203  0.24351  1.0000 -0.216538118
C   C98       1.0  0.25495  0.10341  0.75687  1.0000 -0.1015865477
C   C99       1.0  0.74605  0.89190  0.25588  1.0000 -0.216538118
C   C100      1.0  0.24826  0.60797  0.74332  1.0000 -0.1118770817
C   C101      1.0  0.75524  0.39525  0.24603  1.0000 -0.092745261
C   C102      1.0  0.74664  0.61137  0.75746  1.0000 -0.0798354525
C   C103      1.0  0.24952  0.39116  0.25468  1.0000 -0.0719860213
C   C104      1.0  0.69508  0.14612  0.80107  1.0000 -0.0117090153
C   C105      1.0  0.30824  0.85263  0.30706  1.0000 0.0723328633
C   C106      1.0  0.30824  0.14320  0.69903  1.0000 -0.0117090153
C   C107      1.0  0.69200  0.85229  0.19239  1.0000 0.0723328633
C   C108      1.0  0.19648  0.64874  0.80214  1.0000 0.0088277055
C   C109      1.0  0.80825  0.35604  0.30443  1.0000 -0.0117090153
C   C110      1.0  0.80035  0.65078  0.69894  1.0000 0.0088277055
C   C111      1.0  0.19502  0.35326  0.19657  1.0000 -0.0117090153
C   C112      1.0  0.69950  0.12316  0.88243  1.0000 -0.117044823
C   C113      1.0  0.30261  0.87632  0.38578  1.0000 -0.2015124874
C   C114      1.0  0.30197  0.12214  0.61727  1.0000 -0.117044823
C   C115      1.0  0.69780  0.87582  0.11353  1.0000 -0.2015124874
C   C116      1.0  0.20151  0.62636  0.88290  1.0000 -0.1569521643
C   C117      1.0  0.80172  0.37805  0.38615  1.0000 -0.117044823
C   C118      1.0  0.79662  0.62710  0.61854  1.0000 -0.1569521643
C   C119      1.0  0.19985  0.37660  0.11510  1.0000 -0.117044823
C   C120      1.0  0.76067  0.06327  0.90718  1.0000 0.0723328633
C   C121      1.0  0.25047  0.94622  0.40578  1.0000 0.2888179902
C   C122      1.0  0.24075  0.06232  0.59244  1.0000 0.0723328633
C   C123      1.0  0.75033  0.94543  0.09327  1.0000 0.2888179902
C   C124      1.0  0.25555  0.55888  0.90524  1.0000 0.2528464368
C   C125      1.0  0.74083  0.43868  0.41025  1.0000 0.0723328633
C   C126      1.0  0.74240  0.55972  0.59624  1.0000 0.2528464368
C   C127      1.0  0.26045  0.43730  0.09087  1.0000 0.0723328633
C   C128      1.0  0.81381  0.02212  0.84965  1.0000 -0.0798354525
C   C129      1.0  0.20240  0.99210  0.34618  1.0000 -0.2296620847
C   C130      1.0  0.18890  0.01982  0.64995  1.0000 -0.092745261
C   C131      1.0  0.79802  0.99149  0.15299  1.0000 -0.2296620847
C   C132      1.0  0.30630  0.51549  0.84703  1.0000 -0.1911846267
C   C133      1.0  0.68926  0.48026  0.35175  1.0000 -0.1015865477
C   C134      1.0  0.69077  0.51688  0.65433  1.0000 -0.1911846267
C   C135      1.0  0.31319  0.47796  0.14919  1.0000 -0.092745261
O   O1        1.0  0.94718  0.90297  0.51412  1.0000 -0.6614841868
O   O2        1.0  0.06269  0.10002  0.02552  1.0000 -0.6524052537
O   O3        1.0  0.05194  0.90181  0.98575  1.0000 -0.6650520878
O   O4        1.0  0.93434  0.10201  0.47356  1.0000 -0.6524052537
O   O5        1.0  0.44040  0.40044  0.52664  1.0000 -0.6614841868
O   O6        1.0  0.56351  0.60094  0.02765  1.0000 -0.6614841868
O   O7        1.0  0.55560  0.40143  0.98114  1.0000 -0.6614841868
O   O8        1.0  0.43581  0.60101  0.47502  1.0000 -0.6614841868
O   O9        1.0  0.04546  0.85886  0.60960  1.0000 -0.6097056087
O   O10       1.0  0.95514  0.13999  0.11430  1.0000 -0.6203575486
O   O11       1.0  0.95299  0.85883  0.89044  1.0000 -0.6097056087
O   O12       1.0  0.04532  0.13146  0.38499  1.0000 -0.6203575486
O   O13       1.0  0.54536  0.35969  0.61633  1.0000 -0.6285770651
O   O14       1.0  0.45543  0.63922  0.11610  1.0000 -0.6203575486
O   O15       1.0  0.45553  0.35966  0.88637  1.0000 -0.6285770651
O   O16       1.0  0.54354  0.63963  0.38561  1.0000 -0.6203575486
O   O17       1.0  0.22468  0.55983  0.41801  1.0000 -0.5995002703
O   O18       1.0  0.76438  0.42607  0.91797  1.0000 -0.5995002703
O   O19       1.0  0.77693  0.55722  0.08292  1.0000 -0.6097056087
O   O20       1.0  0.23132  0.42713  0.58557  1.0000 -0.6097056087
O   O21       1.0  0.73013  0.06935  0.41433  1.0000 -0.5995002703
O   O22       1.0  0.26906  0.92907  0.91471  1.0000 -0.6097056087
O   O23       1.0  0.26498  0.06985  0.08454  1.0000 -0.5995002703
O   O24       1.0  0.73420  0.92780  0.58430  1.0000 -0.5995002703
O   O25       1.0  0.23579  0.60846  0.54430  1.0000 -0.5805962624
O   O26       1.0  0.74506  0.37115  0.04140  1.0000 -0.5884706692
O   O27       1.0  0.76685  0.60394  0.95599  1.0000 -0.5805962624
O   O28       1.0  0.23947  0.38256  0.45870  1.0000 -0.5884706692
O   O29       1.0  0.73550  0.11234  0.54212  1.0000 -0.5805962624
O   O30       1.0  0.26488  0.88620  0.04255  1.0000 -0.5884706692
O   O31       1.0  0.25204  0.11652  0.95753  1.0000 -0.5884706692
O   O32       1.0  0.74145  0.88447  0.45574  1.0000 -0.5805962624
O   O33       1.0  0.09061  0.78428  0.25749  1.0000 -0.447421016
O   O34       1.0  0.96425  0.24689  0.76666  1.0000 -0.1784584439
O   O35       1.0  0.90882  0.78384  0.24252  1.0000 -0.4440920965
O   O36       1.0  0.46112  0.25260  0.23401  1.0000 -0.1784584439
O   O37       1.0  0.53932  0.74449  0.73389  1.0000 -0.1714002507
O   O38       1.0  0.87607  0.02937  0.63740  1.0000 -0.6203575486
O   O39       1.0  0.12377  0.96769  0.14163  1.0000 -0.5805962624
O   O40       1.0  0.12358  0.02973  0.86074  1.0000 -0.6203575486
O   O41       1.0  0.87675  0.96947  0.35732  1.0000 -0.5805962624
O   O42       1.0  0.37759  0.53226  0.63922  1.0000 -0.6203575486
O   O43       1.0  0.62387  0.46594  0.14120  1.0000 -0.6203575486
O   O44       1.0  0.62211  0.53197  0.86390  1.0000 -0.6203575486
O   O45       1.0  0.37688  0.46629  0.36088  1.0000 -0.6203575486
O   O46       1.0  0.89325  0.92909  0.72817  1.0000 -0.6614841868
O   O47       1.0  0.10905  0.07388  0.22790  1.0000 -0.6524052537
O   O48       1.0  0.10847  0.92708  0.77199  1.0000 -0.6614841868
O   O49       1.0  0.88859  0.07556  0.27072  1.0000 -0.6524052537
O   O50       1.0  0.39006  0.42737  0.72654  1.0000 -0.6524052537
O   O51       1.0  0.60963  0.57145  0.22627  1.0000 -0.6524052537
O   O52       1.0  0.60587  0.42976  0.77415  1.0000 -0.6614841868
O   O53       1.0  0.39187  0.56969  0.27345  1.0000 -0.6614841868
O   O54       1.0  0.64205  0.25521  0.71636  1.0000 -0.5708174225
O   O55       1.0  0.35031  0.73791  0.22692  1.0000 -0.559861612
O   O56       1.0  0.35868  0.25225  0.78486  1.0000 -0.5805962624
O   O57       1.0  0.64966  0.73846  0.27383  1.0000 -0.559861612
O   O58       1.0  0.14152  0.75447  0.71454  1.0000 -0.5708174225
O   O59       1.0  0.85846  0.24821  0.21727  1.0000 -0.5805962624
O   O60       1.0  0.85693  0.75647  0.78553  1.0000 -0.559861612
O   O61       1.0  0.14190  0.24560  0.28304  1.0000 -0.5708174225
O   O62       1.0  0.56476  0.22747  0.82933  1.0000 -0.6203575486
O   O63       1.0  0.44261  0.77546  0.32932  1.0000 -0.6203575486
O   O64       1.0  0.43665  0.22695  0.67149  1.0000 -0.6203575486
O   O65       1.0  0.55684  0.77571  0.17162  1.0000 -0.6097056087
O   O66       1.0  0.06499  0.72862  0.82946  1.0000 -0.6203575486
O   O67       1.0  0.93785  0.27261  0.33018  1.0000 -0.6285770651
O   O68       1.0  0.93343  0.72874  0.67107  1.0000 -0.6203575486
O   O69       1.0  0.06358  0.27265  0.17027  1.0000 -0.6203575486
O   O70       1.0  0.25406  0.96641  0.48335  1.0000 -0.1525914573
O   O71       1.0  0.74723  0.96559  0.01559  1.0000 -0.1525914573
O   O72       1.0  0.24914  0.53766  0.98441  1.0000 -0.1714002507
O   O73       1.0  0.74942  0.53838  0.51717  1.0000 -0.1714002507
