# DDEC6 charges by PACMAN v1.1 (https://github.com/mtap-research/PACMAN-charge/)
data_2013[Er][nan]3[ASR]2
_chemical_formula_sum              "Er8 H32 C84 O52"
_cell_length_a       9.8475
_cell_length_b       29.058
_cell_length_c       10.8151
_cell_angle_alpha    90
_cell_angle_beta     92.311
_cell_angle_gamma    90

_symmetry_space_group_name_H-M    "P 1"
_symmetry_Int_Tables_number       1

loop_
  _symmetry_equiv_pos_as_xyz
  'x, y, z'

loop_
  _atom_site_type_symbol
  _atom_site_label
  _atom_site_symmetry_multiplicity
  _atom_site_fract_x
  _atom_site_fract_y
  _atom_site_fract_z
  _atom_site_occupancy
  _atom_site_charge
Er  Er1       1.0  0.54488  0.58123  0.04236  1.0000 2.0633005746
Er  Er2       1.0  0.45512  0.08123  0.45764  1.0000 2.0633005746
Er  Er3       1.0  0.45512  0.41877  0.95764  1.0000 2.0633005746
Er  Er4       1.0  0.54488  0.91877  0.54236  1.0000 2.0633005746
Er  Er5       1.0  0.53891  0.74830  0.76274  1.0000 2.0105495103
Er  Er6       1.0  0.46109  0.24830  0.73726  1.0000 2.0105495103
Er  Er7       1.0  0.46109  0.25170  0.23726  1.0000 2.0105495103
Er  Er8       1.0  0.53891  0.75170  0.26274  1.0000 2.0105495103
H   H1        1.0  0.98560  0.59180  0.16960  1.0000 0.1224442855
H   H2        1.0  0.01440  0.09180  0.33040  1.0000 0.1224442855
H   H3        1.0  0.01440  0.40820  0.83040  1.0000 0.1224442855
H   H4        1.0  0.98560  0.90820  0.66960  1.0000 0.1224442855
H   H5        1.0  0.21920  0.60610  0.16400  1.0000 0.1272109397
H   H6        1.0  0.78080  0.10610  0.33600  1.0000 0.1272109397
H   H7        1.0  0.78080  0.39390  0.83600  1.0000 0.1272109397
H   H8        1.0  0.21920  0.89390  0.66400  1.0000 0.1272109397
H   H9        1.0  0.09230  0.79070  0.83970  1.0000 0.1224442855
H   H10       1.0  0.90770  0.29070  0.66030  1.0000 0.1224442855
H   H11       1.0  0.90770  0.20930  0.16030  1.0000 0.1224442855
H   H12       1.0  0.09230  0.70930  0.33970  1.0000 0.1224442855
H   H13       1.0  0.86350  0.78700  0.89110  1.0000 0.1224442855
H   H14       1.0  0.13650  0.28700  0.60890  1.0000 0.1224442855
H   H15       1.0  0.13650  0.21300  0.10890  1.0000 0.1224442855
H   H16       1.0  0.86350  0.71300  0.39110  1.0000 0.1224442855
H   H17       1.0  0.94240  0.51670  0.68590  1.0000 0.1224442855
H   H18       1.0  0.05760  0.01670  0.81410  1.0000 0.1224442855
H   H19       1.0  0.05760  0.48330  0.31410  1.0000 0.1224442855
H   H20       1.0  0.94240  0.98330  0.18590  1.0000 0.1224442855
H   H21       1.0  0.82420  0.48590  0.26700  1.0000 0.1361959301
H   H22       1.0  0.17580  0.98590  0.23300  1.0000 0.1361959301
H   H23       1.0  0.17580  0.51410  0.73300  1.0000 0.1361959301
H   H24       1.0  0.82420  0.01410  0.76700  1.0000 0.1361959301
H   H25       1.0  0.53300  0.68300  0.60300  1.0000 0.3684042119
H   H26       1.0  0.46700  0.18300  0.89700  1.0000 0.3684042119
H   H27       1.0  0.46700  0.31700  0.39700  1.0000 0.3684042119
H   H28       1.0  0.53300  0.81700  0.10300  1.0000 0.3684042119
H   H29       1.0  0.41800  0.70400  0.54800  1.0000 0.385137523
H   H30       1.0  0.58200  0.20400  0.95200  1.0000 0.385137523
H   H31       1.0  0.58200  0.29600  0.45200  1.0000 0.385137523
H   H32       1.0  0.41800  0.79600  0.04800  1.0000 0.385137523
C   C1        1.0  0.92360  0.65090  0.08770  1.0000 -0.0478966809
C   C2        1.0  0.07640  0.15090  0.41230  1.0000 -0.0478966809
C   C3        1.0  0.07640  0.34910  0.91230  1.0000 -0.0478966809
C   C4        1.0  0.92360  0.84910  0.58770  1.0000 -0.0478966809
C   C5        1.0  0.01650  0.61960  0.13380  1.0000 -0.1068619979
C   C6        1.0  0.98350  0.11960  0.36620  1.0000 -0.1068619979
C   C7        1.0  0.98350  0.38040  0.86620  1.0000 -0.1068619979
C   C8        1.0  0.01650  0.88040  0.63380  1.0000 -0.1068619979
C   C9        1.0  0.15680  0.62790  0.12900  1.0000 -0.0942691392
C   C10       1.0  0.84320  0.12790  0.37100  1.0000 -0.0942691392
C   C11       1.0  0.84320  0.37210  0.87100  1.0000 -0.0942691392
C   C12       1.0  0.15680  0.87210  0.62900  1.0000 -0.0942691392
C   C13       1.0  0.20500  0.66667  0.07520  1.0000 -0.0754753217
C   C14       1.0  0.79500  0.16660  0.42480  1.0000 -0.0754753217
C   C15       1.0  0.79500  0.33340  0.92480  1.0000 -0.0754753217
C   C16       1.0  0.20500  0.83340  0.57520  1.0000 -0.0754753217
C   C17       1.0  0.11160  0.69844  0.01580  1.0000 0.0415814033
C   C18       1.0  0.88840  0.19844  0.48420  1.0000 0.0415814033
C   C19       1.0  0.88840  0.30156  0.98420  1.0000 0.0415814033
C   C20       1.0  0.11160  0.80156  0.51580  1.0000 0.0415814033
C   C21       1.0  0.15500  0.73620  0.94000  1.0000 -0.0592552617
C   C22       1.0  0.84500  0.23620  0.56000  1.0000 -0.0592552617
C   C23       1.0  0.84500  0.26380  0.06000  1.0000 -0.0592552617
C   C24       1.0  0.15500  0.76380  0.44000  1.0000 -0.0592552617
C   C25       1.0  0.06300  0.76690  0.89260  1.0000 -0.1002948727
C   C26       1.0  0.93700  0.26690  0.60740  1.0000 -0.1002948727
C   C27       1.0  0.93700  0.23310  0.10740  1.0000 -0.1002948727
C   C28       1.0  0.06300  0.73310  0.39260  1.0000 -0.1002948727
C   C29       1.0  0.92490  0.76390  0.92060  1.0000 -0.1175927981
C   C30       1.0  0.07510  0.26390  0.57940  1.0000 -0.1175927981
C   C31       1.0  0.07510  0.23610  0.07940  1.0000 -0.1175927981
C   C32       1.0  0.92490  0.73610  0.42060  1.0000 -0.1175927981
C   C33       1.0  0.87770  0.72832  0.98960  1.0000 -0.0592552617
C   C34       1.0  0.12230  0.22832  0.51040  1.0000 -0.0592552617
C   C35       1.0  0.12230  0.27168  0.01040  1.0000 -0.0592552617
C   C36       1.0  0.87770  0.77168  0.48960  1.0000 -0.0592552617
C   C37       1.0  0.96810  0.69284  0.03260  1.0000 0.0415814033
C   C38       1.0  0.03190  0.19284  0.46740  1.0000 0.0415814033
C   C39       1.0  0.03190  0.30716  0.96740  1.0000 0.0415814033
C   C40       1.0  0.96810  0.80716  0.53260  1.0000 0.0415814033
C   C41       1.0  0.78070  0.63416  0.08000  1.0000 0.5848744758
C   C42       1.0  0.21930  0.13416  0.42000  1.0000 0.5848744758
C   C43       1.0  0.21930  0.36584  0.92000  1.0000 0.5848744758
C   C44       1.0  0.78070  0.86584  0.58000  1.0000 0.5848744758
C   C45       1.0  0.35210  0.67750  0.09830  1.0000 0.6770397224
C   C46       1.0  0.64790  0.17750  0.40170  1.0000 0.6770397224
C   C47       1.0  0.64790  0.32250  0.90170  1.0000 0.6770397224
C   C48       1.0  0.35210  0.82250  0.59830  1.0000 0.6770397224
C   C49       1.0  0.29580  0.73850  0.89400  1.0000 0.5933310785
C   C50       1.0  0.70420  0.23850  0.60600  1.0000 0.5933310785
C   C51       1.0  0.70420  0.26150  0.10600  1.0000 0.5933310785
C   C52       1.0  0.29580  0.76150  0.39400  1.0000 0.5933310785
C   C53       1.0  0.73180  0.73257  0.03030  1.0000 0.6676434376
C   C54       1.0  0.26820  0.23257  0.46970  1.0000 0.6676434376
C   C55       1.0  0.26820  0.26743  0.96970  1.0000 0.6676434376
C   C56       1.0  0.73180  0.76743  0.53030  1.0000 0.6676434376
C   C57       1.0  0.97380  0.51340  0.76960  1.0000 -0.1175927981
C   C58       1.0  0.02620  0.01340  0.73040  1.0000 -0.1175927981
C   C59       1.0  0.02620  0.48660  0.23040  1.0000 -0.1175927981
C   C60       1.0  0.97380  0.98660  0.26960  1.0000 -0.1175927981
C   C61       1.0  0.88180  0.51060  0.85980  1.0000 -0.0592552617
C   C62       1.0  0.11820  0.01060  0.64020  1.0000 -0.0592552617
C   C63       1.0  0.11820  0.48940  0.14020  1.0000 -0.0592552617
C   C64       1.0  0.88180  0.98940  0.35980  1.0000 -0.0592552617
C   C65       1.0  0.73650  0.52300  0.82690  1.0000 0.6319279023
C   C66       1.0  0.26350  0.02300  0.67310  1.0000 0.6319279023
C   C67       1.0  0.26350  0.47700  0.17310  1.0000 0.6319279023
C   C68       1.0  0.73650  0.97700  0.32690  1.0000 0.6319279023
C   C69       1.0  0.92860  0.50122  0.98600  1.0000 0.0415814033
C   C70       1.0  0.07140  0.00122  0.51400  1.0000 0.0415814033
C   C71       1.0  0.07140  0.49878  0.01400  1.0000 0.0415814033
C   C72       1.0  0.92860  0.99878  0.48600  1.0000 0.0415814033
C   C73       1.0  0.83850  0.49360  0.08300  1.0000 -0.0592552617
C   C74       1.0  0.16150  0.99360  0.41700  1.0000 -0.0592552617
C   C75       1.0  0.16150  0.50640  0.91700  1.0000 -0.0592552617
C   C76       1.0  0.83850  0.00640  0.58300  1.0000 -0.0592552617
C   C77       1.0  0.68880  0.48540  0.05900  1.0000 0.6363124498
C   C78       1.0  0.31120  0.98540  0.44100  1.0000 0.6363124498
C   C79       1.0  0.31120  0.51460  0.94100  1.0000 0.6363124498
C   C80       1.0  0.68880  0.01460  0.55900  1.0000 0.6363124498
C   C81       1.0  0.88640  0.48840  0.20240  1.0000 -0.1068619979
C   C82       1.0  0.11360  0.98840  0.29760  1.0000 -0.1068619979
C   C83       1.0  0.11360  0.51160  0.79760  1.0000 -0.1068619979
C   C84       1.0  0.88640  0.01160  0.70240  1.0000 -0.1068619979
O   O1        1.0  0.73560  0.60936  0.16650  1.0000 -0.6506290562
O   O2        1.0  0.26440  0.10936  0.33350  1.0000 -0.6506290562
O   O3        1.0  0.26440  0.39064  0.83350  1.0000 -0.6506290562
O   O4        1.0  0.73560  0.89064  0.66650  1.0000 -0.6506290562
O   O5        1.0  0.70700  0.64149  0.98480  1.0000 -0.5986682079
O   O6        1.0  0.29300  0.14149  0.51520  1.0000 -0.5986682079
O   O7        1.0  0.29300  0.35851  0.01520  1.0000 -0.5986682079
O   O8        1.0  0.70700  0.85851  0.48480  1.0000 -0.5986682079
O   O9        1.0  0.43660  0.64587  0.09610  1.0000 -0.6782745473
O   O10       1.0  0.56340  0.14587  0.40390  1.0000 -0.6782745473
O   O11       1.0  0.56340  0.35413  0.90390  1.0000 -0.6782745473
O   O12       1.0  0.43660  0.85413  0.59610  1.0000 -0.6782745473
O   O13       1.0  0.38270  0.71818  0.12880  1.0000 -0.6620036984
O   O14       1.0  0.61730  0.21818  0.37120  1.0000 -0.6620036984
O   O15       1.0  0.61730  0.28182  0.87120  1.0000 -0.6662675492
O   O16       1.0  0.38270  0.78182  0.62880  1.0000 -0.6620036984
O   O17       1.0  0.35340  0.70327  0.85240  1.0000 -0.5986682079
O   O18       1.0  0.64660  0.20327  0.64760  1.0000 -0.5986682079
O   O19       1.0  0.64660  0.29673  0.14760  1.0000 -0.5986682079
O   O20       1.0  0.35340  0.79673  0.35240  1.0000 -0.5986682079
O   O21       1.0  0.35380  0.77765  0.88740  1.0000 -0.6506290562
O   O22       1.0  0.64620  0.27765  0.61260  1.0000 -0.6506290562
O   O23       1.0  0.64620  0.22235  0.11260  1.0000 -0.6506290562
O   O24       1.0  0.35380  0.72235  0.38740  1.0000 -0.6506290562
O   O25       1.0  0.71180  0.72704  0.14220  1.0000 -0.6662675492
O   O26       1.0  0.28820  0.22704  0.35780  1.0000 -0.6662675492
O   O27       1.0  0.28820  0.27296  0.85780  1.0000 -0.6662675492
O   O28       1.0  0.71180  0.77296  0.64220  1.0000 -0.6662675492
O   O29       1.0  0.64250  0.74466  0.95080  1.0000 -0.7318191282
O   O30       1.0  0.35750  0.24466  0.54920  1.0000 -0.7318191282
O   O31       1.0  0.35750  0.25534  0.04920  1.0000 -0.7318191282
O   O32       1.0  0.64250  0.75534  0.45080  1.0000 -0.7318191282
O   O33       1.0  0.68450  0.50900  0.72500  1.0000 -0.4896483101
O   O34       1.0  0.31550  0.00900  0.77500  1.0000 -0.4896483101
O   O35       1.0  0.31550  0.49100  0.27500  1.0000 -0.4896483101
O   O36       1.0  0.68450  0.99100  0.22500  1.0000 -0.4896483101
O   O37       1.0  0.67790  0.54984  0.89840  1.0000 -0.692281147
O   O38       1.0  0.32210  0.04984  0.60160  1.0000 -0.692281147
O   O39       1.0  0.32210  0.45016  0.10160  1.0000 -0.692281147
O   O40       1.0  0.67790  0.95016  0.39840  1.0000 -0.692281147
O   O41       1.0  0.66000  0.45373  0.98480  1.0000 -0.6620036984
O   O42       1.0  0.34000  0.95373  0.51520  1.0000 -0.6620036984
O   O43       1.0  0.34000  0.54627  0.01520  1.0000 -0.6620036984
O   O44       1.0  0.66000  0.04627  0.48480  1.0000 -0.6620036984
O   O45       1.0  0.60500  0.50910  0.11610  1.0000 -0.6620036984
O   O46       1.0  0.39500  0.00910  0.38390  1.0000 -0.6620036984
O   O47       1.0  0.39500  0.49090  0.88390  1.0000 -0.6620036984
O   O48       1.0  0.60500  0.99090  0.61610  1.0000 -0.6620036984
O   O49       1.0  0.45730  0.69468  0.61410  1.0000 -0.7486201875
O   O50       1.0  0.54270  0.19468  0.88590  1.0000 -0.7486201875
O   O51       1.0  0.54270  0.30532  0.38590  1.0000 -0.7486201875
O   O52       1.0  0.45730  0.80532  0.11410  1.0000 -0.7486201875
