# DDEC6 charges by PACMAN v1.1 (https://github.com/mtap-research/PACMAN-charge/)
data_2013[Mg][twt]3[ASR]1
_chemical_formula_sum              "Mg3 H24 C42 O18"
_cell_length_a       17.4446
_cell_length_b       17.4446
_cell_length_c       8.5897
_cell_angle_alpha    90
_cell_angle_beta     90
_cell_angle_gamma    120

_symmetry_space_group_name_H-M    "P 1"
_symmetry_Int_Tables_number       1

loop_
  _symmetry_equiv_pos_as_xyz
  'x, y, z'

loop_
  _atom_site_type_symbol
  _atom_site_label
  _atom_site_symmetry_multiplicity
  _atom_site_fract_x
  _atom_site_fract_y
  _atom_site_fract_z
  _atom_site_occupancy
  _atom_site_charge
Mg  Mg1       1.0  0.46484  0.46484  0.00000  1.0000 1.3280542707
Mg  Mg2       1.0  0.53516  0.00000  0.66667  1.0000 1.3280542707
Mg  Mg3       1.0  0.00000  0.53516  0.33333  1.0000 1.3280542707
H   H1        1.0  0.46280  0.69600  0.99170  1.0000 0.1470107402
H   H2        1.0  0.30400  0.76680  0.65837  1.0000 0.1470107402
H   H3        1.0  0.23320  0.53720  0.32503  1.0000 0.1470107402
H   H4        1.0  0.76680  0.30400  0.34163  1.0000 0.1470107402
H   H5        1.0  0.53720  0.23320  0.67497  1.0000 0.1470107402
H   H6        1.0  0.69600  0.46280  0.00830  1.0000 0.1470107402
H   H7        1.0  0.75700  0.79930  0.86590  1.0000 0.1172800129
H   H8        1.0  0.20070  0.95770  0.53257  1.0000 0.1172800129
H   H9        1.0  0.04230  0.24300  0.19923  1.0000 0.1172800129
H   H10       1.0  0.95770  0.20070  0.46743  1.0000 0.1172800129
H   H11       1.0  0.24300  0.04230  0.80077  1.0000 0.1172800129
H   H12       1.0  0.79930  0.75700  0.13410  1.0000 0.1172800129
H   H13       1.0  0.68970  0.87890  0.79020  1.0000 0.1365212168
H   H14       1.0  0.12110  0.81080  0.45687  1.0000 0.1365212168
H   H15       1.0  0.18920  0.31030  0.12353  1.0000 0.1365212168
H   H16       1.0  0.81080  0.12110  0.54313  1.0000 0.1365212168
H   H17       1.0  0.31030  0.18920  0.87647  1.0000 0.1365212168
H   H18       1.0  0.87890  0.68970  0.20980  1.0000 0.1365212168
H   H19       1.0  0.45400  0.58200  0.13200  1.0000 0.3446243222
H   H20       1.0  0.41800  0.87200  0.79867  1.0000 0.3446243222
H   H21       1.0  0.12800  0.54600  0.46533  1.0000 0.3446243222
H   H22       1.0  0.87200  0.41800  0.20133  1.0000 0.3446243222
H   H23       1.0  0.54600  0.12800  0.53467  1.0000 0.3446243222
H   H24       1.0  0.58200  0.45400  0.86800  1.0000 0.3446243222
C   C1        1.0  0.56297  0.66951  0.01300  1.0000 0.2983582234
C   C2        1.0  0.33049  0.89346  0.67967  1.0000 0.2983582234
C   C3        1.0  0.10654  0.43703  0.34633  1.0000 0.2983582234
C   C4        1.0  0.89346  0.33049  0.32033  1.0000 0.2983582234
C   C5        1.0  0.43703  0.10654  0.65367  1.0000 0.2983582234
C   C6        1.0  0.66951  0.56297  0.98700  1.0000 0.2983582234
C   C7        1.0  0.52301  0.71689  0.96570  1.0000 -0.2153554369
C   C8        1.0  0.28311  0.80612  0.63237  1.0000 -0.2153554369
C   C9        1.0  0.19388  0.47699  0.29903  1.0000 -0.2153554369
C   C10       1.0  0.80612  0.28311  0.36763  1.0000 -0.2153554369
C   C11       1.0  0.47699  0.19388  0.70097  1.0000 -0.2153554369
C   C12       1.0  0.71689  0.52301  0.03430  1.0000 -0.2153554369
C   C13       1.0  0.52509  0.84460  0.83050  1.0000 0.6014568622
C   C14       1.0  0.15540  0.68049  0.49717  1.0000 0.6014568622
C   C15       1.0  0.31951  0.47491  0.16383  1.0000 0.6014568622
C   C16       1.0  0.68049  0.15540  0.50283  1.0000 0.6014568622
C   C17       1.0  0.47491  0.31951  0.83617  1.0000 0.6014568622
C   C18       1.0  0.84460  0.52509  0.16950  1.0000 0.6014568622
C   C19       1.0  0.56980  0.79476  0.88060  1.0000 -0.0275716965
C   C20       1.0  0.20524  0.77504  0.54727  1.0000 -0.0275716965
C   C21       1.0  0.22496  0.43020  0.21393  1.0000 -0.0275716965
C   C22       1.0  0.77504  0.20524  0.45273  1.0000 -0.0275716965
C   C23       1.0  0.43020  0.22496  0.78607  1.0000 -0.0275716965
C   C24       1.0  0.79476  0.56980  0.11940  1.0000 -0.0275716965
C   C25       1.0  0.65220  0.69870  0.97600  1.0000 -0.0020657117
C   C26       1.0  0.30130  0.95350  0.64267  1.0000 -0.0020657117
C   C27       1.0  0.04650  0.34780  0.30933  1.0000 -0.0020657117
C   C28       1.0  0.95350  0.30130  0.35733  1.0000 -0.0020657117
C   C29       1.0  0.34780  0.04650  0.69067  1.0000 -0.0020657117
C   C30       1.0  0.69870  0.65220  0.02400  1.0000 -0.0020657117
C   C31       1.0  0.69670  0.77740  0.89230  1.0000 -0.1482512886
C   C32       1.0  0.22260  0.91930  0.55897  1.0000 -0.1482512886
C   C33       1.0  0.08070  0.30330  0.22563  1.0000 -0.1482512886
C   C34       1.0  0.91930  0.22260  0.44103  1.0000 -0.1482512886
C   C35       1.0  0.30330  0.08070  0.77437  1.0000 -0.1482512886
C   C36       1.0  0.77740  0.69670  0.10770  1.0000 -0.1482512886
C   C37       1.0  0.65660  0.82510  0.84600  1.0000 -0.116964294
C   C38       1.0  0.17490  0.83150  0.51267  1.0000 -0.116964294
C   C39       1.0  0.16850  0.34340  0.17933  1.0000 -0.116964294
C   C40       1.0  0.83150  0.17490  0.48733  1.0000 -0.116964294
C   C41       1.0  0.34340  0.16850  0.82067  1.0000 -0.116964294
C   C42       1.0  0.82510  0.65660  0.15400  1.0000 -0.116964294
O   O1        1.0  0.51598  0.59260  0.09790  1.0000 -0.6058479929
O   O2        1.0  0.40740  0.92338  0.76457  1.0000 -0.6058479929
O   O3        1.0  0.07662  0.48402  0.43123  1.0000 -0.6058479929
O   O4        1.0  0.92338  0.40740  0.23543  1.0000 -0.6058479929
O   O5        1.0  0.48402  0.07662  0.56877  1.0000 -0.6058479929
O   O6        1.0  0.59260  0.51598  0.90210  1.0000 -0.6058479929
O   O7        1.0  0.57019  0.91569  0.75920  1.0000 -0.6545505508
O   O8        1.0  0.08431  0.65450  0.42587  1.0000 -0.6545505508
O   O9        1.0  0.34550  0.42981  0.09253  1.0000 -0.6545505508
O   O10       1.0  0.65450  0.08431  0.57413  1.0000 -0.6545505508
O   O11       1.0  0.42981  0.34550  0.90747  1.0000 -0.6545505508
O   O12       1.0  0.91569  0.57019  0.24080  1.0000 -0.6545505508
O   O13       1.0  0.44304  0.81149  0.86220  1.0000 -0.5386715417
O   O14       1.0  0.18851  0.63155  0.52887  1.0000 -0.5386715417
O   O15       1.0  0.36845  0.55696  0.19553  1.0000 -0.5386715417
O   O16       1.0  0.63155  0.18851  0.47113  1.0000 -0.5386715417
O   O17       1.0  0.55696  0.36845  0.80447  1.0000 -0.5386715417
O   O18       1.0  0.81149  0.44304  0.13780  1.0000 -0.5386715417
