# DDEC6 charges by PACMAN v1.1 (https://github.com/mtap-research/PACMAN-charge/)
data_2013[Co][cdl]3[ASR]1
_chemical_formula_sum              "Co8 H224 C296 N64 O32"
_cell_length_a       29.641
_cell_length_b       11.9922
_cell_length_c       25.453
_cell_angle_alpha    90
_cell_angle_beta     118.613
_cell_angle_gamma    90

_symmetry_space_group_name_H-M    "P 1"
_symmetry_Int_Tables_number       1

loop_
  _symmetry_equiv_pos_as_xyz
  'x, y, z'

loop_
  _atom_site_type_symbol
  _atom_site_label
  _atom_site_symmetry_multiplicity
  _atom_site_fract_x
  _atom_site_fract_y
  _atom_site_fract_z
  _atom_site_occupancy
  _atom_site_charge
Co  Co1       1.0  0.24540  0.96548  0.96278  1.0000 0.5644788569
Co  Co2       1.0  0.75460  0.03452  0.03722  1.0000 0.5682825274
Co  Co3       1.0  0.75460  0.96548  0.53722  1.0000 0.5682825274
Co  Co4       1.0  0.24540  0.03452  0.46278  1.0000 0.5682825274
Co  Co5       1.0  0.74540  0.46548  0.96278  1.0000 0.5682825274
Co  Co6       1.0  0.25460  0.53452  0.03722  1.0000 0.5682825274
Co  Co7       1.0  0.25460  0.46548  0.53722  1.0000 0.5682825274
Co  Co8       1.0  0.74540  0.53452  0.46278  1.0000 0.5682825274
H   H1        1.0  0.32618  0.96977  0.10574  1.0000 0.10144686
H   H2        1.0  0.67382  0.03023  0.89426  1.0000 0.10144686
H   H3        1.0  0.67382  0.96977  0.39426  1.0000 0.10144686
H   H4        1.0  0.32618  0.03023  0.60574  1.0000 0.10144686
H   H5        1.0  0.82618  0.46977  0.10574  1.0000 0.10144686
H   H6        1.0  0.17382  0.53023  0.89426  1.0000 0.10144686
H   H7        1.0  0.17382  0.46977  0.39426  1.0000 0.10144686
H   H8        1.0  0.82618  0.53023  0.60574  1.0000 0.10144686
H   H9        1.0  0.16897  0.06059  0.01158  1.0000 0.10144686
H   H10       1.0  0.83103  0.93941  0.98842  1.0000 0.10144686
H   H11       1.0  0.83103  0.06059  0.48842  1.0000 0.10144686
H   H12       1.0  0.16897  0.93941  0.51158  1.0000 0.10144686
H   H13       1.0  0.66897  0.56059  0.01158  1.0000 0.10144686
H   H14       1.0  0.33103  0.43941  0.98842  1.0000 0.10144686
H   H15       1.0  0.33103  0.56059  0.48842  1.0000 0.10144686
H   H16       1.0  0.66897  0.43941  0.51158  1.0000 0.10144686
H   H17       1.0  0.20188  0.07544  0.13321  1.0000 0.1113720767
H   H18       1.0  0.79812  0.92456  0.86679  1.0000 0.1113720767
H   H19       1.0  0.79812  0.07544  0.36679  1.0000 0.1113720767
H   H20       1.0  0.20188  0.92456  0.63321  1.0000 0.1113720767
H   H21       1.0  0.70188  0.57544  0.13321  1.0000 0.1113720767
H   H22       1.0  0.29812  0.42456  0.86679  1.0000 0.1113720767
H   H23       1.0  0.29812  0.57544  0.36679  1.0000 0.1113720767
H   H24       1.0  0.70188  0.42456  0.63321  1.0000 0.1113720767
H   H25       1.0  0.37587  0.07271  0.19781  1.0000 0.10144686
H   H26       1.0  0.62413  0.92729  0.80219  1.0000 0.10144686
H   H27       1.0  0.62413  0.07271  0.30219  1.0000 0.10144686
H   H28       1.0  0.37587  0.92729  0.69781  1.0000 0.10144686
H   H29       1.0  0.87587  0.57271  0.19781  1.0000 0.10144686
H   H30       1.0  0.12413  0.42729  0.80219  1.0000 0.10144686
H   H31       1.0  0.12413  0.57271  0.30219  1.0000 0.10144686
H   H32       1.0  0.87587  0.42729  0.69781  1.0000 0.10144686
H   H33       1.0  0.43226  0.07212  0.30868  1.0000 0.1113720767
H   H34       1.0  0.56774  0.92788  0.69132  1.0000 0.1113720767
H   H35       1.0  0.56774  0.07212  0.19132  1.0000 0.1113720767
H   H36       1.0  0.43226  0.92788  0.80868  1.0000 0.1113720767
H   H37       1.0  0.93226  0.57212  0.30868  1.0000 0.1113720767
H   H38       1.0  0.06774  0.42788  0.69132  1.0000 0.1113720767
H   H39       1.0  0.06774  0.57212  0.19132  1.0000 0.1113720767
H   H40       1.0  0.93226  0.42788  0.80868  1.0000 0.1113720767
H   H41       1.0  0.30268  0.97483  0.33282  1.0000 0.1178548141
H   H42       1.0  0.69732  0.02517  0.66718  1.0000 0.1178548141
H   H43       1.0  0.69732  0.97483  0.16718  1.0000 0.1178548141
H   H44       1.0  0.30268  0.02517  0.83282  1.0000 0.1178548141
H   H45       1.0  0.80268  0.47483  0.33282  1.0000 0.1178548141
H   H46       1.0  0.19732  0.52517  0.66718  1.0000 0.1178548141
H   H47       1.0  0.19732  0.47483  0.16718  1.0000 0.1178548141
H   H48       1.0  0.80268  0.52517  0.83282  1.0000 0.1178548141
H   H49       1.0  0.24659  0.97347  0.22224  1.0000 0.10144686
H   H50       1.0  0.75341  0.02653  0.77776  1.0000 0.10144686
H   H51       1.0  0.75341  0.97347  0.27776  1.0000 0.10144686
H   H52       1.0  0.24659  0.02653  0.72224  1.0000 0.10144686
H   H53       1.0  0.74659  0.47347  0.22224  1.0000 0.10144686
H   H54       1.0  0.25341  0.52653  0.77776  1.0000 0.10144686
H   H55       1.0  0.25341  0.47347  0.27776  1.0000 0.10144686
H   H56       1.0  0.74659  0.52653  0.72224  1.0000 0.10144686
H   H57       1.0  0.46774  0.87708  0.40556  1.0000 0.1178548141
H   H58       1.0  0.53226  0.12292  0.59444  1.0000 0.1178548141
H   H59       1.0  0.53226  0.87708  0.09444  1.0000 0.1178548141
H   H60       1.0  0.46774  0.12292  0.90556  1.0000 0.1178548141
H   H61       1.0  0.96774  0.37708  0.40556  1.0000 0.1178548141
H   H62       1.0  0.03226  0.62292  0.59444  1.0000 0.1178548141
H   H63       1.0  0.03226  0.37708  0.09444  1.0000 0.1178548141
H   H64       1.0  0.96774  0.62292  0.90556  1.0000 0.1178548141
H   H65       1.0  0.56339  0.90605  0.45656  1.0000 0.1178548141
H   H66       1.0  0.43661  0.09395  0.54344  1.0000 0.1178548141
H   H67       1.0  0.43661  0.90605  0.04344  1.0000 0.1178548141
H   H68       1.0  0.56339  0.09395  0.95656  1.0000 0.1178548141
H   H69       1.0  0.06339  0.40605  0.45656  1.0000 0.1178548141
H   H70       1.0  0.93661  0.59395  0.54344  1.0000 0.1178548141
H   H71       1.0  0.93661  0.40605  0.04344  1.0000 0.1178548141
H   H72       1.0  0.06339  0.59395  0.95656  1.0000 0.1178548141
H   H73       1.0  0.54090  0.25886  0.47420  1.0000 0.1113720767
H   H74       1.0  0.45910  0.74114  0.52580  1.0000 0.1113720767
H   H75       1.0  0.45910  0.25886  0.02580  1.0000 0.1113720767
H   H76       1.0  0.54090  0.74114  0.97420  1.0000 0.1113720767
H   H77       1.0  0.04090  0.75886  0.47420  1.0000 0.1113720767
H   H78       1.0  0.95910  0.24114  0.52580  1.0000 0.1113720767
H   H79       1.0  0.95910  0.75886  0.02580  1.0000 0.1113720767
H   H80       1.0  0.04090  0.24114  0.97420  1.0000 0.1113720767
H   H81       1.0  0.44534  0.22773  0.42560  1.0000 0.1178548141
H   H82       1.0  0.55466  0.77227  0.57440  1.0000 0.1178548141
H   H83       1.0  0.55466  0.22773  0.07440  1.0000 0.1178548141
H   H84       1.0  0.44534  0.77227  0.92560  1.0000 0.1178548141
H   H85       1.0  0.94534  0.72773  0.42560  1.0000 0.1178548141
H   H86       1.0  0.05466  0.27227  0.57440  1.0000 0.1178548141
H   H87       1.0  0.05466  0.72773  0.07440  1.0000 0.1178548141
H   H88       1.0  0.94534  0.27227  0.92560  1.0000 0.1178548141
H   H89       1.0  0.63558  0.96399  0.45898  1.0000 0.10144686
H   H90       1.0  0.36442  0.03601  0.54102  1.0000 0.10144686
H   H91       1.0  0.36442  0.96399  0.04102  1.0000 0.10144686
H   H92       1.0  0.63558  0.03601  0.95898  1.0000 0.10144686
H   H93       1.0  0.13558  0.46399  0.45898  1.0000 0.10144686
H   H94       1.0  0.86442  0.53601  0.54102  1.0000 0.10144686
H   H95       1.0  0.86442  0.46399  0.04102  1.0000 0.10144686
H   H96       1.0  0.13558  0.53601  0.95898  1.0000 0.10144686
H   H97       1.0  0.72588  0.19689  0.59328  1.0000 0.10144686
H   H98       1.0  0.27412  0.80311  0.40672  1.0000 0.10144686
H   H99       1.0  0.27412  0.19689  0.90672  1.0000 0.10144686
H   H100      1.0  0.72588  0.80311  0.09328  1.0000 0.10144686
H   H101      1.0  0.22588  0.69689  0.59328  1.0000 0.10144686
H   H102      1.0  0.77412  0.30311  0.40672  1.0000 0.10144686
H   H103      1.0  0.77412  0.69689  0.90672  1.0000 0.10144686
H   H104      1.0  0.22588  0.30311  0.09328  1.0000 0.10144686
H   H105      1.0  0.62366  0.23623  0.55947  1.0000 0.1113720767
H   H106      1.0  0.37634  0.76377  0.44053  1.0000 0.1113720767
H   H107      1.0  0.37634  0.23623  0.94053  1.0000 0.1113720767
H   H108      1.0  0.62366  0.76377  0.05947  1.0000 0.1113720767
H   H109      1.0  0.12366  0.73623  0.55947  1.0000 0.1113720767
H   H110      1.0  0.87634  0.26377  0.44053  1.0000 0.1113720767
H   H111      1.0  0.87634  0.73623  0.94053  1.0000 0.1113720767
H   H112      1.0  0.12366  0.26377  0.05947  1.0000 0.1113720767
H   H113      1.0  0.31968  0.84200  0.92102  1.0000 0.10144686
H   H114      1.0  0.68032  0.15800  0.07898  1.0000 0.10144686
H   H115      1.0  0.68032  0.84200  0.57898  1.0000 0.10144686
H   H116      1.0  0.31968  0.15800  0.42102  1.0000 0.10144686
H   H117      1.0  0.81968  0.34200  0.92102  1.0000 0.10144686
H   H118      1.0  0.18032  0.65800  0.07898  1.0000 0.10144686
H   H119      1.0  0.18032  0.34200  0.57898  1.0000 0.10144686
H   H120      1.0  0.81968  0.65800  0.42102  1.0000 0.10144686
H   H121      1.0  0.16053  0.91380  0.82082  1.0000 0.1113720767
H   H122      1.0  0.83947  0.08620  0.17918  1.0000 0.1113720767
H   H123      1.0  0.83947  0.91380  0.67918  1.0000 0.1113720767
H   H124      1.0  0.16053  0.08620  0.32082  1.0000 0.1113720767
H   H125      1.0  0.66053  0.41380  0.82082  1.0000 0.1113720767
H   H126      1.0  0.33947  0.58620  0.17918  1.0000 0.1113720767
H   H127      1.0  0.33947  0.41380  0.67918  1.0000 0.1113720767
H   H128      1.0  0.66053  0.58620  0.32082  1.0000 0.1113720767
H   H129      1.0  0.18705  0.77525  0.75354  1.0000 0.1178548141
H   H130      1.0  0.81295  0.22475  0.24646  1.0000 0.1178548141
H   H131      1.0  0.81295  0.77525  0.74646  1.0000 0.1178548141
H   H132      1.0  0.18705  0.22475  0.25354  1.0000 0.1178548141
H   H133      1.0  0.68705  0.27525  0.75354  1.0000 0.1178548141
H   H134      1.0  0.31295  0.72475  0.24646  1.0000 0.1178548141
H   H135      1.0  0.31295  0.27525  0.74646  1.0000 0.1178548141
H   H136      1.0  0.68705  0.72475  0.25354  1.0000 0.1178548141
H   H137      1.0  0.24643  0.76564  0.71818  1.0000 0.10144686
H   H138      1.0  0.75357  0.23436  0.28182  1.0000 0.10144686
H   H139      1.0  0.75357  0.76564  0.78182  1.0000 0.10144686
H   H140      1.0  0.24643  0.23436  0.21818  1.0000 0.10144686
H   H141      1.0  0.74643  0.26564  0.71818  1.0000 0.10144686
H   H142      1.0  0.25357  0.73436  0.28182  1.0000 0.10144686
H   H143      1.0  0.25357  0.26564  0.78182  1.0000 0.10144686
H   H144      1.0  0.74643  0.73436  0.21818  1.0000 0.10144686
H   H145      1.0  0.30166  0.66019  0.68554  1.0000 0.1178548141
H   H146      1.0  0.69834  0.33981  0.31446  1.0000 0.1178548141
H   H147      1.0  0.69834  0.66019  0.81446  1.0000 0.1178548141
H   H148      1.0  0.30166  0.33981  0.18554  1.0000 0.1178548141
H   H149      1.0  0.80166  0.16019  0.68554  1.0000 0.1178548141
H   H150      1.0  0.19834  0.83981  0.31446  1.0000 0.1178548141
H   H151      1.0  0.19834  0.16019  0.81446  1.0000 0.1178548141
H   H152      1.0  0.80166  0.83981  0.18554  1.0000 0.1178548141
H   H153      1.0  0.40700  0.58027  0.87002  1.0000 0.1113720767
H   H154      1.0  0.59300  0.41973  0.12998  1.0000 0.1113720767
H   H155      1.0  0.59300  0.58027  0.62998  1.0000 0.1113720767
H   H156      1.0  0.40700  0.41973  0.37002  1.0000 0.1113720767
H   H157      1.0  0.90700  0.08027  0.87002  1.0000 0.1113720767
H   H158      1.0  0.09300  0.91973  0.12998  1.0000 0.1113720767
H   H159      1.0  0.09300  0.08027  0.62998  1.0000 0.1113720767
H   H160      1.0  0.90700  0.91973  0.37002  1.0000 0.1113720767
H   H161      1.0  0.34913  0.67520  0.90263  1.0000 0.1113720767
H   H162      1.0  0.65087  0.32480  0.09737  1.0000 0.1113720767
H   H163      1.0  0.65087  0.67520  0.59737  1.0000 0.1113720767
H   H164      1.0  0.34913  0.32480  0.40263  1.0000 0.1113720767
H   H165      1.0  0.84913  0.17520  0.90263  1.0000 0.1113720767
H   H166      1.0  0.15087  0.82480  0.09737  1.0000 0.1113720767
H   H167      1.0  0.15087  0.17520  0.59737  1.0000 0.1113720767
H   H168      1.0  0.84913  0.82480  0.40263  1.0000 0.1113720767
H   H169      1.0  0.53057  0.77838  0.81826  1.0000 0.10144686
H   H170      1.0  0.46943  0.22162  0.18174  1.0000 0.10144686
H   H171      1.0  0.46943  0.77838  0.68174  1.0000 0.10144686
H   H172      1.0  0.53057  0.22162  0.31826  1.0000 0.10144686
H   H173      1.0  0.03057  0.27838  0.81826  1.0000 0.10144686
H   H174      1.0  0.96943  0.72162  0.18174  1.0000 0.10144686
H   H175      1.0  0.96943  0.27838  0.68174  1.0000 0.10144686
H   H176      1.0  0.03057  0.72162  0.31826  1.0000 0.10144686
H   H177      1.0  0.43545  0.74926  0.76623  1.0000 0.1113720767
H   H178      1.0  0.56455  0.25074  0.23377  1.0000 0.1113720767
H   H179      1.0  0.56455  0.74926  0.73377  1.0000 0.1113720767
H   H180      1.0  0.43545  0.25074  0.26623  1.0000 0.1113720767
H   H181      1.0  0.93545  0.24926  0.76623  1.0000 0.1113720767
H   H182      1.0  0.06455  0.75074  0.23377  1.0000 0.1113720767
H   H183      1.0  0.06455  0.24926  0.73377  1.0000 0.1113720767
H   H184      1.0  0.93545  0.75074  0.26623  1.0000 0.1178548141
H   H185      1.0  0.62604  0.44590  0.88547  1.0000 0.1113720767
H   H186      1.0  0.37396  0.55410  0.11453  1.0000 0.1113720767
H   H187      1.0  0.37396  0.44590  0.61453  1.0000 0.1113720767
H   H188      1.0  0.62604  0.55410  0.38547  1.0000 0.1113720767
H   H189      1.0  0.12604  0.94590  0.88547  1.0000 0.1113720767
H   H190      1.0  0.87396  0.05410  0.11453  1.0000 0.1113720767
H   H191      1.0  0.87396  0.94590  0.61453  1.0000 0.1113720767
H   H192      1.0  0.12604  0.05410  0.38547  1.0000 0.1113720767
H   H193      1.0  0.71577  0.74047  0.93659  1.0000 0.1113720767
H   H194      1.0  0.28423  0.25953  0.06341  1.0000 0.1113720767
H   H195      1.0  0.28423  0.74047  0.56341  1.0000 0.1113720767
H   H196      1.0  0.71577  0.25953  0.43659  1.0000 0.1113720767
H   H197      1.0  0.21577  0.24047  0.93659  1.0000 0.1113720767
H   H198      1.0  0.78423  0.75953  0.06341  1.0000 0.1113720767
H   H199      1.0  0.78423  0.24047  0.56341  1.0000 0.1113720767
H   H200      1.0  0.21577  0.75953  0.43659  1.0000 0.1113720767
H   H201      1.0  0.61400  0.80078  0.88840  1.0000 0.1113720767
H   H202      1.0  0.38600  0.19922  0.11160  1.0000 0.1113720767
H   H203      1.0  0.38600  0.80078  0.61160  1.0000 0.1113720767
H   H204      1.0  0.61400  0.19922  0.38840  1.0000 0.1113720767
H   H205      1.0  0.11400  0.30078  0.88840  1.0000 0.1113720767
H   H206      1.0  0.88600  0.69922  0.11160  1.0000 0.1113720767
H   H207      1.0  0.88600  0.30078  0.61160  1.0000 0.1113720767
H   H208      1.0  0.11400  0.69922  0.38840  1.0000 0.1113720767
H   H209      1.0  0.45722  0.40500  0.82379  1.0000 0.1178548141
H   H210      1.0  0.54278  0.59500  0.17621  1.0000 0.1178548141
H   H211      1.0  0.54278  0.40500  0.67621  1.0000 0.1178548141
H   H212      1.0  0.45722  0.59500  0.32379  1.0000 0.1178548141
H   H213      1.0  0.95722  0.90500  0.82379  1.0000 0.1178548141
H   H214      1.0  0.04278  0.09500  0.17621  1.0000 0.1178548141
H   H215      1.0  0.04278  0.90500  0.67621  1.0000 0.1178548141
H   H216      1.0  0.95722  0.09500  0.32379  1.0000 0.1178548141
H   H217      1.0  0.55227  0.43361  0.87838  1.0000 0.1113720767
H   H218      1.0  0.44773  0.56639  0.12162  1.0000 0.1113720767
H   H219      1.0  0.44773  0.43361  0.62162  1.0000 0.1113720767
H   H220      1.0  0.55227  0.56639  0.37838  1.0000 0.1113720767
H   H221      1.0  0.05227  0.93361  0.87838  1.0000 0.1113720767
H   H222      1.0  0.94773  0.06639  0.12162  1.0000 0.1113720767
H   H223      1.0  0.94773  0.93361  0.62162  1.0000 0.1113720767
H   H224      1.0  0.05227  0.06639  0.37838  1.0000 0.1113720767
C   C1        1.0  0.28831  0.00006  0.09568  1.0000 0.0784369712
C   C2        1.0  0.71169  0.99994  0.90432  1.0000 0.0784369712
C   C3        1.0  0.71169  0.00006  0.40432  1.0000 0.0784369712
C   C4        1.0  0.28831  0.99994  0.59568  1.0000 0.0784369712
C   C5        1.0  0.78831  0.50006  0.09568  1.0000 0.0784369712
C   C6        1.0  0.21169  0.49994  0.90432  1.0000 0.0784369712
C   C7        1.0  0.21169  0.50006  0.40432  1.0000 0.0784369712
C   C8        1.0  0.78831  0.49994  0.59568  1.0000 0.0784369712
C   C9        1.0  0.20705  0.04479  0.04903  1.0000 -0.02750519
C   C10       1.0  0.79295  0.95521  0.95097  1.0000 -0.02750519
C   C11       1.0  0.79295  0.04479  0.45097  1.0000 -0.02750519
C   C12       1.0  0.20705  0.95521  0.54903  1.0000 -0.02750519
C   C13       1.0  0.70705  0.54479  0.04903  1.0000 -0.02750519
C   C14       1.0  0.29295  0.45521  0.95097  1.0000 -0.02750519
C   C15       1.0  0.29295  0.54479  0.45097  1.0000 -0.02750519
C   C16       1.0  0.70705  0.45521  0.54903  1.0000 -0.02750519
C   C17       1.0  0.22269  0.05292  0.10928  1.0000 -0.1205964187
C   C18       1.0  0.77731  0.94708  0.89072  1.0000 -0.1205964187
C   C19       1.0  0.77731  0.05292  0.39072  1.0000 -0.1205964187
C   C20       1.0  0.22269  0.94708  0.60928  1.0000 -0.1205964187
C   C21       1.0  0.72269  0.55292  0.10928  1.0000 -0.1205964187
C   C22       1.0  0.27731  0.44708  0.89072  1.0000 -0.1205964187
C   C23       1.0  0.27731  0.55292  0.39072  1.0000 -0.1205964187
C   C24       1.0  0.72269  0.44708  0.60928  1.0000 -0.1205964187
C   C25       1.0  0.30755  0.02241  0.20270  1.0000 0.1389095966
C   C26       1.0  0.69245  0.97759  0.79730  1.0000 0.1389095966
C   C27       1.0  0.69245  0.02241  0.29730  1.0000 0.1389095966
C   C28       1.0  0.30755  0.97759  0.70270  1.0000 0.1389095966
C   C29       1.0  0.80755  0.52241  0.20270  1.0000 0.1389095966
C   C30       1.0  0.19245  0.47759  0.79730  1.0000 0.1389095966
C   C31       1.0  0.19245  0.52241  0.29730  1.0000 0.1389095966
C   C32       1.0  0.80755  0.47759  0.70270  1.0000 0.1389095966
C   C33       1.0  0.35991  0.04887  0.22703  1.0000 -0.158671098
C   C34       1.0  0.64009  0.95113  0.77297  1.0000 -0.158671098
C   C35       1.0  0.64009  0.04887  0.27297  1.0000 -0.158671098
C   C36       1.0  0.35991  0.95113  0.72703  1.0000 -0.158671098
C   C37       1.0  0.85991  0.54887  0.22703  1.0000 -0.158671098
C   C38       1.0  0.14009  0.45113  0.77297  1.0000 -0.158671098
C   C39       1.0  0.14009  0.54887  0.27297  1.0000 -0.158671098
C   C40       1.0  0.85991  0.45113  0.72703  1.0000 -0.158671098
C   C41       1.0  0.39160  0.04983  0.28921  1.0000 -0.2097522174
C   C42       1.0  0.60840  0.95017  0.71079  1.0000 -0.2097522174
C   C43       1.0  0.60840  0.04983  0.21079  1.0000 -0.2097522174
C   C44       1.0  0.39160  0.95017  0.78921  1.0000 -0.2097522174
C   C45       1.0  0.89160  0.54983  0.28921  1.0000 -0.2097522174
C   C46       1.0  0.10840  0.45017  0.71079  1.0000 -0.2097522174
C   C47       1.0  0.10840  0.54983  0.21079  1.0000 -0.2097522174
C   C48       1.0  0.89160  0.45017  0.78921  1.0000 -0.2097522174
C   C49       1.0  0.37056  0.02527  0.32693  1.0000 0.2531579858
C   C50       1.0  0.62944  0.97473  0.67307  1.0000 0.2531579858
C   C51       1.0  0.62944  0.02527  0.17307  1.0000 0.2531579858
C   C52       1.0  0.37056  0.97473  0.82693  1.0000 0.2531579858
C   C53       1.0  0.87056  0.52527  0.32693  1.0000 0.2531579858
C   C54       1.0  0.12944  0.47473  0.67307  1.0000 0.2531579858
C   C55       1.0  0.12944  0.52527  0.17307  1.0000 0.2531579858
C   C56       1.0  0.87056  0.47473  0.82693  1.0000 0.2531579858
C   C57       1.0  0.31850  0.99571  0.30290  1.0000 -0.1875301079
C   C58       1.0  0.68150  0.00429  0.69710  1.0000 -0.1875301079
C   C59       1.0  0.68150  0.99571  0.19710  1.0000 -0.1875301079
C   C60       1.0  0.31850  0.00429  0.80290  1.0000 -0.1875301079
C   C61       1.0  0.81850  0.49571  0.30290  1.0000 -0.1875301079
C   C62       1.0  0.18150  0.50429  0.69710  1.0000 -0.1875301079
C   C63       1.0  0.18150  0.49571  0.19710  1.0000 -0.1875301079
C   C64       1.0  0.81850  0.50429  0.80290  1.0000 -0.1875301079
C   C65       1.0  0.28713  0.99574  0.24075  1.0000 -0.158671098
C   C66       1.0  0.71287  0.00426  0.75925  1.0000 -0.158671098
C   C67       1.0  0.71287  0.99574  0.25925  1.0000 -0.158671098
C   C68       1.0  0.28713  0.00426  0.74075  1.0000 -0.158671098
C   C69       1.0  0.78713  0.49574  0.24075  1.0000 -0.158671098
C   C70       1.0  0.21287  0.50426  0.75925  1.0000 -0.158671098
C   C71       1.0  0.21287  0.49574  0.25925  1.0000 -0.158671098
C   C72       1.0  0.78713  0.50426  0.74075  1.0000 -0.158671098
C   C73       1.0  0.45212  0.05086  0.41336  1.0000 0.2303499109
C   C74       1.0  0.54788  0.94914  0.58664  1.0000 0.2303499109
C   C75       1.0  0.54788  0.05086  0.08664  1.0000 0.2303499109
C   C76       1.0  0.45212  0.94914  0.91336  1.0000 0.2303499109
C   C77       1.0  0.95212  0.55086  0.41336  1.0000 0.2303499109
C   C78       1.0  0.04788  0.44914  0.58664  1.0000 0.2303499109
C   C79       1.0  0.04788  0.55086  0.08664  1.0000 0.2303499109
C   C80       1.0  0.95212  0.44914  0.91336  1.0000 0.2303499109
C   C81       1.0  0.48427  0.96044  0.42022  1.0000 -0.1835290366
C   C82       1.0  0.51573  0.03956  0.57978  1.0000 -0.1835290366
C   C83       1.0  0.51573  0.96044  0.07978  1.0000 -0.1835290366
C   C84       1.0  0.48427  0.03956  0.92022  1.0000 -0.1835290366
C   C85       1.0  0.98427  0.46044  0.42022  1.0000 -0.1835290366
C   C86       1.0  0.01573  0.53956  0.57978  1.0000 -0.1835290366
C   C87       1.0  0.01573  0.46044  0.07978  1.0000 -0.1835290366
C   C88       1.0  0.98427  0.53956  0.92022  1.0000 -0.1835290366
C   C89       1.0  0.53769  0.97691  0.44846  1.0000 -0.158671098
C   C90       1.0  0.46231  0.02309  0.55154  1.0000 -0.158671098
C   C91       1.0  0.46231  0.97691  0.05154  1.0000 -0.158671098
C   C92       1.0  0.53769  0.02309  0.94846  1.0000 -0.158671098
C   C93       1.0  0.03769  0.47691  0.44846  1.0000 -0.158671098
C   C94       1.0  0.96231  0.52309  0.55154  1.0000 -0.158671098
C   C95       1.0  0.96231  0.47691  0.05154  1.0000 -0.158671098
C   C96       1.0  0.03769  0.52309  0.94846  1.0000 -0.158671098
C   C97       1.0  0.55785  0.08406  0.46882  1.0000 0.1456353566
C   C98       1.0  0.44215  0.91594  0.53118  1.0000 0.1456353566
C   C99       1.0  0.44215  0.08406  0.03118  1.0000 0.1456353566
C   C100      1.0  0.55785  0.91594  0.96882  1.0000 0.1456353566
C   C101      1.0  0.05785  0.58406  0.46882  1.0000 0.1456353566
C   C102      1.0  0.94215  0.41594  0.53118  1.0000 0.1456353566
C   C103      1.0  0.94215  0.58406  0.03118  1.0000 0.1456353566
C   C104      1.0  0.05785  0.41594  0.96882  1.0000 0.1456353566
C   C105      1.0  0.52516  0.17482  0.46048  1.0000 -0.1676360309
C   C106      1.0  0.47484  0.82518  0.53952  1.0000 -0.1676360309
C   C107      1.0  0.47484  0.17482  0.03952  1.0000 -0.1676360309
C   C108      1.0  0.52516  0.82518  0.96048  1.0000 -0.1676360309
C   C109      1.0  0.02516  0.67482  0.46048  1.0000 -0.1676360309
C   C110      1.0  0.97484  0.32518  0.53952  1.0000 -0.1676360309
C   C111      1.0  0.97484  0.67482  0.03952  1.0000 -0.1676360309
C   C112      1.0  0.02516  0.32518  0.96048  1.0000 -0.1676360309
C   C113      1.0  0.47172  0.15824  0.43268  1.0000 -0.1875301079
C   C114      1.0  0.52828  0.84176  0.56732  1.0000 -0.1875301079
C   C115      1.0  0.52828  0.15824  0.06732  1.0000 -0.1875301079
C   C116      1.0  0.47172  0.84176  0.93268  1.0000 -0.1875301079
C   C117      1.0  0.97172  0.65824  0.43268  1.0000 -0.1875301079
C   C118      1.0  0.02828  0.34176  0.56732  1.0000 -0.1875301079
C   C119      1.0  0.02828  0.65824  0.06732  1.0000 -0.1875301079
C   C120      1.0  0.97172  0.34176  0.93268  1.0000 -0.1875301079
C   C121      1.0  0.64653  0.03441  0.48967  1.0000 0.06787941
C   C122      1.0  0.35347  0.96559  0.51033  1.0000 0.06787941
C   C123      1.0  0.35347  0.03441  0.01033  1.0000 0.06787941
C   C124      1.0  0.64653  0.96559  0.98967  1.0000 0.06787941
C   C125      1.0  0.14653  0.53441  0.48967  1.0000 0.06787941
C   C126      1.0  0.85347  0.46559  0.51033  1.0000 0.06787941
C   C127      1.0  0.85347  0.53441  0.01033  1.0000 0.06787941
C   C128      1.0  0.14653  0.46559  0.98967  1.0000 0.06787941
C   C129      1.0  0.69190  0.15435  0.55943  1.0000 -0.0388958412
C   C130      1.0  0.30810  0.84565  0.44057  1.0000 -0.0388958412
C   C131      1.0  0.30810  0.15435  0.94057  1.0000 -0.0388958412
C   C132      1.0  0.69190  0.84565  0.05943  1.0000 -0.0388958412
C   C133      1.0  0.19190  0.65435  0.55943  1.0000 -0.0388958412
C   C134      1.0  0.80810  0.34565  0.44057  1.0000 -0.0388958412
C   C135      1.0  0.80810  0.65435  0.94057  1.0000 -0.0388958412
C   C136      1.0  0.19190  0.34565  0.05943  1.0000 -0.0388958412
C   C137      1.0  0.64122  0.17593  0.54294  1.0000 -0.1105935066
C   C138      1.0  0.35878  0.82407  0.45706  1.0000 -0.1105935066
C   C139      1.0  0.35878  0.17593  0.95706  1.0000 -0.1105935066
C   C140      1.0  0.64122  0.82407  0.04294  1.0000 -0.1105935066
C   C141      1.0  0.14122  0.67593  0.54294  1.0000 -0.1105935066
C   C142      1.0  0.85878  0.32407  0.45706  1.0000 -0.1105935066
C   C143      1.0  0.85878  0.67593  0.95706  1.0000 -0.1105935066
C   C144      1.0  0.14122  0.32407  0.04294  1.0000 -0.1105935066
C   C145      1.0  0.27990  0.84242  0.88554  1.0000 0.10144686
C   C146      1.0  0.72010  0.15758  0.11446  1.0000 0.10144686
C   C147      1.0  0.72010  0.84242  0.61446  1.0000 0.10144686
C   C148      1.0  0.27990  0.15758  0.38554  1.0000 0.10144686
C   C149      1.0  0.77990  0.34242  0.88554  1.0000 0.10144686
C   C150      1.0  0.22010  0.65758  0.11446  1.0000 0.10144686
C   C151      1.0  0.22010  0.34242  0.61446  1.0000 0.10144686
C   C152      1.0  0.77990  0.65758  0.38554  1.0000 0.10144686
C   C153      1.0  0.19790  0.87779  0.83257  1.0000 -0.02750519
C   C154      1.0  0.80210  0.12221  0.16743  1.0000 -0.02750519
C   C155      1.0  0.80210  0.87779  0.66743  1.0000 -0.02750519
C   C156      1.0  0.19790  0.12221  0.33257  1.0000 -0.02750519
C   C157      1.0  0.69790  0.37779  0.83257  1.0000 -0.02750519
C   C158      1.0  0.30210  0.62221  0.16743  1.0000 -0.02750519
C   C159      1.0  0.30210  0.37779  0.66743  1.0000 -0.02750519
C   C160      1.0  0.69790  0.62221  0.33257  1.0000 -0.02750519
C   C161      1.0  0.21055  0.81117  0.79773  1.0000 -0.1105935066
C   C162      1.0  0.78945  0.18883  0.20227  1.0000 -0.1105935066
C   C163      1.0  0.78945  0.81117  0.70227  1.0000 -0.1105935066
C   C164      1.0  0.21055  0.18883  0.29773  1.0000 -0.1105935066
C   C165      1.0  0.71055  0.31117  0.79773  1.0000 -0.1105935066
C   C166      1.0  0.28945  0.68883  0.20227  1.0000 -0.1105935066
C   C167      1.0  0.28945  0.31117  0.70227  1.0000 -0.1105935066
C   C168      1.0  0.71055  0.68883  0.29773  1.0000 -0.1105935066
C   C169      1.0  0.29425  0.72820  0.81251  1.0000 0.1389095966
C   C170      1.0  0.70575  0.27180  0.18749  1.0000 0.1389095966
C   C171      1.0  0.70575  0.72820  0.68749  1.0000 0.1389095966
C   C172      1.0  0.29425  0.27180  0.31251  1.0000 0.1389095966
C   C173      1.0  0.79425  0.22820  0.81251  1.0000 0.1389095966
C   C174      1.0  0.20575  0.77180  0.18749  1.0000 0.1389095966
C   C175      1.0  0.20575  0.22820  0.68749  1.0000 0.1389095966
C   C176      1.0  0.79425  0.77180  0.31251  1.0000 0.1389095966
C   C177      1.0  0.28080  0.72269  0.75163  1.0000 -0.1533805454
C   C178      1.0  0.71920  0.27731  0.24837  1.0000 -0.1533805454
C   C179      1.0  0.71920  0.72269  0.74837  1.0000 -0.1533805454
C   C180      1.0  0.28080  0.27731  0.25163  1.0000 -0.1533805454
C   C181      1.0  0.78080  0.22269  0.75163  1.0000 -0.1533805454
C   C182      1.0  0.21920  0.77731  0.24837  1.0000 -0.1533805454
C   C183      1.0  0.21920  0.22269  0.74837  1.0000 -0.1533805454
C   C184      1.0  0.78080  0.77731  0.25163  1.0000 -0.1533805454
C   C185      1.0  0.31172  0.66470  0.73301  1.0000 -0.1875301079
C   C186      1.0  0.68828  0.33530  0.26699  1.0000 -0.1875301079
C   C187      1.0  0.68828  0.66470  0.76699  1.0000 -0.1875301079
C   C188      1.0  0.31172  0.33530  0.23301  1.0000 -0.1875301079
C   C189      1.0  0.81172  0.16470  0.73301  1.0000 -0.1875301079
C   C190      1.0  0.18828  0.83530  0.26699  1.0000 -0.1875301079
C   C191      1.0  0.18828  0.16470  0.76699  1.0000 -0.1875301079
C   C192      1.0  0.81172  0.83530  0.23301  1.0000 -0.1875301079
C   C193      1.0  0.35742  0.61517  0.77637  1.0000 0.2402670844
C   C194      1.0  0.64258  0.38483  0.22363  1.0000 0.2402670844
C   C195      1.0  0.64258  0.61517  0.72363  1.0000 0.2402670844
C   C196      1.0  0.35742  0.38483  0.27637  1.0000 0.2402670844
C   C197      1.0  0.85742  0.11517  0.77637  1.0000 0.2402670844
C   C198      1.0  0.14258  0.88483  0.22363  1.0000 0.2402670844
C   C199      1.0  0.14258  0.11517  0.72363  1.0000 0.2402670844
C   C200      1.0  0.85742  0.88483  0.27637  1.0000 0.2402670844
C   C201      1.0  0.37117  0.62027  0.83727  1.0000 -0.2097522174
C   C202      1.0  0.62883  0.37973  0.16273  1.0000 -0.2097522174
C   C203      1.0  0.62883  0.62027  0.66273  1.0000 -0.2097522174
C   C204      1.0  0.37117  0.37973  0.33727  1.0000 -0.2097522174
C   C205      1.0  0.87117  0.12027  0.83727  1.0000 -0.2097522174
C   C206      1.0  0.12883  0.87973  0.16273  1.0000 -0.2097522174
C   C207      1.0  0.12883  0.12027  0.66273  1.0000 -0.2097522174
C   C208      1.0  0.87117  0.87973  0.33727  1.0000 -0.2097522174
C   C209      1.0  0.33922  0.67494  0.85536  1.0000 -0.1676360309
C   C210      1.0  0.66078  0.32506  0.14464  1.0000 -0.1676360309
C   C211      1.0  0.66078  0.67494  0.64464  1.0000 -0.1676360309
C   C212      1.0  0.33922  0.32506  0.35536  1.0000 -0.1676360309
C   C213      1.0  0.83922  0.17494  0.85536  1.0000 -0.1676360309
C   C214      1.0  0.16078  0.82506  0.14464  1.0000 -0.1676360309
C   C215      1.0  0.16078  0.17494  0.64464  1.0000 -0.1676360309
C   C216      1.0  0.83922  0.82506  0.35536  1.0000 -0.1676360309
C   C217      1.0  0.44145  0.57603  0.79232  1.0000 0.2402670844
C   C218      1.0  0.55855  0.42397  0.20768  1.0000 0.2402670844
C   C219      1.0  0.55855  0.57603  0.70768  1.0000 0.2402670844
C   C220      1.0  0.44145  0.42397  0.29232  1.0000 0.2402670844
C   C221      1.0  0.94145  0.07603  0.79232  1.0000 0.2402670844
C   C222      1.0  0.05855  0.92397  0.20768  1.0000 0.2402670844
C   C223      1.0  0.05855  0.07603  0.70768  1.0000 0.2402670844
C   C224      1.0  0.94145  0.92397  0.29232  1.0000 0.2402670844
C   C225      1.0  0.54793  0.60807  0.85196  1.0000 0.1389095966
C   C226      1.0  0.45207  0.39193  0.14804  1.0000 0.1456353566
C   C227      1.0  0.45207  0.60807  0.64804  1.0000 0.1456353566
C   C228      1.0  0.54793  0.39193  0.35196  1.0000 0.1456353566
C   C229      1.0  0.04793  0.10807  0.85196  1.0000 0.1456353566
C   C230      1.0  0.95207  0.89193  0.14804  1.0000 0.1456353566
C   C231      1.0  0.95207  0.10807  0.64804  1.0000 0.1389095966
C   C232      1.0  0.04793  0.89193  0.35196  1.0000 0.1456353566
C   C233      1.0  0.51494  0.69751  0.82137  1.0000 -0.158671098
C   C234      1.0  0.48506  0.30249  0.17863  1.0000 -0.158671098
C   C235      1.0  0.48506  0.69751  0.67863  1.0000 -0.158671098
C   C236      1.0  0.51494  0.30249  0.32137  1.0000 -0.158671098
C   C237      1.0  0.01494  0.19751  0.82137  1.0000 -0.158671098
C   C238      1.0  0.98506  0.80249  0.17863  1.0000 -0.158671098
C   C239      1.0  0.98506  0.19751  0.67863  1.0000 -0.158671098
C   C240      1.0  0.01494  0.80249  0.32137  1.0000 -0.158671098
C   C241      1.0  0.46172  0.68175  0.79196  1.0000 -0.1875301079
C   C242      1.0  0.53828  0.31825  0.20804  1.0000 -0.1875301079
C   C243      1.0  0.53828  0.68175  0.70804  1.0000 -0.1875301079
C   C244      1.0  0.46172  0.31825  0.29196  1.0000 -0.1875301079
C   C245      1.0  0.96172  0.18175  0.79196  1.0000 -0.1875301079
C   C246      1.0  0.03828  0.81825  0.20804  1.0000 -0.1875301079
C   C247      1.0  0.03828  0.18175  0.70804  1.0000 -0.1875301079
C   C248      1.0  0.96172  0.81825  0.29196  1.0000 -0.1875301079
C   C249      1.0  0.63694  0.53345  0.89247  1.0000 0.0784369712
C   C250      1.0  0.36306  0.46655  0.10753  1.0000 0.0784369712
C   C251      1.0  0.36306  0.53345  0.60753  1.0000 0.0784369712
C   C252      1.0  0.63694  0.46655  0.39247  1.0000 0.0784369712
C   C253      1.0  0.13694  0.03345  0.89247  1.0000 0.0784369712
C   C254      1.0  0.86306  0.96655  0.10753  1.0000 0.0784369712
C   C255      1.0  0.86306  0.03345  0.60753  1.0000 0.0784369712
C   C256      1.0  0.13694  0.96655  0.39247  1.0000 0.0784369712
C   C257      1.0  0.68198  0.68682  0.91764  1.0000 -0.0388958412
C   C258      1.0  0.31802  0.31318  0.08236  1.0000 -0.0388958412
C   C259      1.0  0.31802  0.68682  0.58236  1.0000 -0.0388958412
C   C260      1.0  0.68198  0.31318  0.41764  1.0000 -0.0388958412
C   C261      1.0  0.18198  0.18682  0.91764  1.0000 -0.0388958412
C   C262      1.0  0.81802  0.81318  0.08236  1.0000 -0.0388958412
C   C263      1.0  0.81802  0.18682  0.58236  1.0000 -0.0388958412
C   C264      1.0  0.18198  0.81318  0.41764  1.0000 -0.0388958412
C   C265      1.0  0.63120  0.71855  0.89402  1.0000 -0.1105935066
C   C266      1.0  0.36880  0.28145  0.10598  1.0000 -0.1105935066
C   C267      1.0  0.36880  0.71855  0.60598  1.0000 -0.1105935066
C   C268      1.0  0.63120  0.28145  0.39402  1.0000 -0.1105935066
C   C269      1.0  0.13120  0.21855  0.89402  1.0000 -0.1105935066
C   C270      1.0  0.86880  0.78145  0.10598  1.0000 -0.1105935066
C   C271      1.0  0.86880  0.21855  0.60598  1.0000 -0.1105935066
C   C272      1.0  0.13120  0.78145  0.39402  1.0000 -0.1105935066
C   C273      1.0  0.27979  0.75228  0.01517  1.0000 0.4468216574
C   C274      1.0  0.72021  0.24772  0.98483  1.0000 0.4468216574
C   C275      1.0  0.72021  0.75228  0.48483  1.0000 0.4468216574
C   C276      1.0  0.27979  0.24772  0.51517  1.0000 0.4468216574
C   C277      1.0  0.77979  0.25228  0.01517  1.0000 0.4468216574
C   C278      1.0  0.22021  0.74772  0.98483  1.0000 0.4468216574
C   C279      1.0  0.22021  0.25228  0.48483  1.0000 0.4468216574
C   C280      1.0  0.77979  0.74772  0.51517  1.0000 0.4468216574
C   C281      1.0  0.47375  0.48675  0.82338  1.0000 -0.1875301079
C   C282      1.0  0.52625  0.51325  0.17662  1.0000 -0.1875301079
C   C283      1.0  0.52625  0.48675  0.67662  1.0000 -0.1875301079
C   C284      1.0  0.47375  0.51325  0.32338  1.0000 -0.1875301079
C   C285      1.0  0.97375  0.98675  0.82338  1.0000 -0.1875301079
C   C286      1.0  0.02625  0.01325  0.17662  1.0000 -0.1875301079
C   C287      1.0  0.02625  0.98675  0.67662  1.0000 -0.1875301079
C   C288      1.0  0.97375  0.01325  0.32338  1.0000 -0.1875301079
C   C289      1.0  0.52707  0.50290  0.85360  1.0000 -0.158671098
C   C290      1.0  0.47293  0.49710  0.14640  1.0000 -0.158671098
C   C291      1.0  0.47293  0.50290  0.64640  1.0000 -0.158671098
C   C292      1.0  0.52707  0.49710  0.35360  1.0000 -0.158671098
C   C293      1.0  0.02707  0.00290  0.85360  1.0000 -0.158671098
C   C294      1.0  0.97293  0.99710  0.14640  1.0000 -0.158671098
C   C295      1.0  0.97293  0.00290  0.64640  1.0000 -0.158671098
C   C296      1.0  0.02707  0.99710  0.35360  1.0000 -0.158671098
N   N1        1.0  0.24815  0.01178  0.04039  1.0000 -0.2701855717
N   N2        1.0  0.75185  0.98822  0.95961  1.0000 -0.2701855717
N   N3        1.0  0.75185  0.01178  0.45961  1.0000 -0.2701855717
N   N4        1.0  0.24815  0.98822  0.54039  1.0000 -0.2701855717
N   N5        1.0  0.74815  0.51178  0.04039  1.0000 -0.2701855717
N   N6        1.0  0.25185  0.48822  0.95961  1.0000 -0.2701855717
N   N7        1.0  0.25185  0.51178  0.45961  1.0000 -0.2701855717
N   N8        1.0  0.74815  0.48822  0.54039  1.0000 -0.2701855717
N   N9        1.0  0.27466  0.02441  0.13912  1.0000 0.0009179912
N   N10       1.0  0.72534  0.97559  0.86088  1.0000 0.0009179912
N   N11       1.0  0.72534  0.02441  0.36088  1.0000 0.0009179912
N   N12       1.0  0.27466  0.97559  0.63912  1.0000 0.0009179912
N   N13       1.0  0.77466  0.52441  0.13912  1.0000 0.0009179912
N   N14       1.0  0.22534  0.47559  0.86088  1.0000 0.0009179912
N   N15       1.0  0.22534  0.52441  0.36088  1.0000 0.0009179912
N   N16       1.0  0.77466  0.47559  0.63912  1.0000 0.0009179912
N   N17       1.0  0.61228  0.09892  0.49850  1.0000 0.0009179912
N   N18       1.0  0.38772  0.90108  0.50150  1.0000 0.0009179912
N   N19       1.0  0.38772  0.09892  0.00150  1.0000 0.0009179912
N   N20       1.0  0.61228  0.90108  0.99850  1.0000 0.0009179912
N   N21       1.0  0.11228  0.59892  0.49850  1.0000 0.0009179912
N   N22       1.0  0.88772  0.40108  0.50150  1.0000 0.0009179912
N   N23       1.0  0.88772  0.59892  0.00150  1.0000 0.0009179912
N   N24       1.0  0.11228  0.40108  0.99850  1.0000 0.0009179912
N   N25       1.0  0.69527  0.06603  0.52588  1.0000 -0.2701855717
N   N26       1.0  0.30473  0.93397  0.47412  1.0000 -0.2701855717
N   N27       1.0  0.30473  0.06603  0.97412  1.0000 -0.2701855717
N   N28       1.0  0.69527  0.93397  0.02588  1.0000 -0.2701855717
N   N29       1.0  0.19527  0.56603  0.52588  1.0000 -0.2701855717
N   N30       1.0  0.80473  0.43397  0.47412  1.0000 -0.2701855717
N   N31       1.0  0.80473  0.56603  0.97412  1.0000 -0.2701855717
N   N32       1.0  0.19527  0.43397  0.02588  1.0000 -0.2701855717
N   N33       1.0  0.24140  0.89783  0.88771  1.0000 -0.2701855717
N   N34       1.0  0.75860  0.10217  0.11229  1.0000 -0.2701855717
N   N35       1.0  0.75860  0.89783  0.61229  1.0000 -0.2701855717
N   N36       1.0  0.24140  0.10217  0.38771  1.0000 -0.2701855717
N   N37       1.0  0.74140  0.39783  0.88771  1.0000 -0.2701855717
N   N38       1.0  0.25860  0.60217  0.11229  1.0000 -0.2701855717
N   N39       1.0  0.25860  0.39783  0.61229  1.0000 -0.2701855717
N   N40       1.0  0.74140  0.60217  0.38771  1.0000 -0.2701855717
N   N41       1.0  0.26298  0.78838  0.83147  1.0000 -0.0018589815
N   N42       1.0  0.73702  0.21162  0.16853  1.0000 -0.0018589815
N   N43       1.0  0.73702  0.78838  0.66853  1.0000 -0.0018589815
N   N44       1.0  0.26298  0.21162  0.33147  1.0000 -0.0018589815
N   N45       1.0  0.76298  0.28838  0.83147  1.0000 -0.0018589815
N   N46       1.0  0.23702  0.71162  0.16853  1.0000 -0.0018589815
N   N47       1.0  0.23702  0.28838  0.66853  1.0000 -0.0018589815
N   N48       1.0  0.76298  0.71162  0.33147  1.0000 -0.0018589815
N   N49       1.0  0.60229  0.62012  0.87847  1.0000 -0.0018589815
N   N50       1.0  0.39771  0.37988  0.12153  1.0000 -0.0018589815
N   N51       1.0  0.39771  0.62012  0.62153  1.0000 -0.0018589815
N   N52       1.0  0.60229  0.37988  0.37847  1.0000 -0.0018589815
N   N53       1.0  0.10229  0.12012  0.87847  1.0000 -0.0018589815
N   N54       1.0  0.89771  0.87988  0.12153  1.0000 -0.0018589815
N   N55       1.0  0.89771  0.12012  0.62153  1.0000 -0.0018589815
N   N56       1.0  0.10229  0.87988  0.37847  1.0000 -0.0018589815
N   N57       1.0  0.68565  0.57078  0.91631  1.0000 -0.2701855717
N   N58       1.0  0.31435  0.42922  0.08369  1.0000 -0.2701855717
N   N59       1.0  0.31435  0.57078  0.58369  1.0000 -0.2701855717
N   N60       1.0  0.68565  0.42922  0.41631  1.0000 -0.2701855717
N   N61       1.0  0.18565  0.07078  0.91631  1.0000 -0.2701855717
N   N62       1.0  0.81435  0.92922  0.08369  1.0000 -0.2701855717
N   N63       1.0  0.81435  0.07078  0.58369  1.0000 -0.2701855717
N   N64       1.0  0.18565  0.92922  0.41631  1.0000 -0.2701855717
O   O1        1.0  0.39886  0.03236  0.38893  1.0000 -0.2407471132
O   O2        1.0  0.60114  0.96764  0.61107  1.0000 -0.2407471132
O   O3        1.0  0.60114  0.03236  0.11107  1.0000 -0.2407471132
O   O4        1.0  0.39886  0.96764  0.88893  1.0000 -0.2407471132
O   O5        1.0  0.89886  0.53236  0.38893  1.0000 -0.2407471132
O   O6        1.0  0.10114  0.46764  0.61107  1.0000 -0.2407471132
O   O7        1.0  0.10114  0.53236  0.11107  1.0000 -0.2407471132
O   O8        1.0  0.89886  0.46764  0.88893  1.0000 -0.2407471132
O   O9        1.0  0.38816  0.55742  0.75756  1.0000 -0.2407471132
O   O10       1.0  0.61184  0.44258  0.24244  1.0000 -0.2407471132
O   O11       1.0  0.61184  0.55742  0.74244  1.0000 -0.2407471132
O   O12       1.0  0.38816  0.44258  0.25756  1.0000 -0.2407471132
O   O13       1.0  0.88816  0.05742  0.75756  1.0000 -0.2407471132
O   O14       1.0  0.11184  0.94258  0.24244  1.0000 -0.2407471132
O   O15       1.0  0.11184  0.05742  0.74244  1.0000 -0.2407471132
O   O16       1.0  0.88816  0.94258  0.25756  1.0000 -0.2407471132
O   O17       1.0  0.29941  0.84479  0.01144  1.0000 -0.4946114594
O   O18       1.0  0.70059  0.15521  0.98856  1.0000 -0.4946114594
O   O19       1.0  0.70059  0.84479  0.48856  1.0000 -0.4946114594
O   O20       1.0  0.29941  0.15521  0.51144  1.0000 -0.4946114594
O   O21       1.0  0.79941  0.34479  0.01144  1.0000 -0.4946114594
O   O22       1.0  0.20059  0.65521  0.98856  1.0000 -0.4954242879
O   O23       1.0  0.20059  0.34479  0.48856  1.0000 -0.4946114594
O   O24       1.0  0.79941  0.65521  0.51144  1.0000 -0.4954242879
O   O25       1.0  0.30452  0.66503  0.04142  1.0000 -0.4807559015
O   O26       1.0  0.69548  0.33497  0.95858  1.0000 -0.4807559015
O   O27       1.0  0.69548  0.66503  0.45858  1.0000 -0.4807559015
O   O28       1.0  0.30452  0.33497  0.54142  1.0000 -0.4807559015
O   O29       1.0  0.80452  0.16503  0.04142  1.0000 -0.4807559015
O   O30       1.0  0.19548  0.83497  0.95858  1.0000 -0.4807559015
O   O31       1.0  0.19548  0.16503  0.45858  1.0000 -0.4807559015
O   O32       1.0  0.80452  0.83497  0.54142  1.0000 -0.4807559015
