# DDEC6 charges by PACMAN v1.1 (https://github.com/mtap-research/PACMAN-charge/)
data_2013[Zn][nts]3[ASR]1
_chemical_formula_sum              "Zn24 H96 C216 N48 O96"
_cell_length_a       26.9075
_cell_length_b       26.9075
_cell_length_c       26.9075
_cell_angle_alpha    120.129
_cell_angle_beta     120.129
_cell_angle_gamma    89.7767

_symmetry_space_group_name_H-M    "P 1"
_symmetry_Int_Tables_number       1

loop_
  _symmetry_equiv_pos_as_xyz
  'x, y, z'

loop_
  _atom_site_type_symbol
  _atom_site_label
  _atom_site_symmetry_multiplicity
  _atom_site_fract_x
  _atom_site_fract_y
  _atom_site_fract_z
  _atom_site_occupancy
  _atom_site_charge
Zn  Zn1       1.0  0.79040  0.45035  0.24075  1.0000 0.9457530108
Zn  Zn2       1.0  0.20960  0.54965  0.75925  1.0000 0.9457530108
Zn  Zn3       1.0  0.45035  0.20960  0.65995  1.0000 0.9457530108
Zn  Zn4       1.0  0.54965  0.79040  0.34005  1.0000 0.9457530108
Zn  Zn5       1.0  0.52621  0.47436  0.28995  1.0000 0.9457530108
Zn  Zn6       1.0  0.18441  0.23626  0.71005  1.0000 0.9457530108
Zn  Zn7       1.0  0.47436  0.18441  0.94815  1.0000 0.9457530108
Zn  Zn8       1.0  0.23626  0.52621  0.05185  1.0000 0.9457530108
Zn  Zn9       1.0  0.47379  0.52564  0.71005  1.0000 0.9457530108
Zn  Zn10      1.0  0.81559  0.76374  0.28995  1.0000 0.9457530108
Zn  Zn11      1.0  0.52564  0.81559  0.05185  1.0000 0.9457530108
Zn  Zn12      1.0  0.76374  0.47379  0.94815  1.0000 0.9457530108
Zn  Zn13      1.0  0.89991  0.43272  0.33263  1.0000 0.9392838951
Zn  Zn14      1.0  0.10009  0.56728  0.66737  1.0000 0.9392838951
Zn  Zn15      1.0  0.43272  0.10009  0.53281  1.0000 0.9392838951
Zn  Zn16      1.0  0.56728  0.89991  0.46719  1.0000 0.9392838951
Zn  Zn17      1.0  0.53474  0.46249  0.39905  1.0000 0.9457530108
Zn  Zn18      1.0  0.06344  0.13569  0.60095  1.0000 0.9457530108
Zn  Zn19      1.0  0.46249  0.06344  0.92775  1.0000 0.9457530108
Zn  Zn20      1.0  0.13569  0.53474  0.07225  1.0000 0.9457530108
Zn  Zn21      1.0  0.46526  0.53751  0.60095  1.0000 0.9457530108
Zn  Zn22      1.0  0.93656  0.86431  0.39905  1.0000 0.9457530108
Zn  Zn23      1.0  0.53751  0.93656  0.07225  1.0000 0.9457530108
Zn  Zn24      1.0  0.86431  0.46526  0.92775  1.0000 0.9457530108
H   H1        1.0  0.06040  0.42270  0.15550  1.0000 0.2882693948
H   H2        1.0  0.26720  0.90490  0.84450  1.0000 0.2882693948
H   H3        1.0  0.42270  0.26720  0.36230  1.0000 0.2842623171
H   H4        1.0  0.90490  0.06040  0.63770  1.0000 0.2882693948
H   H5        1.0  0.93960  0.57730  0.84450  1.0000 0.2882693948
H   H6        1.0  0.73280  0.09510  0.15550  1.0000 0.2882693948
H   H7        1.0  0.57730  0.73280  0.63770  1.0000 0.2882693948
H   H8        1.0  0.09510  0.93960  0.36230  1.0000 0.2882693948
H   H9        1.0  0.28540  0.46360  0.35600  1.0000 0.2882693948
H   H10       1.0  0.10760  0.92940  0.64400  1.0000 0.2882693948
H   H11       1.0  0.46360  0.10760  0.17820  1.0000 0.2882693948
H   H12       1.0  0.92940  0.28540  0.82180  1.0000 0.2882693948
H   H13       1.0  0.71460  0.53640  0.64400  1.0000 0.2882693948
H   H14       1.0  0.89240  0.07060  0.35600  1.0000 0.2882693948
H   H15       1.0  0.53640  0.89240  0.82180  1.0000 0.2882693948
H   H16       1.0  0.07060  0.71460  0.17820  1.0000 0.2882693948
H   H17       1.0  0.11230  0.48700  0.40390  1.0000 0.2882693948
H   H18       1.0  0.08310  0.70840  0.59610  1.0000 0.2882693948
H   H19       1.0  0.48700  0.08310  0.37470  1.0000 0.2882693948
H   H20       1.0  0.70840  0.11230  0.62530  1.0000 0.2882693948
H   H21       1.0  0.88770  0.51300  0.59610  1.0000 0.2882693948
H   H22       1.0  0.91690  0.29160  0.40390  1.0000 0.2882693948
H   H23       1.0  0.51300  0.91690  0.62530  1.0000 0.2882693948
H   H24       1.0  0.29160  0.88770  0.37470  1.0000 0.2882693948
H   H25       1.0  0.99150  0.42530  0.23680  1.0000 0.1287390219
H   H26       1.0  0.18850  0.75470  0.76320  1.0000 0.1287390219
H   H27       1.0  0.42530  0.18850  0.43380  1.0000 0.1287390219
H   H28       1.0  0.75470  0.99150  0.56620  1.0000 0.1287390219
H   H29       1.0  0.00850  0.57470  0.76320  1.0000 0.1287390219
H   H30       1.0  0.81150  0.24530  0.23680  1.0000 0.1287390219
H   H31       1.0  0.57470  0.81150  0.56620  1.0000 0.1287390219
H   H32       1.0  0.24530  0.00850  0.43380  1.0000 0.1287390219
H   H33       1.0  0.83570  0.43210  0.10260  1.0000 0.1363122589
H   H34       1.0  0.32950  0.73310  0.89740  1.0000 0.1363122589
H   H35       1.0  0.43210  0.32950  0.59640  1.0000 0.1363122589
H   H36       1.0  0.73310  0.83570  0.40360  1.0000 0.1363122589
H   H37       1.0  0.16430  0.56790  0.89740  1.0000 0.1363122589
H   H38       1.0  0.67050  0.26690  0.10260  1.0000 0.1363122589
H   H39       1.0  0.56790  0.67050  0.40360  1.0000 0.1363122589
H   H40       1.0  0.26690  0.16430  0.59640  1.0000 0.1363122589
H   H41       1.0  0.97560  0.43680  0.08640  1.0000 0.1287390219
H   H42       1.0  0.35040  0.88920  0.91360  1.0000 0.1287390219
H   H43       1.0  0.43680  0.35040  0.46120  1.0000 0.1287390219
H   H44       1.0  0.88920  0.97560  0.53880  1.0000 0.1287390219
H   H45       1.0  0.02440  0.56320  0.91360  1.0000 0.1287390219
H   H46       1.0  0.64960  0.11080  0.08640  1.0000 0.1287390219
H   H47       1.0  0.56320  0.64960  0.53880  1.0000 0.1287390219
H   H48       1.0  0.11080  0.02440  0.46120  1.0000 0.1287390219
H   H49       1.0  0.20460  0.47980  0.21840  1.0000 0.1287390219
H   H50       1.0  0.26140  0.98620  0.78160  1.0000 0.1287390219
H   H51       1.0  0.47980  0.26140  0.27520  1.0000 0.1287390219
H   H52       1.0  0.98620  0.20460  0.72480  1.0000 0.1287390219
H   H53       1.0  0.79540  0.52020  0.78160  1.0000 0.1287390219
H   H54       1.0  0.73860  0.01380  0.21840  1.0000 0.1287390219
H   H55       1.0  0.52020  0.73860  0.72480  1.0000 0.1287390219
H   H56       1.0  0.01380  0.79540  0.27520  1.0000 0.1287390219
H   H57       1.0  0.33960  0.48140  0.19320  1.0000 0.1363122589
H   H58       1.0  0.28820  0.14640  0.80680  1.0000 0.1363122589
H   H59       1.0  0.48140  0.28820  0.14180  1.0000 0.1363122589
H   H60       1.0  0.14640  0.33960  0.85820  1.0000 0.1363122589
H   H61       1.0  0.66040  0.51860  0.80680  1.0000 0.1363122589
H   H62       1.0  0.71180  0.85360  0.19320  1.0000 0.1363122589
H   H63       1.0  0.51860  0.71180  0.85820  1.0000 0.1363122589
H   H64       1.0  0.85360  0.66040  0.14180  1.0000 0.1363122589
H   H65       1.0  0.35480  0.45220  0.33140  1.0000 0.1287390219
H   H66       1.0  0.12080  0.02340  0.66860  1.0000 0.1287390219
H   H67       1.0  0.45220  0.12080  0.09740  1.0000 0.1287390219
H   H68       1.0  0.02340  0.35480  0.90260  1.0000 0.1287390219
H   H69       1.0  0.64520  0.54780  0.66860  1.0000 0.1287390219
H   H70       1.0  0.87920  0.97660  0.33140  1.0000 0.1287390219
H   H71       1.0  0.54780  0.87920  0.90260  1.0000 0.1287390219
H   H72       1.0  0.97660  0.64520  0.09740  1.0000 0.1287390219
H   H73       1.0  0.26670  0.49880  0.47810  1.0000 0.1287390219
H   H74       1.0  0.02070  0.78860  0.52190  1.0000 0.1287390219
H   H75       1.0  0.49880  0.02070  0.23210  1.0000 0.1287390219
H   H76       1.0  0.78860  0.26670  0.76790  1.0000 0.1287390219
H   H77       1.0  0.73330  0.50120  0.52190  1.0000 0.1287390219
H   H78       1.0  0.97930  0.21140  0.47810  1.0000 0.1287390219
H   H79       1.0  0.50120  0.97930  0.76790  1.0000 0.1287390219
H   H80       1.0  0.21140  0.73330  0.23210  1.0000 0.1287390219
H   H81       1.0  0.29780  0.53350  0.65730  1.0000 0.1363122589
H   H82       1.0  0.87620  0.64050  0.34270  1.0000 0.1363122589
H   H83       1.0  0.53350  0.87620  0.23570  1.0000 0.1363122589
H   H84       1.0  0.64050  0.29780  0.76430  1.0000 0.1363122589
H   H85       1.0  0.70220  0.46650  0.34270  1.0000 0.1363122589
H   H86       1.0  0.12380  0.35950  0.65730  1.0000 0.1363122589
H   H87       1.0  0.46650  0.12380  0.76430  1.0000 0.1363122589
H   H88       1.0  0.35950  0.70220  0.23570  1.0000 0.1363122589
H   H89       1.0  0.13190  0.50960  0.50470  1.0000 0.1287390219
H   H90       1.0  0.00490  0.62720  0.49530  1.0000 0.1287390219
H   H91       1.0  0.50960  0.00490  0.37770  1.0000 0.1287390219
H   H92       1.0  0.62720  0.13190  0.62230  1.0000 0.1287390219
H   H93       1.0  0.86810  0.49040  0.49530  1.0000 0.1287390219
H   H94       1.0  0.99510  0.37280  0.50470  1.0000 0.1287390219
H   H95       1.0  0.49040  0.99510  0.62230  1.0000 0.1287390219
H   H96       1.0  0.37280  0.86810  0.37770  1.0000 0.1287390219
C   C1        1.0  0.10321  0.44692  0.24917  1.0000 0.5299664191
C   C2        1.0  0.19775  0.85404  0.75083  1.0000 0.5299664191
C   C3        1.0  0.44692  0.19775  0.34371  1.0000 0.5299664191
C   C4        1.0  0.85404  0.10321  0.65629  1.0000 0.5299664191
C   C5        1.0  0.89679  0.55308  0.75083  1.0000 0.5299664191
C   C6        1.0  0.80225  0.14596  0.24917  1.0000 0.5299664191
C   C7        1.0  0.55308  0.80225  0.65629  1.0000 0.5299664191
C   C8        1.0  0.14596  0.89679  0.34371  1.0000 0.5299664191
C   C9        1.0  0.20263  0.45859  0.31026  1.0000 0.5299664191
C   C10       1.0  0.14833  0.89237  0.68974  1.0000 0.5299664191
C   C11       1.0  0.45859  0.14833  0.25596  1.0000 0.5299664191
C   C12       1.0  0.89237  0.20263  0.74404  1.0000 0.5299664191
C   C13       1.0  0.79737  0.54141  0.68974  1.0000 0.5299664191
C   C14       1.0  0.85167  0.10763  0.31026  1.0000 0.5299664191
C   C15       1.0  0.54141  0.85167  0.74404  1.0000 0.5299664191
C   C16       1.0  0.10763  0.79737  0.25596  1.0000 0.5299664191
C   C17       1.0  0.15185  0.47197  0.35862  1.0000 0.5299664191
C   C18       1.0  0.11335  0.79323  0.64138  1.0000 0.5299664191
C   C19       1.0  0.47197  0.11335  0.32012  1.0000 0.5299664191
C   C20       1.0  0.79323  0.15185  0.67988  1.0000 0.5299664191
C   C21       1.0  0.84815  0.52803  0.64138  1.0000 0.5299664191
C   C22       1.0  0.88665  0.20677  0.35862  1.0000 0.5299664191
C   C23       1.0  0.52803  0.88665  0.67988  1.0000 0.5299664191
C   C24       1.0  0.20677  0.84815  0.32012  1.0000 0.5299664191
C   C25       1.0  0.99401  0.43168  0.16645  1.0000 0.2086943669
C   C26       1.0  0.26523  0.82756  0.83355  1.0000 0.2086943669
C   C27       1.0  0.43168  0.26523  0.43767  1.0000 0.2086943669
C   C28       1.0  0.82756  0.99401  0.56233  1.0000 0.2086943669
C   C29       1.0  0.00599  0.56832  0.83355  1.0000 0.2086943669
C   C30       1.0  0.73477  0.17244  0.16645  1.0000 0.2086943669
C   C31       1.0  0.56832  0.73477  0.56233  1.0000 0.2086943669
C   C32       1.0  0.17244  0.00599  0.43767  1.0000 0.2086943669
C   C33       1.0  0.96877  0.42790  0.19887  1.0000 -0.1619479351
C   C34       1.0  0.22903  0.76990  0.80113  1.0000 -0.1619479351
C   C35       1.0  0.42790  0.22903  0.45913  1.0000 -0.1619479351
C   C36       1.0  0.76990  0.96877  0.54087  1.0000 -0.1619479351
C   C37       1.0  0.03123  0.57210  0.80113  1.0000 -0.1619479351
C   C38       1.0  0.77097  0.23010  0.19887  1.0000 -0.1619479351
C   C39       1.0  0.57210  0.77097  0.54087  1.0000 -0.1619479351
C   C40       1.0  0.23010  0.03123  0.45913  1.0000 -0.1619479351
C   C41       1.0  0.91006  0.42803  0.17501  1.0000 -0.0273618751
C   C42       1.0  0.25302  0.73505  0.82499  1.0000 -0.0273618751
C   C43       1.0  0.42803  0.25302  0.51797  1.0000 -0.0273618751
C   C44       1.0  0.73505  0.91006  0.48203  1.0000 -0.0273618751
C   C45       1.0  0.08994  0.57197  0.82499  1.0000 -0.0273618751
C   C46       1.0  0.74698  0.26495  0.17501  1.0000 -0.0273618751
C   C47       1.0  0.57197  0.74698  0.48203  1.0000 -0.0273618751
C   C48       1.0  0.26495  0.08994  0.51797  1.0000 -0.0273618751
C   C49       1.0  0.87531  0.43178  0.11827  1.0000 -0.1011548382
C   C50       1.0  0.31351  0.75704  0.88173  1.0000 -0.1011548382
C   C51       1.0  0.43178  0.31351  0.55647  1.0000 -0.1011548382
C   C52       1.0  0.75704  0.87531  0.44353  1.0000 -0.1011548382
C   C53       1.0  0.12469  0.56822  0.88173  1.0000 -0.1011548382
C   C54       1.0  0.68649  0.24296  0.11827  1.0000 -0.1011548382
C   C55       1.0  0.56822  0.68649  0.44353  1.0000 -0.1011548382
C   C56       1.0  0.24296  0.12469  0.55647  1.0000 -0.1011548382
C   C57       1.0  0.90046  0.43515  0.08491  1.0000 -0.0207915585
C   C58       1.0  0.35024  0.81555  0.91509  1.0000 -0.0207915585
C   C59       1.0  0.43515  0.35024  0.53469  1.0000 -0.0207915585
C   C60       1.0  0.81555  0.90046  0.46531  1.0000 -0.0207915585
C   C61       1.0  0.09954  0.56485  0.91509  1.0000 -0.0207915585
C   C62       1.0  0.64976  0.18445  0.08491  1.0000 -0.0207915585
C   C63       1.0  0.56485  0.64976  0.46531  1.0000 -0.0207915585
C   C64       1.0  0.18445  0.09954  0.53469  1.0000 -0.0207915585
C   C65       1.0  0.95903  0.43486  0.10871  1.0000 -0.1897342179
C   C66       1.0  0.32615  0.85032  0.89129  1.0000 -0.1897342179
C   C67       1.0  0.43486  0.32615  0.47583  1.0000 -0.1897342179
C   C68       1.0  0.85032  0.95903  0.52417  1.0000 -0.1897342179
C   C69       1.0  0.04097  0.56514  0.89129  1.0000 -0.1897342179
C   C70       1.0  0.67385  0.14968  0.10871  1.0000 -0.1897342179
C   C71       1.0  0.56514  0.67385  0.52417  1.0000 -0.1897342179
C   C72       1.0  0.14968  0.04097  0.47583  1.0000 -0.1897342179
C   C73       1.0  0.88349  0.42754  0.21223  1.0000 0.5973429681
C   C74       1.0  0.21531  0.67126  0.78777  1.0000 0.5973429681
C   C75       1.0  0.42754  0.21531  0.54405  1.0000 0.5973429681
C   C76       1.0  0.67126  0.88349  0.45595  1.0000 0.5973429681
C   C77       1.0  0.11651  0.57246  0.78777  1.0000 0.5973429681
C   C78       1.0  0.78469  0.32874  0.21223  1.0000 0.5973429681
C   C79       1.0  0.57246  0.78469  0.45595  1.0000 0.5973429681
C   C80       1.0  0.32874  0.11651  0.54405  1.0000 0.5973429681
C   C81       1.0  0.86477  0.44274  0.02637  1.0000 0.5902570463
C   C82       1.0  0.41637  0.83840  0.97363  1.0000 0.5902570463
C   C83       1.0  0.44274  0.41637  0.57797  1.0000 0.5902570463
C   C84       1.0  0.83840  0.86477  0.42203  1.0000 0.5902570463
C   C85       1.0  0.13523  0.55726  0.97363  1.0000 0.5902570463
C   C86       1.0  0.58363  0.16160  0.02637  1.0000 0.5902570463
C   C87       1.0  0.55726  0.58363  0.42203  1.0000 0.5902570463
C   C88       1.0  0.16160  0.13523  0.57797  1.0000 0.5902570463
C   C89       1.0  0.27551  0.46383  0.28010  1.0000 0.2086943669
C   C90       1.0  0.18373  0.99541  0.71990  1.0000 0.2086943669
C   C91       1.0  0.46383  0.18373  0.18832  1.0000 0.2086943669
C   C92       1.0  0.99541  0.27551  0.81168  1.0000 0.2086943669
C   C93       1.0  0.72449  0.53617  0.71990  1.0000 0.2086943669
C   C94       1.0  0.81627  0.00459  0.28010  1.0000 0.2086943669
C   C95       1.0  0.53617  0.81627  0.81168  1.0000 0.2086943669
C   C96       1.0  0.00459  0.72449  0.18832  1.0000 0.2086943669
C   C97       1.0  0.24261  0.47601  0.23012  1.0000 -0.1718000659
C   C98       1.0  0.24589  0.01249  0.76988  1.0000 -0.1718000659
C   C99       1.0  0.47601  0.24589  0.23340  1.0000 -0.1718000659
C   C100      1.0  0.01249  0.24261  0.76660  1.0000 -0.1718000659
C   C101      1.0  0.75739  0.52399  0.76988  1.0000 -0.1718000659
C   C102      1.0  0.75411  0.98751  0.23012  1.0000 -0.1718000659
C   C103      1.0  0.52399  0.75411  0.76660  1.0000 -0.1718000659
C   C104      1.0  0.98751  0.75739  0.23340  1.0000 -0.1718000659
C   C105      1.0  0.26724  0.48234  0.19766  1.0000 -0.0207915585
C   C106      1.0  0.28468  0.06958  0.80234  1.0000 -0.0207915585
C   C107      1.0  0.48234  0.28468  0.21510  1.0000 -0.0207915585
C   C108      1.0  0.06958  0.26724  0.78490  1.0000 -0.0207915585
C   C109      1.0  0.73276  0.51766  0.80234  1.0000 -0.0207915585
C   C110      1.0  0.71532  0.93042  0.19766  1.0000 -0.0207915585
C   C111      1.0  0.51766  0.71532  0.78490  1.0000 -0.0207915585
C   C112      1.0  0.93042  0.73276  0.21510  1.0000 -0.0207915585
C   C113      1.0  0.32360  0.47695  0.21493  1.0000 -0.1011548382
C   C114      1.0  0.26202  0.10867  0.78507  1.0000 -0.1011548382
C   C115      1.0  0.47695  0.26202  0.15335  1.0000 -0.1011548382
C   C116      1.0  0.10867  0.32360  0.84665  1.0000 -0.1011548382
C   C117      1.0  0.67640  0.52305  0.78507  1.0000 -0.1011548382
C   C118      1.0  0.73798  0.89133  0.21493  1.0000 -0.1011548382
C   C119      1.0  0.52305  0.73798  0.84665  1.0000 -0.1011548382
C   C120      1.0  0.89133  0.67640  0.15335  1.0000 -0.1011548382
C   C121      1.0  0.35616  0.46501  0.26425  1.0000 -0.0273618751
C   C122      1.0  0.20076  0.09191  0.73575  1.0000 -0.0273618751
C   C123      1.0  0.46501  0.20076  0.10885  1.0000 -0.0273618751
C   C124      1.0  0.09191  0.35616  0.89115  1.0000 -0.0273618751
C   C125      1.0  0.64384  0.53499  0.73575  1.0000 -0.0273618751
C   C126      1.0  0.79924  0.90809  0.26425  1.0000 -0.0273618751
C   C127      1.0  0.53499  0.79924  0.89115  1.0000 -0.0273618751
C   C128      1.0  0.90809  0.64384  0.10885  1.0000 -0.0273618751
C   C129      1.0  0.33214  0.45926  0.29722  1.0000 -0.1987688915
C   C130      1.0  0.16204  0.03492  0.70278  1.0000 -0.1987688915
C   C131      1.0  0.45926  0.16204  0.12712  1.0000 -0.1987688915
C   C132      1.0  0.03492  0.33214  0.87288  1.0000 -0.1987688915
C   C133      1.0  0.66786  0.54074  0.70278  1.0000 -0.1987688915
C   C134      1.0  0.83796  0.96508  0.29722  1.0000 -0.1987688915
C   C135      1.0  0.54074  0.83796  0.87288  1.0000 -0.1987688915
C   C136      1.0  0.96508  0.66786  0.12712  1.0000 -0.1987688915
C   C137      1.0  0.23290  0.49863  0.14639  1.0000 0.5973429681
C   C138      1.0  0.35224  0.08651  0.85361  1.0000 0.5973429681
C   C139      1.0  0.49863  0.35224  0.26573  1.0000 0.5973429681
C   C140      1.0  0.08651  0.23290  0.73427  1.0000 0.5973429681
C   C141      1.0  0.76710  0.50137  0.85361  1.0000 0.5973429681
C   C142      1.0  0.64776  0.91349  0.14639  1.0000 0.5973429681
C   C143      1.0  0.50137  0.64776  0.73427  1.0000 0.5973429681
C   C144      1.0  0.91349  0.76710  0.26573  1.0000 0.5973429681
C   C145      1.0  0.41915  0.46344  0.28803  1.0000 0.5902570463
C   C146      1.0  0.17541  0.13112  0.71197  1.0000 0.5902570463
C   C147      1.0  0.46344  0.17541  0.04429  1.0000 0.5902570463
C   C148      1.0  0.13112  0.41915  0.95571  1.0000 0.5902570463
C   C149      1.0  0.58085  0.53656  0.71197  1.0000 0.5902570463
C   C150      1.0  0.82459  0.86888  0.28803  1.0000 0.5902570463
C   C151      1.0  0.53656  0.82459  0.95571  1.0000 0.5902570463
C   C152      1.0  0.86888  0.58085  0.04429  1.0000 0.5902570463
C   C153      1.0  0.19204  0.50111  0.48009  1.0000 0.2086943669
C   C154      1.0  0.02102  0.71195  0.51991  1.0000 0.2086943669
C   C155      1.0  0.50111  0.02102  0.30907  1.0000 0.2086943669
C   C156      1.0  0.71195  0.19204  0.69093  1.0000 0.2086943669
C   C157      1.0  0.80796  0.49889  0.51991  1.0000 0.2086943669
C   C158      1.0  0.97898  0.28805  0.48009  1.0000 0.2086943669
C   C159      1.0  0.49889  0.97898  0.69093  1.0000 0.2086943669
C   C160      1.0  0.28805  0.80796  0.30907  1.0000 0.2086943669
C   C161      1.0  0.25264  0.50466  0.50532  1.0000 -0.1718000659
C   C162      1.0  0.99934  0.74732  0.49468  1.0000 -0.1718000659
C   C163      1.0  0.50466  0.99934  0.25202  1.0000 -0.1718000659
C   C164      1.0  0.74732  0.25264  0.74798  1.0000 -0.1718000659
C   C165      1.0  0.74736  0.49534  0.49468  1.0000 -0.1718000659
C   C166      1.0  0.00066  0.25268  0.50532  1.0000 -0.1718000659
C   C167      1.0  0.49534  0.00066  0.74798  1.0000 -0.1718000659
C   C168      1.0  0.25268  0.74736  0.25202  1.0000 -0.1718000659
C   C169      1.0  0.29169  0.51720  0.57197  1.0000 -0.0207915585
C   C170      1.0  0.94523  0.71972  0.42803  1.0000 -0.0207915585
C   C171      1.0  0.51720  0.94523  0.22551  1.0000 -0.0207915585
C   C172      1.0  0.71972  0.29169  0.77449  1.0000 -0.0207915585
C   C173      1.0  0.70831  0.48280  0.42803  1.0000 -0.0207915585
C   C174      1.0  0.05477  0.28028  0.57197  1.0000 -0.0207915585
C   C175      1.0  0.48280  0.05477  0.77449  1.0000 -0.0207915585
C   C176      1.0  0.28028  0.70831  0.22551  1.0000 -0.0207915585
C   C177      1.0  0.27165  0.52635  0.61344  1.0000 -0.1011548382
C   C178      1.0  0.91291  0.65821  0.38656  1.0000 -0.1011548382
C   C179      1.0  0.52635  0.91291  0.25470  1.0000 -0.1011548382
C   C180      1.0  0.65821  0.27165  0.74530  1.0000 -0.1011548382
C   C181      1.0  0.72835  0.47365  0.38656  1.0000 -0.1011548382
C   C182      1.0  0.08709  0.34179  0.61344  1.0000 -0.1011548382
C   C183      1.0  0.47365  0.08709  0.74530  1.0000 -0.1011548382
C   C184      1.0  0.34179  0.72835  0.25470  1.0000 -0.1011548382
C   C185      1.0  0.21133  0.52468  0.58803  1.0000 -0.0207915585
C   C186      1.0  0.93665  0.62330  0.41197  1.0000 -0.0207915585
C   C187      1.0  0.52468  0.93665  0.31335  1.0000 -0.0207915585
C   C188      1.0  0.62330  0.21133  0.68665  1.0000 -0.0207915585
C   C189      1.0  0.78867  0.47532  0.41197  1.0000 -0.0207915585
C   C190      1.0  0.06335  0.37670  0.58803  1.0000 -0.0207915585
C   C191      1.0  0.47532  0.06335  0.68665  1.0000 -0.0207915585
C   C192      1.0  0.37670  0.78867  0.31335  1.0000 -0.0207915585
C   C193      1.0  0.17220  0.51148  0.52162  1.0000 -0.1987688915
C   C194      1.0  0.98986  0.65058  0.47838  1.0000 -0.1987688915
C   C195      1.0  0.51148  0.98986  0.33928  1.0000 -0.1987688915
C   C196      1.0  0.65058  0.17220  0.66072  1.0000 -0.1987688915
C   C197      1.0  0.82780  0.48852  0.47838  1.0000 -0.1987688915
C   C198      1.0  0.01014  0.34942  0.52162  1.0000 -0.1987688915
C   C199      1.0  0.48852  0.01014  0.66072  1.0000 -0.1987688915
C   C200      1.0  0.34942  0.82780  0.33928  1.0000 -0.1987688915
C   C201      1.0  0.35730  0.52252  0.60080  1.0000 0.5973429681
C   C202      1.0  0.92172  0.75650  0.39920  1.0000 0.5973429681
C   C203      1.0  0.52252  0.92172  0.16522  1.0000 0.5973429681
C   C204      1.0  0.75650  0.35730  0.83478  1.0000 0.5973429681
C   C205      1.0  0.64270  0.47748  0.39920  1.0000 0.5973429681
C   C206      1.0  0.07828  0.24350  0.60080  1.0000 0.5973429681
C   C207      1.0  0.47748  0.07828  0.83478  1.0000 0.5973429681
C   C208      1.0  0.24350  0.64270  0.16522  1.0000 0.5973429681
C   C209      1.0  0.19075  0.53803  0.63426  1.0000 0.5902570463
C   C210      1.0  0.90377  0.55649  0.36574  1.0000 0.5902570463
C   C211      1.0  0.53803  0.90377  0.34728  1.0000 0.5902570463
C   C212      1.0  0.55649  0.19075  0.65272  1.0000 0.5902570463
C   C213      1.0  0.80925  0.46197  0.36574  1.0000 0.5902570463
C   C214      1.0  0.09623  0.44351  0.63426  1.0000 0.5902570463
C   C215      1.0  0.46197  0.09623  0.65272  1.0000 0.5902570463
C   C216      1.0  0.44351  0.80925  0.34728  1.0000 0.5902570463
N   N1        1.0  0.09889  0.45928  0.30003  1.0000 -0.5222071186
N   N2        1.0  0.15925  0.79886  0.69997  1.0000 -0.5222071186
N   N3        1.0  0.45928  0.15925  0.36039  1.0000 -0.5315244987
N   N4        1.0  0.79886  0.09889  0.63961  1.0000 -0.5222071186
N   N5        1.0  0.90111  0.54072  0.69997  1.0000 -0.5222071186
N   N6        1.0  0.84075  0.20114  0.30003  1.0000 -0.5222071186
N   N7        1.0  0.54072  0.84075  0.63961  1.0000 -0.5222071186
N   N8        1.0  0.20114  0.90111  0.36039  1.0000 -0.5222071186
N   N9        1.0  0.15402  0.44591  0.25039  1.0000 -0.5315244987
N   N10       1.0  0.19552  0.90363  0.74961  1.0000 -0.5315244987
N   N11       1.0  0.44591  0.19552  0.29189  1.0000 -0.5315244987
N   N12       1.0  0.90363  0.15402  0.70811  1.0000 -0.5315244987
N   N13       1.0  0.84598  0.55409  0.74961  1.0000 -0.5315244987
N   N14       1.0  0.80448  0.09637  0.25039  1.0000 -0.5315244987
N   N15       1.0  0.55409  0.80448  0.70811  1.0000 -0.5315244987
N   N16       1.0  0.09637  0.84598  0.29189  1.0000 -0.5315244987
N   N17       1.0  0.20398  0.47050  0.36592  1.0000 -0.5222071186
N   N18       1.0  0.10458  0.83806  0.63408  1.0000 -0.5222071186
N   N19       1.0  0.47050  0.10458  0.26652  1.0000 -0.5222071186
N   N20       1.0  0.83806  0.20398  0.73348  1.0000 -0.5222071186
N   N21       1.0  0.79602  0.52950  0.63408  1.0000 -0.5222071186
N   N22       1.0  0.89542  0.16194  0.36592  1.0000 -0.5222071186
N   N23       1.0  0.52950  0.89542  0.73348  1.0000 -0.5222071186
N   N24       1.0  0.16194  0.79602  0.26652  1.0000 -0.5222071186
N   N25       1.0  0.05421  0.43267  0.18720  1.0000 -0.3475535058
N   N26       1.0  0.24547  0.86701  0.81280  1.0000 -0.3475535058
N   N27       1.0  0.43267  0.24547  0.37846  1.0000 -0.3475535058
N   N28       1.0  0.86701  0.05421  0.62154  1.0000 -0.3475535058
N   N29       1.0  0.94579  0.56733  0.81280  1.0000 -0.3475535058
N   N30       1.0  0.75453  0.13299  0.18720  1.0000 -0.3475535058
N   N31       1.0  0.56733  0.75453  0.62154  1.0000 -0.3475535058
N   N32       1.0  0.13299  0.94579  0.37846  1.0000 -0.3475535058
N   N33       1.0  0.25743  0.46215  0.31984  1.0000 -0.340583441
N   N34       1.0  0.14231  0.93759  0.68016  1.0000 -0.340583441
N   N35       1.0  0.46215  0.14231  0.20472  1.0000 -0.340583441
N   N36       1.0  0.93759  0.25743  0.79528  1.0000 -0.340583441
N   N37       1.0  0.74257  0.53785  0.68016  1.0000 -0.340583441
N   N38       1.0  0.85769  0.06241  0.31984  1.0000 -0.340583441
N   N39       1.0  0.53785  0.85769  0.79528  1.0000 -0.340583441
N   N40       1.0  0.06241  0.74257  0.20472  1.0000 -0.340583441
N   N41       1.0  0.14756  0.48654  0.41242  1.0000 -0.3475535058
N   N42       1.0  0.07412  0.73514  0.58758  1.0000 -0.3475535058
N   N43       1.0  0.48654  0.07412  0.33898  1.0000 -0.3475535058
N   N44       1.0  0.73514  0.14756  0.66102  1.0000 -0.3475535058
N   N45       1.0  0.85244  0.51346  0.58758  1.0000 -0.3475535058
N   N46       1.0  0.92588  0.26486  0.41242  1.0000 -0.3475535058
N   N47       1.0  0.51346  0.92588  0.66102  1.0000 -0.3475535058
N   N48       1.0  0.26486  0.85244  0.33898  1.0000 -0.3475535058
O   O1        1.0  0.91484  0.42230  0.26164  1.0000 -0.5393972023
O   O2        1.0  0.16066  0.65320  0.73836  1.0000 -0.5393972023
O   O3        1.0  0.42230  0.16066  0.50746  1.0000 -0.5393972023
O   O4        1.0  0.65320  0.91484  0.49254  1.0000 -0.5393972023
O   O5        1.0  0.08516  0.57770  0.73836  1.0000 -0.5393972023
O   O6        1.0  0.83934  0.34680  0.26164  1.0000 -0.5393972023
O   O7        1.0  0.57770  0.83934  0.49254  1.0000 -0.5393972023
O   O8        1.0  0.34680  0.08516  0.50746  1.0000 -0.5393972023
O   O9        1.0  0.83261  0.43471  0.19300  1.0000 -0.5315244987
O   O10       1.0  0.24171  0.63961  0.80700  1.0000 -0.5315244987
O   O11       1.0  0.43471  0.24171  0.60210  1.0000 -0.5315244987
O   O12       1.0  0.63961  0.83261  0.39790  1.0000 -0.5315244987
O   O13       1.0  0.16739  0.56529  0.80700  1.0000 -0.5315244987
O   O14       1.0  0.75829  0.36039  0.19300  1.0000 -0.5315244987
O   O15       1.0  0.56529  0.75829  0.39790  1.0000 -0.5315244987
O   O16       1.0  0.36039  0.16739  0.60210  1.0000 -0.5315244987
O   O17       1.0  0.81356  0.44610  0.00962  1.0000 -0.5222071186
O   O18       1.0  0.43648  0.80394  0.99038  1.0000 -0.5222071186
O   O19       1.0  0.44610  0.43648  0.63254  1.0000 -0.5222071186
O   O20       1.0  0.80394  0.81356  0.36746  1.0000 -0.5222071186
O   O21       1.0  0.18644  0.55390  0.99038  1.0000 -0.5222071186
O   O22       1.0  0.56352  0.19606  0.00962  1.0000 -0.5222071186
O   O23       1.0  0.55390  0.56352  0.36746  1.0000 -0.5222071186
O   O24       1.0  0.19606  0.18644  0.63254  1.0000 -0.5222071186
O   O25       1.0  0.88952  0.44467  0.99853  1.0000 -0.5603455614
O   O26       1.0  0.44614  0.89099  0.00147  1.0000 -0.5603455614
O   O27       1.0  0.44467  0.44614  0.55515  1.0000 -0.5603455614
O   O28       1.0  0.89099  0.88952  0.44485  1.0000 -0.5603455614
O   O29       1.0  0.11048  0.55533  0.00147  1.0000 -0.5603455614
O   O30       1.0  0.55386  0.10901  0.99853  1.0000 -0.5603455614
O   O31       1.0  0.55533  0.55386  0.44485  1.0000 -0.5603455614
O   O32       1.0  0.10901  0.11048  0.55515  1.0000 -0.5603455614
O   O33       1.0  0.18571  0.51145  0.13900  1.0000 -0.5491737976
O   O34       1.0  0.37245  0.04671  0.86100  1.0000 -0.5491737976
O   O35       1.0  0.51145  0.37245  0.32574  1.0000 -0.5491737976
O   O36       1.0  0.04671  0.18571  0.67426  1.0000 -0.5491737976
O   O37       1.0  0.81429  0.48855  0.86100  1.0000 -0.5491737976
O   O38       1.0  0.62755  0.95329  0.13900  1.0000 -0.5491737976
O   O39       1.0  0.48855  0.62755  0.67426  1.0000 -0.5491737976
O   O40       1.0  0.95329  0.81429  0.32574  1.0000 -0.5491737976
O   O41       1.0  0.25530  0.49930  0.11552  1.0000 -0.5491737976
O   O42       1.0  0.38378  0.13978  0.88448  1.0000 -0.5491737976
O   O43       1.0  0.49930  0.38378  0.24400  1.0000 -0.5491737976
O   O44       1.0  0.13978  0.25530  0.75600  1.0000 -0.5491737976
O   O45       1.0  0.74470  0.50070  0.88448  1.0000 -0.5491737976
O   O46       1.0  0.61622  0.86022  0.11552  1.0000 -0.5491737976
O   O47       1.0  0.50070  0.61622  0.75600  1.0000 -0.5491737976
O   O48       1.0  0.86022  0.74470  0.24400  1.0000 -0.5491737976
O   O49       1.0  0.44020  0.47174  0.25936  1.0000 -0.5393972023
O   O50       1.0  0.21238  0.18084  0.74064  1.0000 -0.5393972023
O   O51       1.0  0.47174  0.21238  0.03154  1.0000 -0.5393972023
O   O52       1.0  0.18084  0.44020  0.96846  1.0000 -0.5393972023
O   O53       1.0  0.55980  0.52826  0.74064  1.0000 -0.5393972023
O   O54       1.0  0.78762  0.81916  0.25936  1.0000 -0.5393972023
O   O55       1.0  0.52826  0.78762  0.96846  1.0000 -0.5393972023
O   O56       1.0  0.81916  0.55980  0.03154  1.0000 -0.5393972023
O   O57       1.0  0.44727  0.45460  0.33505  1.0000 -0.5603455614
O   O58       1.0  0.11955  0.11222  0.66495  1.0000 -0.5603455614
O   O59       1.0  0.45460  0.11955  0.00733  1.0000 -0.5603455614
O   O60       1.0  0.11222  0.44727  0.99267  1.0000 -0.5603455614
O   O61       1.0  0.55273  0.54540  0.66495  1.0000 -0.5603455614
O   O62       1.0  0.88045  0.88778  0.33505  1.0000 -0.5603455614
O   O63       1.0  0.54540  0.88045  0.99267  1.0000 -0.5603455614
O   O64       1.0  0.88778  0.55273  0.00733  1.0000 -0.5603455614
O   O65       1.0  0.37732  0.52677  0.56949  1.0000 -0.5491737976
O   O66       1.0  0.95728  0.80783  0.43051  1.0000 -0.5491737976
O   O67       1.0  0.52677  0.95728  0.14945  1.0000 -0.5491737976
O   O68       1.0  0.80783  0.37732  0.85055  1.0000 -0.5491737976
O   O69       1.0  0.62268  0.47323  0.43051  1.0000 -0.5491737976
O   O70       1.0  0.04272  0.19217  0.56949  1.0000 -0.5491737976
O   O71       1.0  0.47323  0.04272  0.85055  1.0000 -0.5491737976
O   O72       1.0  0.19217  0.62268  0.14945  1.0000 -0.5491737976
O   O73       1.0  0.38719  0.52370  0.65487  1.0000 -0.5393972023
O   O74       1.0  0.86883  0.73232  0.34513  1.0000 -0.5393972023
O   O75       1.0  0.52370  0.86883  0.13651  1.0000 -0.5393972023
O   O76       1.0  0.73232  0.38719  0.86349  1.0000 -0.5393972023
O   O77       1.0  0.61281  0.47630  0.34513  1.0000 -0.5393972023
O   O78       1.0  0.13117  0.26768  0.65487  1.0000 -0.5393972023
O   O79       1.0  0.47630  0.13117  0.86349  1.0000 -0.5393972023
O   O80       1.0  0.26768  0.61281  0.13651  1.0000 -0.5393972023
O   O81       1.0  0.22313  0.53782  0.68659  1.0000 -0.5222071186
O   O82       1.0  0.85123  0.53654  0.31341  1.0000 -0.5222071186
O   O83       1.0  0.53782  0.85123  0.31469  1.0000 -0.5222071186
O   O84       1.0  0.53654  0.22313  0.68531  1.0000 -0.5222071186
O   O85       1.0  0.77687  0.46218  0.31341  1.0000 -0.5222071186
O   O86       1.0  0.14877  0.46346  0.68659  1.0000 -0.5222071186
O   O87       1.0  0.46218  0.14877  0.68531  1.0000 -0.5222071186
O   O88       1.0  0.46346  0.77687  0.31469  1.0000 -0.5222071186
O   O89       1.0  0.14181  0.54921  0.61698  1.0000 -0.5491737976
O   O90       1.0  0.93223  0.52483  0.38302  1.0000 -0.5491737976
O   O91       1.0  0.54921  0.93223  0.40740  1.0000 -0.5491737976
O   O92       1.0  0.52483  0.14181  0.59260  1.0000 -0.5491737976
O   O93       1.0  0.85819  0.45079  0.38302  1.0000 -0.5491737976
O   O94       1.0  0.06777  0.47517  0.61698  1.0000 -0.5491737976
O   O95       1.0  0.45079  0.06777  0.59260  1.0000 -0.5491737976
O   O96       1.0  0.47517  0.85819  0.40740  1.0000 -0.5491737976
