# DDEC6 charges by PACMAN v1.1 (https://github.com/mtap-research/PACMAN-charge/)
data_2013[Cu][nan]3[ASR]11
_chemical_formula_sum              "Cu8 H16 C28 S4 N16"
_cell_length_a       12.3245
_cell_length_b       12.3245
_cell_length_c       5.961
_cell_angle_alpha    90
_cell_angle_beta     90
_cell_angle_gamma    90

_symmetry_space_group_name_H-M    "P 1"
_symmetry_Int_Tables_number       1

loop_
  _symmetry_equiv_pos_as_xyz
  'x, y, z'

loop_
  _atom_site_type_symbol
  _atom_site_label
  _atom_site_symmetry_multiplicity
  _atom_site_fract_x
  _atom_site_fract_y
  _atom_site_fract_z
  _atom_site_occupancy
  _atom_site_charge
Cu  Cu1       1.0  0.66814  0.13675  0.45271  1.0000 0.2828653883
Cu  Cu2       1.0  0.33186  0.86325  0.45271  1.0000 0.2828653883
Cu  Cu3       1.0  0.86325  0.66814  0.95271  1.0000 0.2828653883
Cu  Cu4       1.0  0.13675  0.33186  0.95271  1.0000 0.2828653883
Cu  Cu5       1.0  0.86544  0.02559  0.59501  1.0000 0.2955108639
Cu  Cu6       1.0  0.13456  0.97441  0.59501  1.0000 0.2955108639
Cu  Cu7       1.0  0.97441  0.86544  0.09501  1.0000 0.2955108639
Cu  Cu8       1.0  0.02559  0.13456  0.09501  1.0000 0.2955108639
H   H1        1.0  0.47513  0.16469  0.60119  1.0000 0.0915417606
H   H2        1.0  0.52487  0.83531  0.60119  1.0000 0.0915417606
H   H3        1.0  0.83531  0.47513  0.10119  1.0000 0.0915417606
H   H4        1.0  0.16469  0.52487  0.10119  1.0000 0.0915417606
H   H5        1.0  0.28799  0.24675  0.61130  1.0000 0.0793457907
H   H6        1.0  0.71201  0.75325  0.61130  1.0000 0.0793457907
H   H7        1.0  0.75325  0.28799  0.11130  1.0000 0.0793457907
H   H8        1.0  0.24675  0.71201  0.11130  1.0000 0.0793457907
H   H9        1.0  0.29005  0.24885  0.30549  1.0000 0.0793457907
H   H10       1.0  0.70995  0.75115  0.30549  1.0000 0.0793457907
H   H11       1.0  0.75115  0.29005  0.80549  1.0000 0.0793457907
H   H12       1.0  0.24885  0.70995  0.80549  1.0000 0.0793457907
H   H13       1.0  0.47552  0.16291  0.31350  1.0000 0.0915417606
H   H14       1.0  0.52448  0.83709  0.31350  1.0000 0.0915417606
H   H15       1.0  0.83709  0.47552  0.81350  1.0000 0.0915417606
H   H16       1.0  0.16291  0.52448  0.81350  1.0000 0.0915417606
C   C1        1.0  0.75614  0.05491  0.05500  1.0000 0.3191018831
C   C2        1.0  0.24386  0.94509  0.05500  1.0000 0.3191018831
C   C3        1.0  0.94509  0.75614  0.55500  1.0000 0.3191018831
C   C4        1.0  0.05491  0.24386  0.55500  1.0000 0.3191018831
C   C5        1.0  0.59853  0.11475  0.95442  1.0000 0.2482684087
C   C6        1.0  0.40147  0.88525  0.95442  1.0000 0.2482684087
C   C7        1.0  0.88525  0.59853  0.45442  1.0000 0.2482684087
C   C8        1.0  0.11475  0.40147  0.45442  1.0000 0.2482684087
C   C9        1.0  0.49032  0.15996  0.95726  1.0000 0.0793457907
C   C10       1.0  0.50968  0.84004  0.95726  1.0000 0.0793457907
C   C11       1.0  0.84004  0.49032  0.45726  1.0000 0.0793457907
C   C12       1.0  0.15996  0.50968  0.45726  1.0000 0.0793457907
C   C13       1.0  0.43482  0.18364  0.75647  1.0000 -0.1626102943
C   C14       1.0  0.56518  0.81636  0.75647  1.0000 -0.1626102943
C   C15       1.0  0.81636  0.43482  0.25647  1.0000 -0.1626102943
C   C16       1.0  0.18364  0.56518  0.25647  1.0000 -0.1626102943
C   C17       1.0  0.33295  0.22997  0.76389  1.0000 0.0915417606
C   C18       1.0  0.66705  0.77003  0.76389  1.0000 0.0915417606
C   C19       1.0  0.77003  0.33295  0.26389  1.0000 0.0915417606
C   C20       1.0  0.22997  0.66705  0.26389  1.0000 0.0915417606
C   C21       1.0  0.33368  0.23059  0.15223  1.0000 0.0915417606
C   C22       1.0  0.66632  0.76941  0.15223  1.0000 0.0915417606
C   C23       1.0  0.76941  0.33368  0.65223  1.0000 0.0915417606
C   C24       1.0  0.23059  0.66632  0.65223  1.0000 0.0915417606
C   C25       1.0  0.43523  0.18295  0.15834  1.0000 -0.1626102943
C   C26       1.0  0.56477  0.81705  0.15834  1.0000 -0.1626102943
C   C27       1.0  0.81705  0.43523  0.65834  1.0000 -0.1626102943
C   C28       1.0  0.18295  0.56477  0.65834  1.0000 -0.1626102943
S   S1        1.0  0.87226  0.02258  0.20984  1.0000 -0.3906165827
S   S2        1.0  0.12774  0.97742  0.20984  1.0000 -0.3906165827
S   S3        1.0  0.97742  0.87226  0.70984  1.0000 -0.3906165827
S   S4        1.0  0.02258  0.12774  0.70984  1.0000 -0.3906165827
N   N1        1.0  0.75378  0.05239  0.82692  1.0000 -0.2081611548
N   N2        1.0  0.24622  0.94761  0.82692  1.0000 -0.2081611548
N   N3        1.0  0.94761  0.75378  0.32692  1.0000 -0.2081611548
N   N4        1.0  0.05239  0.24622  0.32692  1.0000 -0.2081611548
N   N5        1.0  0.28230  0.25685  0.95820  1.0000 -0.2081611548
N   N6        1.0  0.71770  0.74315  0.95820  1.0000 -0.2081611548
N   N7        1.0  0.74315  0.28230  0.45820  1.0000 -0.2081611548
N   N8        1.0  0.25685  0.71770  0.45820  1.0000 -0.2081611548
N   N9        1.0  0.65339  0.08990  0.76105  1.0000 -0.2271748949
N   N10       1.0  0.34661  0.91010  0.76105  1.0000 -0.2271748949
N   N11       1.0  0.91010  0.65339  0.26105  1.0000 -0.2271748949
N   N12       1.0  0.08990  0.34661  0.26105  1.0000 -0.2271748949
N   N13       1.0  0.66010  0.09126  0.14286  1.0000 -0.3906165827
N   N14       1.0  0.33990  0.90874  0.14286  1.0000 -0.3906165827
N   N15       1.0  0.90874  0.66010  0.64286  1.0000 -0.3906165827
N   N16       1.0  0.09126  0.33990  0.64286  1.0000 -0.3906165827
