# DDEC6 charges by PACMAN v1.1 (https://github.com/mtap-research/PACMAN-charge/)
data_2013[Zn][crb]3[ASR]3
_chemical_formula_sum              "Zn8 H96 C144 N16 O24"
_cell_length_a       26.4366
_cell_length_b       26.4366
_cell_length_c       5.3287
_cell_angle_alpha    90
_cell_angle_beta     90
_cell_angle_gamma    90

_symmetry_space_group_name_H-M    "P 1"
_symmetry_Int_Tables_number       1

loop_
  _symmetry_equiv_pos_as_xyz
  'x, y, z'

loop_
  _atom_site_type_symbol
  _atom_site_label
  _atom_site_symmetry_multiplicity
  _atom_site_fract_x
  _atom_site_fract_y
  _atom_site_fract_z
  _atom_site_occupancy
  _atom_site_charge
Zn  Zn1       1.0  0.72623  0.71490  0.33260  1.0000 0.880139395
Zn  Zn2       1.0  0.22623  0.21490  0.83260  1.0000 0.880139395
Zn  Zn3       1.0  0.27377  0.28510  0.33260  1.0000 0.880139395
Zn  Zn4       1.0  0.77377  0.78510  0.83260  1.0000 0.880139395
Zn  Zn5       1.0  0.71490  0.27377  0.66740  1.0000 0.880139395
Zn  Zn6       1.0  0.21490  0.77377  0.16740  1.0000 0.880139395
Zn  Zn7       1.0  0.28510  0.72623  0.66740  1.0000 0.880139395
Zn  Zn8       1.0  0.78510  0.22623  0.16740  1.0000 0.880139395
H   H1        1.0  0.83200  0.50650  0.53110  1.0000 0.1182851506
H   H2        1.0  0.81270  0.67930  0.72660  1.0000 0.1313364872
H   H3        1.0  0.87710  0.66970  0.05710  1.0000 0.11283981
H   H4        1.0  0.90010  0.50060  0.84640  1.0000 0.11283981
H   H5        1.0  0.94800  0.53760  0.15080  1.0000 0.0990697769
H   H6        1.0  0.70460  0.60710  0.11560  1.0000 0.1182851506
H   H7        1.0  0.93510  0.62130  0.26630  1.0000 0.0990697769
H   H8        1.0  0.81160  0.48560  0.10680  1.0000 0.1182851506
H   H9        1.0  0.78610  0.40490  0.96830  1.0000 0.1182851506
H   H10       1.0  0.66790  0.52140  0.20940  1.0000 0.137444046
H   H11       1.0  0.64250  0.45300  0.99270  1.0000 0.1313364872
H   H12       1.0  0.30250  0.24247  0.82510  1.0000 0.3245648139
H   H13       1.0  0.33200  0.00650  0.03110  1.0000 0.1182851506
H   H14       1.0  0.31270  0.17930  0.22660  1.0000 0.1313364872
H   H15       1.0  0.37710  0.16970  0.55710  1.0000 0.11283981
H   H16       1.0  0.40010  0.00060  0.34640  1.0000 0.11283981
H   H17       1.0  0.44800  0.03760  0.65080  1.0000 0.0990697769
H   H18       1.0  0.20460  0.10710  0.61560  1.0000 0.1182851506
H   H19       1.0  0.43510  0.12130  0.76630  1.0000 0.0990697769
H   H20       1.0  0.31160  0.98560  0.60680  1.0000 0.1182851506
H   H21       1.0  0.28610  0.90490  0.46830  1.0000 0.1182851506
H   H22       1.0  0.16790  0.02140  0.70940  1.0000 0.137444046
H   H23       1.0  0.14250  0.95300  0.49270  1.0000 0.1313364872
H   H24       1.0  0.80250  0.74247  0.32510  1.0000 0.3245648139
H   H25       1.0  0.16800  0.49350  0.53110  1.0000 0.1182851506
H   H26       1.0  0.18730  0.32070  0.72660  1.0000 0.1313364872
H   H27       1.0  0.12290  0.33030  0.05710  1.0000 0.11283981
H   H28       1.0  0.09990  0.49940  0.84640  1.0000 0.11283981
H   H29       1.0  0.05200  0.46240  0.15080  1.0000 0.0990697769
H   H30       1.0  0.29540  0.39290  0.11560  1.0000 0.1182851506
H   H31       1.0  0.06490  0.37870  0.26630  1.0000 0.0990697769
H   H32       1.0  0.18840  0.51440  0.10680  1.0000 0.1182851506
H   H33       1.0  0.21390  0.59510  0.96830  1.0000 0.1182851506
H   H34       1.0  0.33210  0.47860  0.20940  1.0000 0.137444046
H   H35       1.0  0.35750  0.54700  0.99270  1.0000 0.1313364872
H   H36       1.0  0.69750  0.75753  0.82510  1.0000 0.3245648139
H   H37       1.0  0.66800  0.99350  0.03110  1.0000 0.1182851506
H   H38       1.0  0.68730  0.82070  0.22660  1.0000 0.1313364872
H   H39       1.0  0.62290  0.83030  0.55710  1.0000 0.11283981
H   H40       1.0  0.59990  0.99940  0.34640  1.0000 0.11283981
H   H41       1.0  0.55200  0.96240  0.65080  1.0000 0.0990697769
H   H42       1.0  0.79540  0.89290  0.61560  1.0000 0.1182851506
H   H43       1.0  0.56490  0.87870  0.76630  1.0000 0.0990697769
H   H44       1.0  0.68840  0.01440  0.60680  1.0000 0.1182851506
H   H45       1.0  0.71390  0.09510  0.46830  1.0000 0.1182851506
H   H46       1.0  0.83210  0.97860  0.70940  1.0000 0.137444046
H   H47       1.0  0.85750  0.04700  0.49270  1.0000 0.1313364872
H   H48       1.0  0.19750  0.25753  0.32510  1.0000 0.3245648139
H   H49       1.0  0.50650  0.16800  0.46890  1.0000 0.1182851506
H   H50       1.0  0.67930  0.18730  0.27340  1.0000 0.1313364872
H   H51       1.0  0.66970  0.12290  0.94290  1.0000 0.11283981
H   H52       1.0  0.50060  0.09990  0.15360  1.0000 0.11283981
H   H53       1.0  0.53760  0.05200  0.84920  1.0000 0.0990697769
H   H54       1.0  0.60710  0.29540  0.88440  1.0000 0.1182851506
H   H55       1.0  0.62130  0.06490  0.73370  1.0000 0.0990697769
H   H56       1.0  0.48560  0.18840  0.89320  1.0000 0.1182851506
H   H57       1.0  0.40490  0.21390  0.03170  1.0000 0.1182851506
H   H58       1.0  0.52140  0.33210  0.79060  1.0000 0.137444046
H   H59       1.0  0.45300  0.35750  0.00730  1.0000 0.1313364872
H   H60       1.0  0.24247  0.69750  0.17490  1.0000 0.3245648139
H   H61       1.0  0.00650  0.66800  0.96890  1.0000 0.1182851506
H   H62       1.0  0.17930  0.68730  0.77340  1.0000 0.1313364872
H   H63       1.0  0.16970  0.62290  0.44290  1.0000 0.11283981
H   H64       1.0  0.00060  0.59990  0.65360  1.0000 0.11283981
H   H65       1.0  0.03760  0.55200  0.34920  1.0000 0.0990697769
H   H66       1.0  0.10710  0.79540  0.38440  1.0000 0.1182851506
H   H67       1.0  0.12130  0.56490  0.23370  1.0000 0.0990697769
H   H68       1.0  0.98560  0.68840  0.39320  1.0000 0.1182851506
H   H69       1.0  0.90490  0.71390  0.53170  1.0000 0.1182851506
H   H70       1.0  0.02140  0.83210  0.29060  1.0000 0.137444046
H   H71       1.0  0.95300  0.85750  0.50730  1.0000 0.1313364872
H   H72       1.0  0.74247  0.19750  0.67490  1.0000 0.3245648139
H   H73       1.0  0.49350  0.83200  0.46890  1.0000 0.1182851506
H   H74       1.0  0.32070  0.81270  0.27340  1.0000 0.1313364872
H   H75       1.0  0.33030  0.87710  0.94290  1.0000 0.11283981
H   H76       1.0  0.49940  0.90010  0.15360  1.0000 0.11283981
H   H77       1.0  0.46240  0.94800  0.84920  1.0000 0.0990697769
H   H78       1.0  0.39290  0.70460  0.88440  1.0000 0.1182851506
H   H79       1.0  0.37870  0.93510  0.73370  1.0000 0.0990697769
H   H80       1.0  0.51440  0.81160  0.89320  1.0000 0.1182851506
H   H81       1.0  0.59510  0.78610  0.03170  1.0000 0.1182851506
H   H82       1.0  0.47860  0.66790  0.79060  1.0000 0.137444046
H   H83       1.0  0.54700  0.64250  0.00730  1.0000 0.1313364872
H   H84       1.0  0.75753  0.30250  0.17490  1.0000 0.3245648139
H   H85       1.0  0.99350  0.33200  0.96890  1.0000 0.1182851506
H   H86       1.0  0.82070  0.31270  0.77340  1.0000 0.1313364872
H   H87       1.0  0.83030  0.37710  0.44290  1.0000 0.11283981
H   H88       1.0  0.99940  0.40010  0.65360  1.0000 0.11283981
H   H89       1.0  0.96240  0.44800  0.34920  1.0000 0.0990697769
H   H90       1.0  0.89290  0.20460  0.38440  1.0000 0.1182851506
H   H91       1.0  0.87870  0.43510  0.23370  1.0000 0.0990697769
H   H92       1.0  0.01440  0.31160  0.39320  1.0000 0.1182851506
H   H93       1.0  0.09510  0.28610  0.53170  1.0000 0.1182851506
H   H94       1.0  0.97860  0.16790  0.29060  1.0000 0.137444046
H   H95       1.0  0.04700  0.14250  0.50730  1.0000 0.1313364872
H   H96       1.0  0.25753  0.80250  0.67490  1.0000 0.3245648139
C   C1        1.0  0.74157  0.51149  0.17340  1.0000 0.1545479142
C   C2        1.0  0.82774  0.54038  0.57240  1.0000 -0.2486170499
C   C3        1.0  0.79160  0.56947  0.45430  1.0000 0.0990697769
C   C4        1.0  0.85277  0.61560  0.81480  1.0000 0.0743277067
C   C5        1.0  0.85786  0.56330  0.75620  1.0000 0.0779257746
C   C6        1.0  0.81676  0.64515  0.68880  1.0000 -0.2486170499
C   C7        1.0  0.78733  0.62200  0.50580  1.0000 0.137444046
C   C8        1.0  0.88160  0.63600  0.01140  1.0000 -0.1584405644
C   C9        1.0  0.89510  0.53450  0.88640  1.0000 -0.173707158
C   C10       1.0  0.92340  0.55660  0.06890  1.0000 -0.111905147
C   C11       1.0  0.73140  0.60402  0.22770  1.0000 0.137444046
C   C12       1.0  0.91630  0.60720  0.13640  1.0000 -0.1159569702
C   C13       1.0  0.77740  0.47740  0.09900  1.0000 -0.2070851649
C   C14       1.0  0.71500  0.41887  0.98360  1.0000 -0.0334118536
C   C15       1.0  0.76190  0.42910  0.00900  1.0000 -0.0805414572
C   C16       1.0  0.69200  0.49920  0.14600  1.0000 -0.1584405644
C   C17       1.0  0.67630  0.45770  0.03600  1.0000 -0.0805414572
C   C18       1.0  0.69590  0.36920  0.89700  1.0000 0.5077427247
C   C19       1.0  0.24157  0.01149  0.67340  1.0000 0.1545479142
C   C20       1.0  0.32774  0.04038  0.07240  1.0000 -0.2486170499
C   C21       1.0  0.29160  0.06947  0.95430  1.0000 0.0990697769
C   C22       1.0  0.35277  0.11560  0.31480  1.0000 0.0743277067
C   C23       1.0  0.35786  0.06330  0.25620  1.0000 0.0779257746
C   C24       1.0  0.31676  0.14515  0.18880  1.0000 -0.2486170499
C   C25       1.0  0.28733  0.12200  0.00580  1.0000 0.137444046
C   C26       1.0  0.38160  0.13600  0.51140  1.0000 -0.1584405644
C   C27       1.0  0.39510  0.03450  0.38640  1.0000 -0.173707158
C   C28       1.0  0.42340  0.05660  0.56890  1.0000 -0.111905147
C   C29       1.0  0.23140  0.10402  0.72770  1.0000 0.137444046
C   C30       1.0  0.41630  0.10720  0.63640  1.0000 -0.1159569702
C   C31       1.0  0.27740  0.97740  0.59900  1.0000 -0.2070851649
C   C32       1.0  0.21500  0.91887  0.48360  1.0000 -0.0334118536
C   C33       1.0  0.26190  0.92910  0.50900  1.0000 -0.0805414572
C   C34       1.0  0.19200  0.99920  0.64600  1.0000 -0.1584405644
C   C35       1.0  0.17630  0.95770  0.53600  1.0000 -0.0805414572
C   C36       1.0  0.19590  0.86920  0.39700  1.0000 0.5077427247
C   C37       1.0  0.25843  0.48851  0.17340  1.0000 0.1545479142
C   C38       1.0  0.17226  0.45962  0.57240  1.0000 -0.2486170499
C   C39       1.0  0.20840  0.43053  0.45430  1.0000 0.0990697769
C   C40       1.0  0.14723  0.38440  0.81480  1.0000 0.0743277067
C   C41       1.0  0.14214  0.43670  0.75620  1.0000 0.0779257746
C   C42       1.0  0.18324  0.35485  0.68880  1.0000 -0.2486170499
C   C43       1.0  0.21267  0.37800  0.50580  1.0000 0.137444046
C   C44       1.0  0.11840  0.36400  0.01140  1.0000 -0.1584405644
C   C45       1.0  0.10490  0.46550  0.88640  1.0000 -0.173707158
C   C46       1.0  0.07660  0.44340  0.06890  1.0000 -0.111905147
C   C47       1.0  0.26860  0.39598  0.22770  1.0000 0.137444046
C   C48       1.0  0.08370  0.39280  0.13640  1.0000 -0.1159569702
C   C49       1.0  0.22260  0.52260  0.09900  1.0000 -0.2070851649
C   C50       1.0  0.28500  0.58113  0.98360  1.0000 -0.0334118536
C   C51       1.0  0.23810  0.57090  0.00900  1.0000 -0.0805414572
C   C52       1.0  0.30800  0.50080  0.14600  1.0000 -0.1584405644
C   C53       1.0  0.32370  0.54230  0.03600  1.0000 -0.0805414572
C   C54       1.0  0.30410  0.63080  0.89700  1.0000 0.5077427247
C   C55       1.0  0.75843  0.98851  0.67340  1.0000 0.1545479142
C   C56       1.0  0.67226  0.95962  0.07240  1.0000 -0.2486170499
C   C57       1.0  0.70840  0.93053  0.95430  1.0000 0.0990697769
C   C58       1.0  0.64723  0.88440  0.31480  1.0000 0.0743277067
C   C59       1.0  0.64214  0.93670  0.25620  1.0000 0.0779257746
C   C60       1.0  0.68324  0.85485  0.18880  1.0000 -0.2486170499
C   C61       1.0  0.71267  0.87800  0.00580  1.0000 0.137444046
C   C62       1.0  0.61840  0.86400  0.51140  1.0000 -0.1584405644
C   C63       1.0  0.60490  0.96550  0.38640  1.0000 -0.173707158
C   C64       1.0  0.57660  0.94340  0.56890  1.0000 -0.111905147
C   C65       1.0  0.76860  0.89598  0.72770  1.0000 0.137444046
C   C66       1.0  0.58370  0.89280  0.63640  1.0000 -0.1159569702
C   C67       1.0  0.72260  0.02260  0.59900  1.0000 -0.2070851649
C   C68       1.0  0.78500  0.08113  0.48360  1.0000 -0.0334118536
C   C69       1.0  0.73810  0.07090  0.50900  1.0000 -0.0805414572
C   C70       1.0  0.80800  0.00080  0.64600  1.0000 -0.1584405644
C   C71       1.0  0.82370  0.04230  0.53600  1.0000 -0.0805414572
C   C72       1.0  0.80410  0.13080  0.39700  1.0000 0.5077427247
C   C73       1.0  0.51149  0.25843  0.82660  1.0000 0.1545479142
C   C74       1.0  0.54038  0.17226  0.42760  1.0000 -0.2486170499
C   C75       1.0  0.56947  0.20840  0.54570  1.0000 0.0990697769
C   C76       1.0  0.61560  0.14723  0.18520  1.0000 0.0743277067
C   C77       1.0  0.56330  0.14214  0.24380  1.0000 0.0779257746
C   C78       1.0  0.64515  0.18324  0.31120  1.0000 -0.2486170499
C   C79       1.0  0.62200  0.21267  0.49420  1.0000 0.137444046
C   C80       1.0  0.63600  0.11840  0.98860  1.0000 -0.1584405644
C   C81       1.0  0.53450  0.10490  0.11360  1.0000 -0.173707158
C   C82       1.0  0.55660  0.07660  0.93110  1.0000 -0.111905147
C   C83       1.0  0.60402  0.26860  0.77230  1.0000 0.137444046
C   C84       1.0  0.60720  0.08370  0.86360  1.0000 -0.1159569702
C   C85       1.0  0.47740  0.22260  0.90100  1.0000 -0.2070851649
C   C86       1.0  0.41887  0.28500  0.01640  1.0000 -0.0334118536
C   C87       1.0  0.42910  0.23810  0.99100  1.0000 -0.0805414572
C   C88       1.0  0.49920  0.30800  0.85400  1.0000 -0.1584405644
C   C89       1.0  0.45770  0.32370  0.96400  1.0000 -0.0805414572
C   C90       1.0  0.36920  0.30410  0.10300  1.0000 0.5077427247
C   C91       1.0  0.01149  0.75843  0.32660  1.0000 0.1545479142
C   C92       1.0  0.04038  0.67226  0.92760  1.0000 -0.2486170499
C   C93       1.0  0.06947  0.70840  0.04570  1.0000 0.0990697769
C   C94       1.0  0.11560  0.64723  0.68520  1.0000 0.0743277067
C   C95       1.0  0.06330  0.64214  0.74380  1.0000 0.0779257746
C   C96       1.0  0.14515  0.68324  0.81120  1.0000 -0.2486170499
C   C97       1.0  0.12200  0.71267  0.99420  1.0000 0.137444046
C   C98       1.0  0.13600  0.61840  0.48860  1.0000 -0.1584405644
C   C99       1.0  0.03450  0.60490  0.61360  1.0000 -0.173707158
C   C100      1.0  0.05660  0.57660  0.43110  1.0000 -0.111905147
C   C101      1.0  0.10402  0.76860  0.27230  1.0000 0.137444046
C   C102      1.0  0.10720  0.58370  0.36360  1.0000 -0.1159569702
C   C103      1.0  0.97740  0.72260  0.40100  1.0000 -0.2070851649
C   C104      1.0  0.91887  0.78500  0.51640  1.0000 -0.0334118536
C   C105      1.0  0.92910  0.73810  0.49100  1.0000 -0.0805414572
C   C106      1.0  0.99920  0.80800  0.35400  1.0000 -0.1584405644
C   C107      1.0  0.95770  0.82370  0.46400  1.0000 -0.0805414572
C   C108      1.0  0.86920  0.80410  0.60300  1.0000 0.5077427247
C   C109      1.0  0.48851  0.74157  0.82660  1.0000 0.1545479142
C   C110      1.0  0.45962  0.82774  0.42760  1.0000 -0.2486170499
C   C111      1.0  0.43053  0.79160  0.54570  1.0000 0.0990697769
C   C112      1.0  0.38440  0.85277  0.18520  1.0000 0.0743277067
C   C113      1.0  0.43670  0.85786  0.24380  1.0000 0.0779257746
C   C114      1.0  0.35485  0.81676  0.31120  1.0000 -0.2486170499
C   C115      1.0  0.37800  0.78733  0.49420  1.0000 0.137444046
C   C116      1.0  0.36400  0.88160  0.98860  1.0000 -0.1584405644
C   C117      1.0  0.46550  0.89510  0.11360  1.0000 -0.173707158
C   C118      1.0  0.44340  0.92340  0.93110  1.0000 -0.111905147
C   C119      1.0  0.39598  0.73140  0.77230  1.0000 0.137444046
C   C120      1.0  0.39280  0.91630  0.86360  1.0000 -0.1159569702
C   C121      1.0  0.52260  0.77740  0.90100  1.0000 -0.2070851649
C   C122      1.0  0.58113  0.71500  0.01640  1.0000 -0.0334118536
C   C123      1.0  0.57090  0.76190  0.99100  1.0000 -0.0805414572
C   C124      1.0  0.50080  0.69200  0.85400  1.0000 -0.1584405644
C   C125      1.0  0.54230  0.67630  0.96400  1.0000 -0.0805414572
C   C126      1.0  0.63080  0.69590  0.10300  1.0000 0.5077427247
C   C127      1.0  0.98851  0.24157  0.32660  1.0000 0.1545479142
C   C128      1.0  0.95962  0.32774  0.92760  1.0000 -0.2486170499
C   C129      1.0  0.93053  0.29160  0.04570  1.0000 0.0990697769
C   C130      1.0  0.88440  0.35277  0.68520  1.0000 0.0743277067
C   C131      1.0  0.93670  0.35786  0.74380  1.0000 0.0779257746
C   C132      1.0  0.85485  0.31676  0.81120  1.0000 -0.2486170499
C   C133      1.0  0.87800  0.28733  0.99420  1.0000 0.137444046
C   C134      1.0  0.86400  0.38160  0.48860  1.0000 -0.1584405644
C   C135      1.0  0.96550  0.39510  0.61360  1.0000 -0.173707158
C   C136      1.0  0.94340  0.42340  0.43110  1.0000 -0.111905147
C   C137      1.0  0.89598  0.23140  0.27230  1.0000 0.137444046
C   C138      1.0  0.89280  0.41630  0.36360  1.0000 -0.1159569702
C   C139      1.0  0.02260  0.27740  0.40100  1.0000 -0.2070851649
C   C140      1.0  0.08113  0.21500  0.51640  1.0000 -0.0334118536
C   C141      1.0  0.07090  0.26190  0.49100  1.0000 -0.0805414572
C   C142      1.0  0.00080  0.19200  0.35400  1.0000 -0.1584405644
C   C143      1.0  0.04230  0.17630  0.46400  1.0000 -0.0805414572
C   C144      1.0  0.13080  0.19590  0.60300  1.0000 0.5077427247
N   N1        1.0  0.74947  0.64139  0.35640  1.0000 -0.3473216487
N   N2        1.0  0.75587  0.55987  0.27460  1.0000 -0.0513769394
N   N3        1.0  0.24947  0.14139  0.85640  1.0000 -0.3473216487
N   N4        1.0  0.25587  0.05987  0.77460  1.0000 -0.0513769394
N   N5        1.0  0.25053  0.35861  0.35640  1.0000 -0.3473216487
N   N6        1.0  0.24413  0.44013  0.27460  1.0000 -0.0513769394
N   N7        1.0  0.75053  0.85861  0.85640  1.0000 -0.3473216487
N   N8        1.0  0.74413  0.94013  0.77460  1.0000 -0.0513769394
N   N9        1.0  0.64139  0.25053  0.64360  1.0000 -0.3473216487
N   N10       1.0  0.55987  0.24413  0.72540  1.0000 -0.0513769394
N   N11       1.0  0.14139  0.75053  0.14360  1.0000 -0.3473216487
N   N12       1.0  0.05987  0.74413  0.22540  1.0000 -0.0513769394
N   N13       1.0  0.35861  0.74947  0.64360  1.0000 -0.3473216487
N   N14       1.0  0.44013  0.75587  0.72540  1.0000 -0.0513769394
N   N15       1.0  0.85861  0.24947  0.14360  1.0000 -0.3473216487
N   N16       1.0  0.94013  0.25587  0.22540  1.0000 -0.0513769394
O   O1        1.0  0.22398  0.24618  0.15620  1.0000 -0.8329219824
O   O2        1.0  0.72421  0.33484  0.86030  1.0000 -0.4251428551
O   O3        1.0  0.65530  0.35790  0.81800  1.0000 -0.4186790565
O   O4        1.0  0.72398  0.74618  0.65620  1.0000 -0.8329219824
O   O5        1.0  0.22421  0.83484  0.36030  1.0000 -0.4251428551
O   O6        1.0  0.15530  0.85790  0.31800  1.0000 -0.4186790565
O   O7        1.0  0.77602  0.75382  0.15620  1.0000 -0.8329219824
O   O8        1.0  0.27579  0.66516  0.86030  1.0000 -0.4251428551
O   O9        1.0  0.34470  0.64210  0.81800  1.0000 -0.4186790565
O   O10       1.0  0.27602  0.25382  0.65620  1.0000 -0.8329219824
O   O11       1.0  0.77579  0.16516  0.36030  1.0000 -0.4186790565
O   O12       1.0  0.84470  0.14210  0.31800  1.0000 -0.4186790565
O   O13       1.0  0.24618  0.77602  0.84380  1.0000 -0.8329219824
O   O14       1.0  0.33484  0.27579  0.13970  1.0000 -0.4186790565
O   O15       1.0  0.35790  0.34470  0.18200  1.0000 -0.4186790565
O   O16       1.0  0.74618  0.27602  0.34380  1.0000 -0.8329219824
O   O17       1.0  0.83484  0.77579  0.63970  1.0000 -0.4251428551
O   O18       1.0  0.85790  0.84470  0.68200  1.0000 -0.4186790565
O   O19       1.0  0.75382  0.22398  0.84380  1.0000 -0.8329219824
O   O20       1.0  0.66516  0.72421  0.13970  1.0000 -0.4251428551
O   O21       1.0  0.64210  0.65530  0.18200  1.0000 -0.4186790565
O   O22       1.0  0.25382  0.72398  0.34380  1.0000 -0.8329219824
O   O23       1.0  0.16516  0.22421  0.63970  1.0000 -0.4186790565
O   O24       1.0  0.14210  0.15530  0.68200  1.0000 -0.4186790565
