# DDEC6 charges by PACMAN v1.1 (https://github.com/mtap-research/PACMAN-charge/)
data_2013[MoCo][nan]3[ASR]1
_chemical_formula_sum              "Co2 Mo8 H24 C24 N18 O26"
_cell_length_a       10.549
_cell_length_b       10.842
_cell_length_c       13.8
_cell_angle_alpha    87.135
_cell_angle_beta     72.428
_cell_angle_gamma    66.412

_symmetry_space_group_name_H-M    "P 1"
_symmetry_Int_Tables_number       1

loop_
  _symmetry_equiv_pos_as_xyz
  'x, y, z'

loop_
  _atom_site_type_symbol
  _atom_site_label
  _atom_site_symmetry_multiplicity
  _atom_site_fract_x
  _atom_site_fract_y
  _atom_site_fract_z
  _atom_site_occupancy
  _atom_site_charge
Co  Co1       1.0  0.49646  0.67225  0.84095  1.0000 0.9783357891
Co  Co2       1.0  0.50352  0.32777  0.15907  1.0000 0.9743747625
Mo  Mo1       1.0  0.01878  0.50442  0.86638  1.0000 2.1793516192
Mo  Mo2       1.0  0.98122  0.49559  0.13362  1.0000 2.1793516192
Mo  Mo3       1.0  0.32610  0.20933  0.86690  1.0000 2.1235768112
Mo  Mo4       1.0  0.67390  0.79067  0.13309  1.0000 2.1235768112
Mo  Mo5       1.0  0.00743  0.22332  0.01939  1.0000 2.0881262335
Mo  Mo6       1.0  0.99258  0.77668  0.98061  1.0000 2.0881262335
Mo  Mo7       1.0  0.29003  0.48458  0.98741  1.0000 2.2086265596
Mo  Mo8       1.0  0.70997  0.51542  0.01259  1.0000 2.2086265596
H   H1        1.0  0.48672  0.40674  0.73904  1.0000 0.1372262786
H   H2        1.0  0.51329  0.59326  0.26096  1.0000 0.1372262786
H   H3        1.0  0.67198  0.25941  0.50740  1.0000 0.0989168349
H   H4        1.0  0.32802  0.74059  0.49260  1.0000 0.0989168349
H   H5        1.0  0.62849  0.18199  0.62018  1.0000 0.1281176396
H   H6        1.0  0.37151  0.81801  0.37982  1.0000 0.1281176396
H   H7        1.0  0.00274  0.76542  0.68420  1.0000 0.1281176396
H   H8        1.0  0.99726  0.23457  0.31580  1.0000 0.1281176396
H   H9        1.0  0.15482  0.67963  0.58076  1.0000 0.0989168349
H   H10       1.0  0.84518  0.32037  0.41924  1.0000 0.0989168349
H   H11       1.0  0.26829  0.97272  0.80883  1.0000 0.1132558051
H   H12       1.0  0.73171  0.02728  0.19117  1.0000 0.1132558051
H   H13       1.0  0.33125  0.58723  0.69652  1.0000 0.1195806439
H   H14       1.0  0.66875  0.41277  0.30348  1.0000 0.1195806439
H   H15       1.0  0.86866  0.96903  0.76167  1.0000 0.1372262786
H   H16       1.0  0.13134  0.03096  0.23832  1.0000 0.1372262786
H   H17       1.0  0.72334  0.10086  0.73481  1.0000 0.1132558051
H   H18       1.0  0.27666  0.89914  0.26519  1.0000 0.1132558051
H   H19       1.0  0.67867  0.86181  0.87005  1.0000 0.1466463867
H   H20       1.0  0.32133  0.13819  0.12995  1.0000 0.1466463867
H   H21       1.0  0.58706  0.76593  0.61001  1.0000 0.0989168349
H   H22       1.0  0.41294  0.23407  0.38999  1.0000 0.0989168349
H   H23       1.0  0.83658  0.52402  0.68954  1.0000 0.1132558051
H   H24       1.0  0.16342  0.47597  0.31046  1.0000 0.1132558051
C   C1        1.0  0.58946  0.41643  0.70427  1.0000 0.060021064
C   C2        1.0  0.41054  0.58356  0.29572  1.0000 0.060021064
C   C3        1.0  0.77072  0.47172  0.67966  1.0000 0.1595151835
C   C4        1.0  0.22929  0.52828  0.32034  1.0000 0.1595151835
C   C5        1.0  0.71086  0.21706  0.57261  1.0000 -0.1302816731
C   C6        1.0  0.28914  0.78294  0.42738  1.0000 -0.1302816731
C   C7        1.0  0.86053  0.10394  0.53616  1.0000 0.0247489835
C   C8        1.0  0.13947  0.89606  0.46384  1.0000 0.0247489835
C   C9        1.0  0.90587  0.99805  0.59893  1.0000 0.0310465616
C   C10       1.0  0.09413  0.00195  0.40107  1.0000 0.0310465616
C   C11       1.0  0.04678  0.89361  0.56208  1.0000 0.0310465616
C   C12       1.0  0.95322  0.10639  0.43792  1.0000 0.0310465616
C   C13       1.0  0.09570  0.77726  0.62746  1.0000 -0.136037716
C   C14       1.0  0.90430  0.22274  0.37254  1.0000 -0.136037716
C   C15       1.0  0.26320  0.89132  0.76887  1.0000 0.1724332261
C   C16       1.0  0.73680  0.10868  0.23113  1.0000 0.1724332261
C   C17       1.0  0.29659  0.69482  0.71304  1.0000 0.0654508087
C   C18       1.0  0.70341  0.30518  0.28696  1.0000 0.0654508087
C   C19       1.0  0.80743  0.99858  0.70582  1.0000 -0.1302816731
C   C20       1.0  0.19257  0.00142  0.29418  1.0000 -0.1302816731
C   C21       1.0  0.67187  0.85260  0.79343  1.0000 0.1281176396
C   C22       1.0  0.32812  0.14740  0.20657  1.0000 0.1281176396
C   C23       1.0  0.62685  0.80506  0.66042  1.0000 0.1466463867
C   C24       1.0  0.37314  0.19494  0.33959  1.0000 0.1466463867
N   N1        1.0  0.60238  0.78574  0.76400  1.0000 -0.3768220929
N   N2        1.0  0.39761  0.21427  0.23601  1.0000 -0.3768220929
N   N3        1.0  0.73276  0.90681  0.71104  1.0000 0.1724332261
N   N4        1.0  0.26725  0.09319  0.28896  1.0000 0.1724332261
N   N5        1.0  0.70420  0.87815  0.62540  1.0000 -0.2718062487
N   N6        1.0  0.29580  0.12185  0.37460  1.0000 -0.2718062487
N   N7        1.0  0.34732  0.75413  0.76838  1.0000 -0.3692318586
N   N8        1.0  0.65268  0.24587  0.23163  1.0000 -0.3692318586
N   N9        1.0  0.19064  0.79161  0.68244  1.0000 0.1595151835
N   N10       1.0  0.80937  0.20839  0.31756  1.0000 0.1595151835
N   N11       1.0  0.16690  0.91820  0.71825  1.0000 -0.2516374228
N   N12       1.0  0.83310  0.08180  0.28175  1.0000 -0.2516374228
N   N13       1.0  0.62591  0.51053  0.73536  1.0000 -0.3403066483
N   N14       1.0  0.37409  0.48947  0.26464  1.0000 -0.3403066483
N   N15       1.0  0.70650  0.32832  0.63280  1.0000 0.1595151835
N   N16       1.0  0.29350  0.67168  0.36720  1.0000 0.1595151835
N   N17       1.0  0.82482  0.36192  0.61544  1.0000 -0.2718062487
N   N18       1.0  0.17518  0.63808  0.38455  1.0000 -0.2718062487
O   O1        1.0  0.89281  0.15243  0.01208  1.0000 -0.5977881041
O   O2        1.0  0.10719  0.84756  0.98792  1.0000 -0.5977881041
O   O3        1.0  0.87514  0.39451  0.10494  1.0000 -0.9457686034
O   O4        1.0  0.12486  0.60549  0.89506  1.0000 -0.9443041769
O   O5        1.0  0.08821  0.14124  0.10825  1.0000 -0.6355892209
O   O6        1.0  0.91179  0.85876  0.89175  1.0000 -0.6355892209
O   O7        1.0  0.94637  0.59688  0.77761  1.0000 -0.6199784216
O   O8        1.0  0.05362  0.40312  0.22239  1.0000 -0.6199784216
O   O9        1.0  0.86890  0.61086  0.00172  1.0000 -1.1438152877
O   O10       1.0  0.13110  0.38914  0.99828  1.0000 -1.1438152877
O   O11       1.0  0.44253  0.12572  0.75129  1.0000 -0.6526928631
O   O12       1.0  0.55747  0.87428  0.24871  1.0000 -0.6553148118
O   O13       1.0  0.38062  0.35977  0.87237  1.0000 -0.8209813026
O   O14       1.0  0.61938  0.64023  0.12762  1.0000 -0.8209813026
O   O15       1.0  0.37880  0.39135  0.07466  1.0000 -0.7498272446
O   O16       1.0  0.62119  0.60867  0.92535  1.0000 -0.7498272446
O   O17       1.0  0.38281  0.58865  0.93177  1.0000 -0.7498272446
O   O18       1.0  0.61717  0.41136  0.06824  1.0000 -0.7498272446
O   O19       1.0  0.10357  0.59945  0.08598  1.0000 -0.93411369
O   O20       1.0  0.89643  0.40055  0.91401  1.0000 -0.93411369
O   O21       1.0  0.17770  0.36916  0.79428  1.0000 -0.7498272446
O   O22       1.0  0.82230  0.63084  0.20572  1.0000 -0.7498272446
O   O23       1.0  0.16224  0.16143  0.89541  1.0000 -0.8209813026
O   O24       1.0  0.83776  0.83857  0.10459  1.0000 -0.8209813026
O   O25       1.0  0.40064  0.12112  0.95674  1.0000 -0.6199784216
O   O26       1.0  0.59936  0.87888  0.04326  1.0000 -0.6199784216
