# DDEC6 charges by PACMAN v1.1 (https://github.com/mtap-research/PACMAN-charge/)
data_2013[PrCo][nan]3[ASR]1
_chemical_formula_sum              "Pr16 Co8 H192 C384 N64 O128"
_cell_length_a       32.9682
_cell_length_b       32.9682
_cell_length_c       32.9682
_cell_angle_alpha    91.6642
_cell_angle_beta     91.6642
_cell_angle_gamma    160.376

_symmetry_space_group_name_H-M    "P 1"
_symmetry_Int_Tables_number       1

loop_
  _symmetry_equiv_pos_as_xyz
  'x, y, z'

loop_
  _atom_site_type_symbol
  _atom_site_label
  _atom_site_symmetry_multiplicity
  _atom_site_fract_x
  _atom_site_fract_y
  _atom_site_fract_z
  _atom_site_occupancy
  _atom_site_charge
Pr  Pr1       1.0  0.83716  0.91582  0.27862  1.0000 2.032774268
Pr  Pr2       1.0  0.80854  0.58716  0.42134  1.0000 2.032774268
Pr  Pr3       1.0  0.63720  0.55854  0.72138  1.0000 2.032774268
Pr  Pr4       1.0  0.16582  0.38720  0.57866  1.0000 2.032774268
Pr  Pr5       1.0  0.41284  0.83418  0.22138  1.0000 2.032774268
Pr  Pr6       1.0  0.44146  0.16284  0.07866  1.0000 2.032774268
Pr  Pr7       1.0  0.61280  0.19146  0.77862  1.0000 2.032774268
Pr  Pr8       1.0  0.08418  0.36280  0.92134  1.0000 2.032774268
Pr  Pr9       1.0  0.33405  0.41091  0.27592  1.0000 2.0444832926
Pr  Pr10      1.0  0.30813  0.08405  0.42314  1.0000 2.0494371697
Pr  Pr11      1.0  0.13499  0.05813  0.72408  1.0000 2.0444832926
Pr  Pr12      1.0  0.66091  0.88499  0.57686  1.0000 2.0494371697
Pr  Pr13      1.0  0.91595  0.33909  0.22408  1.0000 2.0494371697
Pr  Pr14      1.0  0.94187  0.66595  0.07686  1.0000 2.0444832926
Pr  Pr15      1.0  0.11501  0.69187  0.77592  1.0000 2.0494371697
Pr  Pr16      1.0  0.58909  0.86501  0.92314  1.0000 2.0494371697
Co  Co1       1.0  0.04266  0.32907  0.37893  1.0000 0.5322460219
Co  Co2       1.0  0.91373  0.79266  0.21359  1.0000 0.5322460219
Co  Co3       1.0  0.95014  0.66373  0.62107  1.0000 0.5322460219
Co  Co4       1.0  0.57907  0.70014  0.78641  1.0000 0.5322460219
Co  Co5       1.0  0.20734  0.42093  0.12107  1.0000 0.5322460219
Co  Co6       1.0  0.33627  0.95734  0.28641  1.0000 0.5322460219
Co  Co7       1.0  0.29986  0.08627  0.87893  1.0000 0.5322460219
Co  Co8       1.0  0.67093  0.04986  0.71359  1.0000 0.5322460219
H   H1        1.0  0.64870  0.83940  0.23350  1.0000 0.1300859253
H   H2        1.0  0.66520  0.39870  0.30930  1.0000 0.1300859253
H   H3        1.0  0.60590  0.41520  0.76650  1.0000 0.1300859253
H   H4        1.0  0.08940  0.35590  0.69070  1.0000 0.1300859253
H   H5        1.0  0.60130  0.91060  0.26650  1.0000 0.1300859253
H   H6        1.0  0.58480  0.35130  0.19070  1.0000 0.1300859253
H   H7        1.0  0.64410  0.33480  0.73350  1.0000 0.1300859253
H   H8        1.0  0.16060  0.39410  0.80930  1.0000 0.1300859253
H   H9        1.0  0.62540  0.86930  0.18610  1.0000 0.1300859253
H   H10       1.0  0.68930  0.37540  0.25610  1.0000 0.1300859253
H   H11       1.0  0.68320  0.43930  0.81390  1.0000 0.1300859253
H   H12       1.0  0.11930  0.43320  0.74390  1.0000 0.1300859253
H   H13       1.0  0.62460  0.88070  0.31390  1.0000 0.1300859253
H   H14       1.0  0.56070  0.37460  0.24390  1.0000 0.1300859253
H   H15       1.0  0.56680  0.31070  0.68610  1.0000 0.1300859253
H   H16       1.0  0.13070  0.31680  0.75610  1.0000 0.1300859253
H   H17       1.0  0.44520  0.69850  0.13630  1.0000 0.1027171869
H   H18       1.0  0.55890  0.19520  0.24670  1.0000 0.1027171869
H   H19       1.0  0.56220  0.30890  0.86370  1.0000 0.1027171869
H   H20       1.0  0.94850  0.31220  0.75330  1.0000 0.1027171869
H   H21       1.0  0.80480  0.05150  0.36370  1.0000 0.1027171869
H   H22       1.0  0.69110  0.55480  0.25330  1.0000 0.1027171869
H   H23       1.0  0.68780  0.44110  0.63630  1.0000 0.1027171869
H   H24       1.0  0.30150  0.43780  0.74670  1.0000 0.1027171869
H   H25       1.0  0.07170  0.21000  0.11110  1.0000 0.121077923
H   H26       1.0  0.21060  0.82170  0.36170  1.0000 0.121077923
H   H27       1.0  0.09890  0.96060  0.88890  1.0000 0.121077923
H   H28       1.0  0.46000  0.84890  0.63830  1.0000 0.121077923
H   H29       1.0  0.17830  0.54000  0.38890  1.0000 0.121077923
H   H30       1.0  0.03940  0.92830  0.13830  1.0000 0.121077923
H   H31       1.0  0.15110  0.78940  0.61110  1.0000 0.121077923
H   H32       1.0  0.79000  0.90110  0.86170  1.0000 0.121077923
H   H33       1.0  0.12970  0.19970  0.10180  1.0000 0.1396269576
H   H34       1.0  0.27790  0.87970  0.43000  1.0000 0.1396269576
H   H35       1.0  0.09790  0.02790  0.89820  1.0000 0.1396269576
H   H36       1.0  0.44970  0.84790  0.57000  1.0000 0.1396269576
H   H37       1.0  0.12030  0.55030  0.39820  1.0000 0.1396269576
H   H38       1.0  0.97210  0.87030  0.07000  1.0000 0.1396269576
H   H39       1.0  0.15210  0.72210  0.60180  1.0000 0.1396269576
H   H40       1.0  0.80030  0.90210  0.93000  1.0000 0.1396269576
H   H41       1.0  0.33318  0.37348  0.12330  1.0000 0.1396269576
H   H42       1.0  0.45988  0.08318  0.45970  1.0000 0.1396269576
H   H43       1.0  0.25018  0.20988  0.87670  1.0000 0.1396269576
H   H44       1.0  0.62348  0.00018  0.54030  1.0000 0.1396269576
H   H45       1.0  0.91682  0.37652  0.37670  1.0000 0.1396269576
H   H46       1.0  0.79012  0.66682  0.04030  1.0000 0.1396269576
H   H47       1.0  0.99982  0.54012  0.62330  1.0000 0.1396269576
H   H48       1.0  0.62652  0.74982  0.95970  1.0000 0.1396269576
H   H49       1.0  0.22730  0.34460  0.40770  1.0000 0.1396269576
H   H50       1.0  0.06960  0.97730  0.38270  1.0000 0.1396269576
H   H51       1.0  0.93690  0.81960  0.59230  1.0000 0.1396269576
H   H52       1.0  0.59460  0.68690  0.61730  1.0000 0.1396269576
H   H53       1.0  0.02270  0.40540  0.09230  1.0000 0.1396269576
H   H54       1.0  0.18040  0.77270  0.11730  1.0000 0.1396269576
H   H55       1.0  0.31310  0.93040  0.90770  1.0000 0.1396269576
H   H56       1.0  0.65540  0.06310  0.88270  1.0000 0.1396269576
H   H57       1.0  0.17410  0.33050  0.46260  1.0000 0.1473689362
H   H58       1.0  0.96150  0.92410  0.34360  1.0000 0.1473689362
H   H59       1.0  0.86790  0.71150  0.53740  1.0000 0.1473689362
H   H60       1.0  0.58050  0.61790  0.65640  1.0000 0.1473689362
H   H61       1.0  0.07590  0.41950  0.03740  1.0000 0.1473689362
H   H62       1.0  0.28850  0.82590  0.15640  1.0000 0.1473689362
H   H63       1.0  0.38210  0.03850  0.96260  1.0000 0.1473689362
H   H64       1.0  0.66950  0.13210  0.84360  1.0000 0.1473689362
H   H65       1.0  0.06690  0.29020  0.45110  1.0000 0.1114764031
H   H66       1.0  0.86580  0.81690  0.27670  1.0000 0.1114764031
H   H67       1.0  0.83910  0.61580  0.54890  1.0000 0.1114764031
H   H68       1.0  0.54020  0.58910  0.72330  1.0000 0.1114764031
H   H69       1.0  0.18310  0.45980  0.04890  1.0000 0.1114764031
H   H70       1.0  0.38420  0.93310  0.22330  1.0000 0.1114764031
H   H71       1.0  0.41090  0.13420  0.95110  1.0000 0.1114764031
H   H72       1.0  0.70980  0.16090  0.77670  1.0000 0.1114764031
H   H73       1.0  0.02230  0.33050  0.28320  1.0000 0.1114764031
H   H74       1.0  0.98910  0.77230  0.19180  1.0000 0.1114764031
H   H75       1.0  0.04730  0.73910  0.71680  1.0000 0.1114764031
H   H76       1.0  0.58050  0.79730  0.80820  1.0000 0.1114764031
H   H77       1.0  0.22770  0.41950  0.21680  1.0000 0.1114764031
H   H78       1.0  0.26090  0.97770  0.30820  1.0000 0.1114764031
H   H79       1.0  0.20270  0.01090  0.78320  1.0000 0.1114764031
H   H80       1.0  0.66950  0.95270  0.69180  1.0000 0.1114764031
H   H81       1.0  0.94400  0.22170  0.22170  1.0000 0.1300859253
H   H82       1.0  0.97230  0.69400  0.22230  1.0000 0.1300859253
H   H83       1.0  0.00000  0.72230  0.77830  1.0000 0.1300859253
H   H84       1.0  0.47170  0.75000  0.77770  1.0000 0.1300859253
H   H85       1.0  0.30600  0.52830  0.27830  1.0000 0.1300859253
H   H86       1.0  0.27770  0.05600  0.27770  1.0000 0.1300859253
H   H87       1.0  0.25000  0.02770  0.72170  1.0000 0.1300859253
H   H88       1.0  0.77830  0.00000  0.72230  1.0000 0.1300859253
H   H89       1.0  0.90170  0.11370  0.22400  1.0000 0.121077923
H   H90       1.0  0.92770  0.65170  0.28800  1.0000 0.1300859253
H   H91       1.0  0.88970  0.67770  0.77600  1.0000 0.121077923
H   H92       1.0  0.36370  0.63970  0.71200  1.0000 0.121077923
H   H93       1.0  0.34830  0.63630  0.27600  1.0000 0.121077923
H   H94       1.0  0.32230  0.09830  0.21200  1.0000 0.121077923
H   H95       1.0  0.36030  0.07230  0.72400  1.0000 0.121077923
H   H96       1.0  0.88630  0.11030  0.78800  1.0000 0.121077923
H   H97       1.0  0.83440  0.86460  0.12640  1.0000 0.1396269576
H   H98       1.0  0.95800  0.58440  0.46980  1.0000 0.1396269576
H   H99       1.0  0.73820  0.70800  0.87360  1.0000 0.1396269576
H   H100      1.0  0.11460  0.48820  0.53020  1.0000 0.1396269576
H   H101      1.0  0.41560  0.88540  0.37360  1.0000 0.1396269576
H   H102      1.0  0.29200  0.16560  0.03020  1.0000 0.1396269576
H   H103      1.0  0.51180  0.04200  0.62640  1.0000 0.1396269576
H   H104      1.0  0.13540  0.26180  0.96980  1.0000 0.1396269576
H   H105      1.0  0.67230  0.66667  0.12190  1.0000 0.1396269576
H   H106      1.0  0.80040  0.42230  0.50570  1.0000 0.1396269576
H   H107      1.0  0.54470  0.55040  0.87810  1.0000 0.1396269576
H   H108      1.0  0.91660  0.29470  0.49430  1.0000 0.1396269576
H   H109      1.0  0.57770  0.08340  0.37810  1.0000 0.1396269576
H   H110      1.0  0.44960  0.32770  0.99430  1.0000 0.1396269576
H   H111      1.0  0.70530  0.19960  0.62190  1.0000 0.1396269576
H   H112      1.0  0.33340  0.45530  0.00570  1.0000 0.1396269576
H   H113      1.0  0.69590  0.63290  0.16340  1.0000 0.1114764031
H   H114      1.0  0.78250  0.44590  0.56300  1.0000 0.1114764031
H   H115      1.0  0.46950  0.53250  0.83660  1.0000 0.1114764031
H   H116      1.0  0.88290  0.21950  0.43700  1.0000 0.1114764031
H   H117      1.0  0.55410  0.11710  0.33660  1.0000 0.1114764031
H   H118      1.0  0.46750  0.30410  0.93700  1.0000 0.1114764031
H   H119      1.0  0.78050  0.21750  0.66340  1.0000 0.1114764031
H   H120      1.0  0.36710  0.53050  0.06300  1.0000 0.1114764031
H   H121      1.0  0.20170  0.05560  0.25050  1.0000 0.1027171869
H   H122      1.0  0.20120  0.95170  0.64610  1.0000 0.1027171869
H   H123      1.0  0.80510  0.95120  0.74950  1.0000 0.1027171869
H   H124      1.0  0.30560  0.55510  0.35390  1.0000 0.1027171869
H   H125      1.0  0.04830  0.69440  0.24950  1.0000 0.1027171869
H   H126      1.0  0.04880  0.79830  0.85390  1.0000 0.1027171869
H   H127      1.0  0.44490  0.79880  0.75050  1.0000 0.1027171869
H   H128      1.0  0.94440  0.19490  0.14610  1.0000 0.1027171869
H   H129      1.0  0.34360  0.23260  0.28740  1.0000 0.1300859253
H   H130      1.0  0.30620  0.09360  0.61100  1.0000 0.1300859253
H   H131      1.0  0.94520  0.05620  0.71260  1.0000 0.1300859253
H   H132      1.0  0.48260  0.69520  0.38900  1.0000 0.1300859253
H   H133      1.0  0.90640  0.51740  0.21260  1.0000 0.1300859253
H   H134      1.0  0.94380  0.65640  0.88900  1.0000 0.1300859253
H   H135      1.0  0.30480  0.69380  0.78740  1.0000 0.1300859253
H   H136      1.0  0.76740  0.05480  0.11100  1.0000 0.1300859253
H   H137      1.0  0.29430  0.25400  0.29450  1.0000 0.1396269576
H   H138      1.0  0.24980  0.04430  0.54030  1.0000 0.1396269576
H   H139      1.0  0.95950  0.99980  0.70550  1.0000 0.1300859253
H   H140      1.0  0.50400  0.70950  0.45970  1.0000 0.1396269576
H   H141      1.0  0.95570  0.49600  0.20550  1.0000 0.1396269576
H   H142      1.0  0.00020  0.70570  0.95970  1.0000 0.1300859253
H   H143      1.0  0.29050  0.75020  0.79450  1.0000 0.1300859253
H   H144      1.0  0.74600  0.04050  0.04030  1.0000 0.1396269576
H   H145      1.0  0.56640  0.50290  0.29350  1.0000 0.121077923
H   H146      1.0  0.52290  0.31640  0.56350  1.0000 0.121077923
H   H147      1.0  0.20940  0.27290  0.70650  1.0000 0.121077923
H   H148      1.0  0.75290  0.95940  0.43650  1.0000 0.121077923
H   H149      1.0  0.68360  0.24710  0.20650  1.0000 0.121077923
H   H150      1.0  0.72710  0.43360  0.93650  1.0000 0.121077923
H   H151      1.0  0.04060  0.47710  0.79350  1.0000 0.121077923
H   H152      1.0  0.49710  0.79060  0.06350  1.0000 0.121077923
H   H153      1.0  0.68400  0.56220  0.32460  1.0000 0.1300859253
H   H154      1.0  0.60940  0.43400  0.62180  1.0000 0.1300859253
H   H155      1.0  0.23760  0.35940  0.67540  1.0000 0.1300859253
H   H156      1.0  0.81220  0.98760  0.37820  1.0000 0.1300859253
H   H157      1.0  0.56600  0.18780  0.17540  1.0000 0.1300859253
H   H158      1.0  0.64060  0.31600  0.87820  1.0000 0.1300859253
H   H159      1.0  0.01240  0.39060  0.82460  1.0000 0.1300859253
H   H160      1.0  0.43780  0.76240  0.12180  1.0000 0.1300859253
H   H161      1.0  0.80180  0.68850  0.38450  1.0000 0.1114764031
H   H162      1.0  0.66730  0.55180  0.61330  1.0000 0.1114764031
H   H163      1.0  0.30400  0.41730  0.61550  1.0000 0.1114764031
H   H164      1.0  0.93850  0.05400  0.38670  1.0000 0.1114764031
H   H165      1.0  0.44820  0.06150  0.11550  1.0000 0.1114764031
H   H166      1.0  0.58270  0.19820  0.88670  1.0000 0.1114764031
H   H167      1.0  0.94600  0.33270  0.88450  1.0000 0.1114764031
H   H168      1.0  0.31150  0.69600  0.11330  1.0000 0.1114764031
H   H169      1.0  0.59710  0.64120  0.49030  1.0000 0.1027171869
H   H170      1.0  0.35680  0.34710  0.45590  1.0000 0.1027171869
H   H171      1.0  0.15090  0.10680  0.50970  1.0000 0.1027171869
H   H172      1.0  0.89120  0.90090  0.54410  1.0000 0.1027171869
H   H173      1.0  0.65290  0.10880  0.00970  1.0000 0.1027171869
H   H174      1.0  0.89320  0.40290  0.04410  1.0000 0.1027171869
H   H175      1.0  0.09910  0.64320  0.99030  1.0000 0.1027171869
H   H176      1.0  0.35880  0.84910  0.95590  1.0000 0.1027171869
H   H177      1.0  0.57220  0.68270  0.46450  1.0000 0.121077923
H   H178      1.0  0.35770  0.32220  0.38950  1.0000 0.121077923
H   H179      1.0  0.21820  0.10770  0.53550  1.0000 0.121077923
H   H180      1.0  0.93270  0.96820  0.61050  1.0000 0.121077923
H   H181      1.0  0.67780  0.06730  0.03550  1.0000 0.121077923
H   H182      1.0  0.89230  0.42780  0.11050  1.0000 0.121077923
H   H183      1.0  0.03180  0.64230  0.96450  1.0000 0.121077923
H   H184      1.0  0.31730  0.78180  0.88950  1.0000 0.121077923
H   H185      1.0  0.65280  0.76880  0.40480  1.0000 0.1114764031
H   H186      1.0  0.49800  0.40280  0.38400  1.0000 0.1114764031
H   H187      1.0  0.36400  0.24800  0.59520  1.0000 0.1114764031
H   H188      1.0  0.01880  0.11400  0.61600  1.0000 0.1114764031
H   H189      1.0  0.59720  0.98120  0.09520  1.0000 0.1114764031
H   H190      1.0  0.75200  0.34720  0.11600  1.0000 0.1114764031
H   H191      1.0  0.88600  0.50200  0.90480  1.0000 0.1114764031
H   H192      1.0  0.23120  0.63600  0.88400  1.0000 0.1114764031
C   C1        1.0  0.53790  0.66480  0.23210  1.0000 0.6702858493
C   C2        1.0  0.55580  0.28790  0.37310  1.0000 0.6702858493
C   C3        1.0  0.43270  0.30580  0.76790  1.0000 0.6702858493
C   C4        1.0  0.91480  0.18270  0.62690  1.0000 0.6702858493
C   C5        1.0  0.71210  0.08520  0.26790  1.0000 0.6702858493
C   C6        1.0  0.69420  0.46210  0.12690  1.0000 0.6702858493
C   C7        1.0  0.81730  0.44420  0.73210  1.0000 0.6702858493
C   C8        1.0  0.33520  0.56730  0.87310  1.0000 0.6702858493
C   C9        1.0  0.52100  0.68190  0.20050  1.0000 -0.0899631457
C   C10       1.0  0.57050  0.27100  0.33910  1.0000 -0.0961125231
C   C11       1.0  0.48140  0.32050  0.79950  1.0000 -0.0961125231
C   C12       1.0  0.93190  0.23140  0.66090  1.0000 -0.0961125231
C   C13       1.0  0.72900  0.06810  0.29950  1.0000 -0.0899631457
C   C14       1.0  0.67950  0.47900  0.16090  1.0000 -0.0899631457
C   C15       1.0  0.76860  0.42950  0.70050  1.0000 -0.0961125231
C   C16       1.0  0.31810  0.51860  0.83910  1.0000 -0.0961125231
C   C17       1.0  0.59020  0.78230  0.20970  1.0000 -0.0521454188
C   C18       1.0  0.63050  0.34020  0.30790  1.0000 -0.0521454188
C   C19       1.0  0.57260  0.38050  0.79030  1.0000 -0.0521454188
C   C20       1.0  0.03230  0.32260  0.69210  1.0000 -0.0521454188
C   C21       1.0  0.65980  0.96770  0.29030  1.0000 -0.0521454188
C   C22       1.0  0.61950  0.40980  0.19210  1.0000 -0.0521454188
C   C23       1.0  0.67740  0.36950  0.70970  1.0000 -0.0521454188
C   C24       1.0  0.21770  0.42740  0.80790  1.0000 -0.0521454188
C   C25       1.0  0.57160  0.79670  0.18330  1.0000 -0.1556546144
C   C26       1.0  0.63830  0.32160  0.27490  1.0000 -0.1556546144
C   C27       1.0  0.61340  0.38830  0.81670  1.0000 -0.1556546144
C   C28       1.0  0.04670  0.36340  0.72510  1.0000 -0.1556546144
C   C29       1.0  0.67840  0.95330  0.31670  1.0000 -0.1556546144
C   C30       1.0  0.61170  0.42840  0.22510  1.0000 -0.1556546144
C   C31       1.0  0.63660  0.36170  0.68330  1.0000 -0.1556546144
C   C32       1.0  0.20330  0.38660  0.77490  1.0000 -0.1556546144
C   C33       1.0  0.46730  0.69650  0.15160  1.0000 0.0884270746
C   C34       1.0  0.56570  0.21730  0.27080  1.0000 0.0884270746
C   C35       1.0  0.54490  0.31570  0.84840  1.0000 0.0884270746
C   C36       1.0  0.94650  0.29490  0.72920  1.0000 0.0884270746
C   C37       1.0  0.78270  0.05350  0.34840  1.0000 0.0884270746
C   C38       1.0  0.68430  0.53270  0.22920  1.0000 0.0884270746
C   C39       1.0  0.70510  0.43430  0.65160  1.0000 0.0884270746
C   C40       1.0  0.30350  0.45510  0.77080  1.0000 0.0884270746
C   C41       1.0  0.43050  0.59570  0.16660  1.0000 0.1585176572
C   C42       1.0  0.51390  0.18050  0.33480  1.0000 0.1585176572
C   C43       1.0  0.42910  0.26390  0.83340  1.0000 0.1585176572
C   C44       1.0  0.84570  0.17910  0.66520  1.0000 0.1585176572
C   C45       1.0  0.81950  0.15430  0.33340  1.0000 0.1585176572
C   C46       1.0  0.73610  0.56950  0.16520  1.0000 0.1585176572
C   C47       1.0  0.82090  0.48610  0.66667  1.0000 0.1585176572
C   C48       1.0  0.40430  0.57090  0.83480  1.0000 0.1585176572
C   C49       1.0  0.35000  0.48370  0.14950  1.0000 0.1585176572
C   C50       1.0  0.45050  0.10000  0.36630  1.0000 0.1585176572
C   C51       1.0  0.33420  0.20050  0.85050  1.0000 0.1585176572
C   C52       1.0  0.73370  0.08420  0.63370  1.0000 0.1585176572
C   C53       1.0  0.90000  0.26630  0.35050  1.0000 0.1585176572
C   C54       1.0  0.79950  0.65000  0.13370  1.0000 0.1585176572
C   C55       1.0  0.91580  0.54950  0.64950  1.0000 0.1585176572
C   C56       1.0  0.51630  0.66580  0.86630  1.0000 0.1585176572
C   C57       1.0  0.15320  0.27960  0.11960  1.0000 0.0558262652
C   C58       1.0  0.28360  0.90320  0.37360  1.0000 0.0558262652
C   C59       1.0  0.16000  0.03360  0.88040  1.0000 0.0558262652
C   C60       1.0  0.52960  0.91000  0.62640  1.0000 0.0558262652
C   C61       1.0  0.09680  0.47040  0.38040  1.0000 0.0558262652
C   C62       1.0  0.96640  0.84680  0.12640  1.0000 0.0558262652
C   C63       1.0  0.09000  0.71640  0.61960  1.0000 0.0558262652
C   C64       1.0  0.72040  0.84000  0.87360  1.0000 0.0558262652
C   C65       1.0  0.18660  0.27270  0.11410  1.0000 -0.1097489416
C   C66       1.0  0.32250  0.93660  0.41390  1.0000 -0.1097489416
C   C67       1.0  0.15860  0.07250  0.88590  1.0000 -0.1097489416
C   C68       1.0  0.52270  0.90860  0.58610  1.0000 -0.1097489416
C   C69       1.0  0.06340  0.47730  0.38590  1.0000 -0.1097489416
C   C70       1.0  0.92750  0.81340  0.08610  1.0000 -0.1097489416
C   C71       1.0  0.09140  0.67750  0.61410  1.0000 -0.1097489416
C   C72       1.0  0.72730  0.84140  0.91390  1.0000 -0.1097489416
C   C73       1.0  0.30890  0.37730  0.12700  1.0000 -0.0360578693
C   C74       1.0  0.43190  0.05890  0.43160  1.0000 -0.0360578693
C   C75       1.0  0.25030  0.18190  0.87300  1.0000 -0.0360578693
C   C76       1.0  0.62730  0.00030  0.56840  1.0000 -0.0360578693
C   C77       1.0  0.94110  0.37270  0.37300  1.0000 -0.034830365
C   C78       1.0  0.81810  0.69110  0.06840  1.0000 -0.0360578693
C   C79       1.0  0.99970  0.56810  0.62700  1.0000 -0.034830365
C   C80       1.0  0.62270  0.74970  0.93160  1.0000 -0.0360578693
C   C81       1.0  0.39370  0.48540  0.14510  1.0000 -0.0961125231
C   C82       1.0  0.49860  0.14370  0.40830  1.0000 -0.0961125231
C   C83       1.0  0.34030  0.24860  0.85490  1.0000 -0.0961125231
C   C84       1.0  0.73540  0.09030  0.59170  1.0000 -0.0961125231
C   C85       1.0  0.85630  0.26460  0.35490  1.0000 -0.0961125231
C   C86       1.0  0.75140  0.60630  0.09170  1.0000 -0.0961125231
C   C87       1.0  0.90970  0.50140  0.64510  1.0000 -0.0961125231
C   C88       1.0  0.51460  0.65970  0.90830  1.0000 -0.0961125231
C   C89       1.0  0.52350  0.59580  0.15890  1.0000 0.5631382562
C   C90       1.0  0.61460  0.27350  0.42770  1.0000 0.5631382562
C   C91       1.0  0.43690  0.36460  0.84110  1.0000 0.5631382562
C   C92       1.0  0.84580  0.18690  0.57230  1.0000 0.5631382562
C   C93       1.0  0.72650  0.15420  0.34110  1.0000 0.5631382562
C   C94       1.0  0.63540  0.47650  0.07230  1.0000 0.5631382562
C   C95       1.0  0.81310  0.38540  0.65890  1.0000 0.5631382562
C   C96       1.0  0.40420  0.56310  0.92770  1.0000 0.5631382562
C   C97       1.0  0.20240  0.33890  0.32870  1.0000 0.567050448
C   C98       1.0  0.12370  0.95240  0.36350  1.0000 0.567050448
C   C99       1.0  0.01020  0.87370  0.67130  1.0000 0.567050448
C   C100      1.0  0.58890  0.76020  0.63650  1.0000 0.567050448
C   C101      1.0  0.04760  0.41110  0.17130  1.0000 0.567050448
C   C102      1.0  0.12630  0.79760  0.13650  1.0000 0.567050448
C   C103      1.0  0.23980  0.87630  0.82870  1.0000 0.567050448
C   C104      1.0  0.66110  0.98980  0.86350  1.0000 0.567050448
C   C105      1.0  0.15070  0.31100  0.36390  1.0000 -0.0598185141
C   C106      1.0  0.03680  0.90070  0.33970  1.0000 -0.0598185141
C   C107      1.0  0.94710  0.78680  0.63610  1.0000 -0.0598185141
C   C108      1.0  0.56100  0.69710  0.66030  1.0000 -0.0598185141
C   C109      1.0  0.09930  0.43900  0.13610  1.0000 -0.0598185141
C   C110      1.0  0.21320  0.84930  0.16030  1.0000 -0.0598185141
C   C111      1.0  0.30290  0.96320  0.86390  1.0000 -0.0598185141
C   C112      1.0  0.68900  0.05290  0.83970  1.0000 -0.0598185141
C   C113      1.0  0.18390  0.32780  0.40350  1.0000 -0.0598185141
C   C114      1.0  0.03040  0.93390  0.35610  1.0000 -0.0598185141
C   C115      1.0  0.92430  0.78040  0.59650  1.0000 -0.0598185141
C   C116      1.0  0.57780  0.67430  0.64390  1.0000 -0.0598185141
C   C117      1.0  0.06610  0.42220  0.09650  1.0000 -0.0598185141
C   C118      1.0  0.21960  0.81610  0.14390  1.0000 -0.0598185141
C   C119      1.0  0.32570  0.96960  0.90350  1.0000 -0.0598185141
C   C120      1.0  0.67220  0.07570  0.85610  1.0000 -0.0598185141
C   C121      1.0  0.15260  0.31940  0.43600  1.0000 -0.1097489416
C   C122      1.0  0.96660  0.90260  0.33320  1.0000 -0.1097489416
C   C123      1.0  0.88340  0.71660  0.56400  1.0000 -0.1097489416
C   C124      1.0  0.56940  0.63340  0.66680  1.0000 -0.1097489416
C   C125      1.0  0.09740  0.43060  0.06400  1.0000 -0.1097489416
C   C126      1.0  0.28340  0.84740  0.16680  1.0000 -0.1097489416
C   C127      1.0  0.36660  0.03340  0.93600  1.0000 -0.1097489416
C   C128      1.0  0.68060  0.11660  0.83320  1.0000 -0.1097489416
C   C129      1.0  0.08650  0.29370  0.42880  1.0000 0.1027171869
C   C130      1.0  0.90770  0.83650  0.29280  1.0000 0.1027171869
C   C131      1.0  0.86490  0.65770  0.57120  1.0000 0.1027171869
C   C132      1.0  0.54370  0.61490  0.70720  1.0000 0.1027171869
C   C133      1.0  0.16350  0.45630  0.07120  1.0000 0.1027171869
C   C134      1.0  0.34230  0.91350  0.20720  1.0000 0.1027171869
C   C135      1.0  0.38510  0.09230  0.92880  1.0000 0.1027171869
C   C136      1.0  0.70630  0.13510  0.79280  1.0000 0.1027171869
C   C137      1.0  0.07690  0.27670  0.35840  1.0000 0.1396269576
C   C138      1.0  0.96850  0.82690  0.30020  1.0000 0.1396269576
C   C139      1.0  0.91830  0.71850  0.64160  1.0000 0.1396269576
C   C140      1.0  0.52670  0.66830  0.69980  1.0000 0.1396269576
C   C141      1.0  0.17310  0.47330  0.14160  1.0000 0.1396269576
C   C142      1.0  0.28150  0.92310  0.19980  1.0000 0.1396269576
C   C143      1.0  0.33170  0.03150  0.85840  1.0000 0.1396269576
C   C144      1.0  0.72330  0.08170  0.80020  1.0000 0.1396269576
C   C145      1.0  0.02860  0.24860  0.31860  1.0000 0.1300859253
C   C146      1.0  0.96000  0.77860  0.28000  1.0000 0.1300859253
C   C147      1.0  0.93000  0.71000  0.68140  1.0000 0.1300859253
C   C148      1.0  0.49860  0.68000  0.72000  1.0000 0.1300859253
C   C149      1.0  0.22140  0.50140  0.18140  1.0000 0.1300859253
C   C150      1.0  0.29000  0.97140  0.22000  1.0000 0.1300859253
C   C151      1.0  0.32000  0.04000  0.81860  1.0000 0.1300859253
C   C152      1.0  0.75140  0.07000  0.78000  1.0000 0.1300859253
C   C153      1.0  0.01270  0.29340  0.28330  1.0000 0.0884270746
C   C154      1.0  0.97940  0.76270  0.21930  1.0000 0.0884270746
C   C155      1.0  0.01010  0.72940  0.71670  1.0000 0.0884270746
C   C156      1.0  0.54340  0.76010  0.78070  1.0000 0.0884270746
C   C157      1.0  0.23730  0.45660  0.21670  1.0000 0.0884270746
C   C158      1.0  0.27060  0.98730  0.28070  1.0000 0.0884270746
C   C159      1.0  0.23990  0.02060  0.78330  1.0000 0.0884270746
C   C160      1.0  0.70660  0.98990  0.71930  1.0000 0.0884270746
C   C161      1.0  0.96190  0.22490  0.24620  1.0000 -0.1397633828
C   C162      1.0  0.96570  0.71190  0.23700  1.0000 -0.1397633828
C   C163      1.0  0.97870  0.71570  0.75380  1.0000 -0.1397633828
C   C164      1.0  0.47490  0.72870  0.76300  1.0000 -0.1397633828
C   C165      1.0  0.28810  0.52510  0.25380  1.0000 -0.1397633828
C   C166      1.0  0.28430  0.03810  0.26300  1.0000 -0.1397633828
C   C167      1.0  0.27130  0.03430  0.74620  1.0000 -0.1397633828
C   C168      1.0  0.77510  0.02130  0.73700  1.0000 -0.1397633828
C   C169      1.0  0.94010  0.16370  0.24780  1.0000 -0.0809088397
C   C170      1.0  0.94230  0.69010  0.27640  1.0000 -0.0809088397
C   C171      1.0  0.91590  0.69230  0.75220  1.0000 -0.0809088397
C   C172      1.0  0.41370  0.66590  0.72360  1.0000 -0.0809088397
C   C173      1.0  0.30990  0.58630  0.25220  1.0000 -0.0809088397
C   C174      1.0  0.30770  0.05990  0.22360  1.0000 -0.0809088397
C   C175      1.0  0.33410  0.05770  0.74780  1.0000 -0.0809088397
C   C176      1.0  0.83630  0.08410  0.77640  1.0000 -0.0809088397
C   C177      1.0  0.97390  0.17390  0.28400  1.0000 -0.0598185141
C   C178      1.0  0.93990  0.72390  0.30000  1.0000 -0.0598185141
C   C179      1.0  0.88990  0.68990  0.71600  1.0000 -0.0598185141
C   C180      1.0  0.42390  0.63990  0.70000  1.0000 -0.0598185141
C   C181      1.0  0.27610  0.57610  0.21600  1.0000 -0.0598185141
C   C182      1.0  0.31010  0.02610  0.20000  1.0000 -0.0598185141
C   C183      1.0  0.36010  0.06010  0.78400  1.0000 -0.0598185141
C   C184      1.0  0.82610  0.11010  0.80000  1.0000 -0.0598185141
C   C185      1.0  0.93210  0.09160  0.28650  1.0000 0.5631382562
C   C186      1.0  0.89560  0.68210  0.34050  1.0000 0.5631382562
C   C187      1.0  0.80510  0.64560  0.71350  1.0000 0.5631382562
C   C188      1.0  0.34160  0.55510  0.65950  1.0000 0.5631382562
C   C189      1.0  0.31790  0.65840  0.21350  1.0000 0.5631382562
C   C190      1.0  0.35440  0.06790  0.15950  1.0000 0.5631382562
C   C191      1.0  0.44490  0.10440  0.78650  1.0000 0.5631382562
C   C192      1.0  0.90840  0.19490  0.84050  1.0000 0.5631382562
C   C193      1.0  0.05370  0.07300  0.17070  1.0000 0.567050448
C   C194      1.0  0.13300  0.80370  0.48070  1.0000 0.567050448
C   C195      1.0  0.90230  0.88300  0.82930  1.0000 0.567050448
C   C196      1.0  0.32300  0.65230  0.51930  1.0000 0.567050448
C   C197      1.0  0.19630  0.67700  0.32930  1.0000 0.567050448
C   C198      1.0  0.11700  0.94630  0.01930  1.0000 0.567050448
C   C199      1.0  0.34770  0.86700  0.67070  1.0000 0.567050448
C   C200      1.0  0.92700  0.09770  0.98070  1.0000 0.567050448
C   C201      1.0  0.95010  0.94520  0.16990  1.0000 -0.0809088397
C   C202      1.0  0.03020  0.70010  0.50490  1.0000 -0.0809088397
C   C203      1.0  0.77530  0.78020  0.83010  1.0000 -0.0809088397
C   C204      1.0  0.19520  0.52530  0.49510  1.0000 -0.0809088397
C   C205      1.0  0.29990  0.80480  0.33010  1.0000 -0.0809088397
C   C206      1.0  0.21980  0.04990  0.99510  1.0000 -0.0809088397
C   C207      1.0  0.47470  0.96980  0.66990  1.0000 -0.0809088397
C   C208      1.0  0.05480  0.22470  0.00490  1.0000 -0.0809088397
C   C209      1.0  0.84200  0.84920  0.14300  1.0000 -0.0360578693
C   C210      1.0  0.94900  0.59200  0.49280  1.0000 -0.0360578693
C   C211      1.0  0.70620  0.69900  0.85700  1.0000 -0.0360578693
C   C212      1.0  0.09920  0.45620  0.50720  1.0000 -0.0360578693
C   C213      1.0  0.40800  0.90080  0.35700  1.0000 -0.0360578693
C   C214      1.0  0.30100  0.15800  0.00720  1.0000 -0.0360578693
C   C215      1.0  0.54380  0.05100  0.64300  1.0000 -0.0360578693
C   C216      1.0  0.15080  0.29380  0.99280  1.0000 -0.0360578693
C   C217      1.0  0.74470  0.73080  0.14010  1.0000 -0.1097489416
C   C218      1.0  0.85460  0.49470  0.51390  1.0000 -0.1097489416
C   C219      1.0  0.59070  0.60460  0.85990  1.0000 -0.1097489416
C   C220      1.0  0.98080  0.34070  0.48610  1.0000 -0.1097489416
C   C221      1.0  0.50530  0.01920  0.35990  1.0000 -0.1097489416
C   C222      1.0  0.39540  0.25530  0.98610  1.0000 -0.1097489416
C   C223      1.0  0.65930  0.14540  0.64010  1.0000 -0.1097489416
C   C224      1.0  0.26920  0.40930  0.01390  1.0000 -0.0961125231
C   C225      1.0  0.75940  0.71150  0.16530  1.0000 0.0744817465
C   C226      1.0  0.84410  0.50940  0.54790  1.0000 0.075094445
C   C227      1.0  0.54620  0.59410  0.83470  1.0000 0.0744817465
C   C228      1.0  0.96150  0.29620  0.45210  1.0000 0.075094445
C   C229      1.0  0.49060  0.03850  0.33470  1.0000 0.075094445
C   C230      1.0  0.40590  0.24060  0.95210  1.0000 0.075094445
C   C231      1.0  0.70380  0.15590  0.66530  1.0000 0.0744817465
C   C232      1.0  0.28850  0.45380  0.04790  1.0000 0.0744817465
C   C233      1.0  0.95350  0.91540  0.19450  1.0000 0.1396269576
C   C234      1.0  0.00900  0.70350  0.53810  1.0000 0.1396269576
C   C235      1.0  0.72090  0.75900  0.80550  1.0000 0.1396269576
C   C236      1.0  0.16540  0.47090  0.46190  1.0000 0.1396269576
C   C237      1.0  0.29650  0.83460  0.30550  1.0000 0.1396269576
C   C238      1.0  0.24100  0.04650  0.96190  1.0000 0.1396269576
C   C239      1.0  0.52910  0.99100  0.69450  1.0000 0.1396269576
C   C240      1.0  0.08460  0.27910  0.03810  1.0000 0.1396269576
C   C241      1.0  0.06210  0.00630  0.22560  1.0000 0.1585176572
C   C242      1.0  0.08650  0.81210  0.55580  1.0000 0.1585176572
C   C243      1.0  0.78070  0.83650  0.77440  1.0000 0.1585176572
C   C244      1.0  0.25630  0.53070  0.44420  1.0000 0.1585176572
C   C245      1.0  0.18790  0.74370  0.27440  1.0000 0.1585176572
C   C246      1.0  0.16350  0.93790  0.94420  1.0000 0.1585176572
C   C247      1.0  0.46930  0.91350  0.72560  1.0000 0.1585176572
C   C248      1.0  0.99370  0.21930  0.05580  1.0000 0.1585176572
C   C249      1.0  0.18680  0.06940  0.25020  1.0000 0.0558262652
C   C250      1.0  0.18660  0.93680  0.61740  1.0000 0.0558262652
C   C251      1.0  0.81920  0.93660  0.74980  1.0000 0.0558262652
C   C252      1.0  0.31940  0.56920  0.38260  1.0000 0.0558262652
C   C253      1.0  0.06320  0.68060  0.24980  1.0000 0.0558262652
C   C254      1.0  0.06340  0.81320  0.88260  1.0000 0.0558262652
C   C255      1.0  0.43080  0.81340  0.75020  1.0000 0.0558262652
C   C256      1.0  0.93060  0.18080  0.11740  1.0000 0.0558262652
C   C257      1.0  0.26970  0.17290  0.27360  1.0000 -0.1491130941
C   C258      1.0  0.24610  0.01970  0.59680  1.0000 -0.1491130941
C   C259      1.0  0.89930  0.99610  0.72640  1.0000 -0.1491130941
C   C260      1.0  0.42290  0.64930  0.40320  1.0000 -0.1491130941
C   C261      1.0  0.98030  0.57710  0.22640  1.0000 -0.1491130941
C   C262      1.0  0.00390  0.73030  0.90320  1.0000 -0.1491130941
C   C263      1.0  0.35070  0.75390  0.77360  1.0000 -0.1491130941
C   C264      1.0  0.82710  0.10070  0.09680  1.0000 -0.1491130941
C   C265      1.0  0.24240  0.18790  0.27670  1.0000 -0.0521454188
C   C266      1.0  0.21570  0.99240  0.55450  1.0000 -0.0521454188
C   C267      1.0  0.91120  0.96570  0.72330  1.0000 -0.0521454188
C   C268      1.0  0.43790  0.66120  0.44550  1.0000 -0.0521454188
C   C269      1.0  0.00760  0.56210  0.22330  1.0000 -0.0521454188
C   C270      1.0  0.03430  0.75760  0.94550  1.0000 -0.0521454188
C   C271      1.0  0.33880  0.78430  0.77670  1.0000 -0.0521454188
C   C272      1.0  0.81210  0.08880  0.05450  1.0000 -0.0521454188
C   C273      1.0  0.13850  0.10510  0.25340  1.0000 -0.0899631457
C   C274      1.0  0.13510  0.88850  0.53340  1.0000 -0.0899631457
C   C275      1.0  0.85170  0.88510  0.74660  1.0000 -0.0899631457
C   C276      1.0  0.35510  0.60170  0.46660  1.0000 -0.0899631457
C   C277      1.0  0.11150  0.64490  0.24660  1.0000 -0.0899631457
C   C278      1.0  0.11490  0.86150  0.96660  1.0000 -0.0899631457
C   C279      1.0  0.39830  0.86490  0.75340  1.0000 -0.0899631457
C   C280      1.0  0.89490  0.14830  0.03340  1.0000 -0.0899631457
C   C281      1.0  0.10100  0.11330  0.26110  1.0000 0.6702858493
C   C282      1.0  0.08990  0.85100  0.48770  1.0000 0.6702858493
C   C283      1.0  0.85220  0.83990  0.73890  1.0000 0.6702858493
C   C284      1.0  0.36330  0.60220  0.51230  1.0000 0.6702858493
C   C285      1.0  0.14900  0.63670  0.23890  1.0000 0.6702858493
C   C286      1.0  0.16010  0.89900  0.01230  1.0000 0.6702858493
C   C287      1.0  0.39780  0.91010  0.76110  1.0000 0.6702858493
C   C288      1.0  0.88670  0.14780  0.98770  1.0000 0.6702858493
C   C289      1.0  0.60290  0.57910  0.34100  1.0000 -0.0521454188
C   C290      1.0  0.51190  0.35290  0.52380  1.0000 -0.0521454188
C   C291      1.0  0.23810  0.26190  0.65900  1.0000 -0.0521454188
C   C292      1.0  0.82910  0.98810  0.47620  1.0000 -0.0521454188
C   C293      1.0  0.64710  0.17090  0.15900  1.0000 -0.0521454188
C   C294      1.0  0.73810  0.39710  0.97620  1.0000 -0.0521454188
C   C295      1.0  0.01190  0.48810  0.84100  1.0000 -0.0521454188
C   C296      1.0  0.42090  0.76190  0.02380  1.0000 -0.0521454188
C   C297      1.0  0.61100  0.54890  0.31970  1.0000 -0.1271027705
C   C298      1.0  0.54130  0.36100  0.56210  1.0000 -0.1271027705
C   C299      1.0  0.22920  0.29130  0.68030  1.0000 -0.1271027705
C   C300      1.0  0.79890  0.97920  0.43790  1.0000 -0.1271027705
C   C301      1.0  0.63900  0.20110  0.18030  1.0000 -0.1271027705
C   C302      1.0  0.70870  0.38900  0.93790  1.0000 -0.1271027705
C   C303      1.0  0.02080  0.45870  0.81970  1.0000 -0.1271027705
C   C304      1.0  0.45110  0.77080  0.06210  1.0000 -0.1271027705
C   C305      1.0  0.68180  0.58580  0.33700  1.0000 -0.1397633828
C   C306      1.0  0.59480  0.43180  0.59600  1.0000 -0.1397633828
C   C307      1.0  0.24880  0.34480  0.66300  1.0000 -0.1397633828
C   C308      1.0  0.83580  0.99880  0.40400  1.0000 -0.1397633828
C   C309      1.0  0.56820  0.16420  0.16300  1.0000 -0.1397633828
C   C310      1.0  0.65520  0.31820  0.90400  1.0000 -0.1397633828
C   C311      1.0  0.00120  0.40520  0.83700  1.0000 -0.1397633828
C   C312      1.0  0.41420  0.75120  0.09600  1.0000 -0.1397633828
C   C313      1.0  0.74850  0.65840  0.37310  1.0000 0.0397348608
C   C314      1.0  0.62540  0.49850  0.59010  1.0000 0.0397348608
C   C315      1.0  0.28530  0.37540  0.62690  1.0000 0.0397348608
C   C316      1.0  0.90840  0.03530  0.40990  1.0000 0.0397348608
C   C317      1.0  0.50150  0.09160  0.12690  1.0000 0.0397348608
C   C318      1.0  0.62460  0.25150  0.90990  1.0000 0.0397348608
C   C319      1.0  0.96470  0.37460  0.87310  1.0000 0.0397348608
C   C320      1.0  0.34160  0.71470  0.09010  1.0000 0.0397348608
C   C321      1.0  0.67330  0.65270  0.38000  1.0000 0.1396269576
C   C322      1.0  0.54330  0.42330  0.52060  1.0000 0.1396269576
C   C323      1.0  0.27270  0.29330  0.62000  1.0000 0.1396269576
C   C324      1.0  0.90270  0.02270  0.47940  1.0000 0.1396269576
C   C325      1.0  0.57670  0.09730  0.12000  1.0000 0.1396269576
C   C326      1.0  0.70670  0.32670  0.97940  1.0000 0.1396269576
C   C327      1.0  0.97730  0.45670  0.88000  1.0000 0.1396269576
C   C328      1.0  0.34730  0.72730  0.02060  1.0000 0.1396269576
C   C329      1.0  0.66000  0.67740  0.40400  1.0000 0.1396269576
C   C330      1.0  0.50600  0.41000  0.48260  1.0000 0.1396269576
C   C331      1.0  0.27340  0.25600  0.59600  1.0000 0.1396269576
C   C332      1.0  0.92740  0.02340  0.51740  1.0000 0.1396269576
C   C333      1.0  0.59000  0.07260  0.09600  1.0000 0.1396269576
C   C334      1.0  0.74400  0.34000  0.01740  1.0000 0.1396269576
C   C335      1.0  0.97660  0.49400  0.90400  1.0000 0.1396269576
C   C336      1.0  0.32260  0.72660  0.98260  1.0000 0.1396269576
C   C337      1.0  0.60970  0.65700  0.46350  1.0000 0.0884270746
C   C338      1.0  0.39620  0.35970  0.45270  1.0000 0.0884270746
C   C339      1.0  0.19350  0.14620  0.53650  1.0000 0.0884270746
C   C340      1.0  0.90700  0.94350  0.54730  1.0000 0.0884270746
C   C341      1.0  0.64030  0.09300  0.03650  1.0000 0.0884270746
C   C342      1.0  0.85380  0.39030  0.04730  1.0000 0.0884270746
C   C343      1.0  0.05650  0.60380  0.96350  1.0000 0.0884270746
C   C344      1.0  0.34300  0.80650  0.95270  1.0000 0.0884270746
C   C345      1.0  0.60320  0.69070  0.45010  1.0000 -0.1491130941
C   C346      1.0  0.40310  0.35320  0.41250  1.0000 -0.1491130941
C   C347      1.0  0.24060  0.15310  0.54990  1.0000 -0.1491130941
C   C348      1.0  0.94070  0.99060  0.58750  1.0000 -0.1491130941
C   C349      1.0  0.64680  0.05930  0.04990  1.0000 -0.1491130941
C   C350      1.0  0.84690  0.39680  0.08750  1.0000 -0.1491130941
C   C351      1.0  0.00940  0.59690  0.95010  1.0000 -0.1491130941
C   C352      1.0  0.30930  0.75940  0.91250  1.0000 -0.1491130941
C   C353      1.0  0.64600  0.73640  0.41420  1.0000 -0.0598185141
C   C354      1.0  0.48180  0.39600  0.40960  1.0000 -0.0598185141
C   C355      1.0  0.32220  0.23180  0.58580  1.0000 -0.0598185141
C   C356      1.0  0.98640  0.07220  0.59040  1.0000 -0.0598185141
C   C357      1.0  0.60400  0.01360  0.08580  1.0000 -0.0598185141
C   C358      1.0  0.76820  0.35400  0.09040  1.0000 -0.0598185141
C   C359      1.0  0.92780  0.51820  0.91420  1.0000 -0.0598185141
C   C360      1.0  0.26360  0.67780  0.90960  1.0000 -0.0598185141
C   C361      1.0  0.68170  0.73510  0.39040  1.0000 -0.0598185141
C   C362      1.0  0.54130  0.43170  0.44660  1.0000 -0.0598185141
C   C363      1.0  0.34470  0.29130  0.60960  1.0000 -0.0598185141
C   C364      1.0  0.98510  0.09470  0.55340  1.0000 -0.0598185141
C   C365      1.0  0.56830  0.01490  0.10960  1.0000 -0.0598185141
C   C366      1.0  0.70870  0.31830  0.05340  1.0000 -0.0598185141
C   C367      1.0  0.90530  0.45870  0.89040  1.0000 -0.0598185141
C   C368      1.0  0.26490  0.65530  0.94660  1.0000 -0.0598185141
C   C369      1.0  0.73480  0.79300  0.35060  1.0000 0.567050448
C   C370      1.0  0.63420  0.48480  0.44180  1.0000 0.567050448
C   C371      1.0  0.44240  0.38420  0.64940  1.0000 0.567050448
C   C372      1.0  0.04300  0.19240  0.55820  1.0000 0.567050448
C   C373      1.0  0.51520  0.95700  0.14940  1.0000 0.567050448
C   C374      1.0  0.61580  0.26520  0.05820  1.0000 0.567050448
C   C375      1.0  0.80760  0.36580  0.85060  1.0000 0.567050448
C   C376      1.0  0.20700  0.55760  0.94180  1.0000 0.567050448
C   C377      1.0  0.50840  0.51960  0.32100  1.0000 0.5539093971
C   C378      1.0  0.43740  0.25840  0.48880  1.0000 0.5539093971
C   C379      1.0  0.19860  0.18740  0.67900  1.0000 0.5539093971
C   C380      1.0  0.76960  0.94860  0.51120  1.0000 0.5539093971
C   C381      1.0  0.74160  0.23040  0.17900  1.0000 0.5539093971
C   C382      1.0  0.81260  0.49160  0.01120  1.0000 0.5539093971
C   C383      1.0  0.05140  0.56260  0.82100  1.0000 0.5539093971
C   C384      1.0  0.48040  0.80140  0.98880  1.0000 0.5539093971
N   N1        1.0  0.40090  0.60050  0.14320  1.0000 -0.2572663941
N   N2        1.0  0.50770  0.15090  0.30040  1.0000 -0.2572663941
N   N3        1.0  0.45730  0.25770  0.85680  1.0000 -0.2572663941
N   N4        1.0  0.85050  0.20730  0.69960  1.0000 -0.2572663941
N   N5        1.0  0.84910  0.14950  0.35680  1.0000 -0.2487912622
N   N6        1.0  0.74230  0.59910  0.19960  1.0000 -0.2572663941
N   N7        1.0  0.79270  0.49230  0.64320  1.0000 -0.2572663941
N   N8        1.0  0.39950  0.54270  0.80040  1.0000 -0.2572663941
N   N9        1.0  0.23310  0.38410  0.13720  1.0000 -0.2487912622
N   N10       1.0  0.34590  0.98310  0.34900  1.0000 -0.2487912622
N   N11       1.0  0.24690  0.09590  0.86280  1.0000 -0.2487912622
N   N12       1.0  0.63410  0.99690  0.65100  1.0000 -0.2487912622
N   N13       1.0  0.01690  0.36590  0.36280  1.0000 -0.2487912622
N   N14       1.0  0.90410  0.76690  0.15100  1.0000 -0.2487912622
N   N15       1.0  0.00310  0.65410  0.63720  1.0000 -0.2487912622
N   N16       1.0  0.61590  0.75310  0.84900  1.0000 -0.2487912622
N   N17       1.0  0.04710  0.30690  0.31840  1.0000 -0.2572663941
N   N18       1.0  0.97870  0.79710  0.24020  1.0000 -0.2572663941
N   N19       1.0  0.98850  0.72870  0.68160  1.0000 -0.2572663941
N   N20       1.0  0.55690  0.73850  0.75980  1.0000 -0.2572663941
N   N21       1.0  0.20290  0.44310  0.18160  1.0000 -0.2572663941
N   N22       1.0  0.27130  0.95290  0.25980  1.0000 -0.2572663941
N   N23       1.0  0.26150  0.02130  0.81840  1.0000 -0.2572663941
N   N24       1.0  0.69310  0.01150  0.74020  1.0000 -0.2572663941
N   N25       1.0  0.05190  0.27470  0.39160  1.0000 -0.2487912622
N   N26       1.0  0.91030  0.80190  0.27720  1.0000 -0.2487912622
N   N27       1.0  0.88310  0.66030  0.60840  1.0000 -0.2487912622
N   N28       1.0  0.52470  0.63310  0.72280  1.0000 -0.2487912622
N   N29       1.0  0.19810  0.47530  0.10840  1.0000 -0.2487912622
N   N30       1.0  0.33970  0.94810  0.22280  1.0000 -0.2487912622
N   N31       1.0  0.36690  0.08970  0.89160  1.0000 -0.2487912622
N   N32       1.0  0.72530  0.11690  0.77720  1.0000 -0.2487912622
N   N33       1.0  0.86140  0.80180  0.19220  1.0000 -0.2487912622
N   N34       1.0  0.91920  0.61140  0.55960  1.0000 -0.2487912622
N   N35       1.0  0.60960  0.66920  0.80780  1.0000 -0.2487912622
N   N36       1.0  0.05180  0.35960  0.44040  1.0000 -0.2487912622
N   N37       1.0  0.38860  0.94820  0.30780  1.0000 -0.2487912622
N   N38       1.0  0.33080  0.13860  0.94040  1.0000 -0.2487912622
N   N39       1.0  0.64040  0.08080  0.69220  1.0000 -0.2487912622
N   N40       1.0  0.19820  0.39040  0.05960  1.0000 -0.2487912622
N   N41       1.0  0.08390  0.98620  0.22650  1.0000 -0.2572663941
N   N42       1.0  0.10740  0.83390  0.59770  1.0000 -0.2572663941
N   N43       1.0  0.75970  0.85740  0.77350  1.0000 -0.2572663941
N   N44       1.0  0.23620  0.50970  0.40230  1.0000 -0.2572663941
N   N45       1.0  0.16610  0.76380  0.27350  1.0000 -0.2572663941
N   N46       1.0  0.14260  0.91610  0.90230  1.0000 -0.2572663941
N   N47       1.0  0.49030  0.89260  0.72650  1.0000 -0.2572663941
N   N48       1.0  0.01380  0.24030  0.09770  1.0000 -0.2572663941
N   N49       1.0  0.75160  0.69620  0.39660  1.0000 -0.2572663941
N   N50       1.0  0.60500  0.50160  0.55540  1.0000 -0.2572663941
N   N51       1.0  0.29960  0.35500  0.60340  1.0000 -0.2572663941
N   N52       1.0  0.94620  0.04960  0.44460  1.0000 -0.2572663941
N   N53       1.0  0.49840  0.05380  0.10340  1.0000 -0.2572663941
N   N54       1.0  0.64500  0.24840  0.94460  1.0000 -0.2572663941
N   N55       1.0  0.95040  0.39500  0.89660  1.0000 -0.2572663941
N   N56       1.0  0.30380  0.70040  0.05540  1.0000 -0.2572663941
N   N57       1.0  0.63190  0.64490  0.44200  1.0000 -0.2682329395
N   N58       1.0  0.43990  0.38190  0.48700  1.0000 -0.2682329395
N   N59       1.0  0.20290  0.18990  0.55800  1.0000 -0.2682329395
N   N60       1.0  0.89490  0.95290  0.51300  1.0000 -0.2682329395
N   N61       1.0  0.61810  0.10510  0.05800  1.0000 -0.2682329395
N   N62       1.0  0.81010  0.36810  0.01300  1.0000 -0.2682329395
N   N63       1.0  0.04710  0.56010  0.94200  1.0000 -0.2682329395
N   N64       1.0  0.35510  0.79710  0.98700  1.0000 -0.2682329395
O   O1        1.0  0.21919  0.31578  0.33277  1.0000 -0.6519098714
O   O2        1.0  0.13642  0.96919  0.40341  1.0000 -0.6519098714
O   O3        1.0  0.98301  0.88642  0.66723  1.0000 -0.6519098714
O   O4        1.0  0.56578  0.73301  0.59659  1.0000 -0.6519098714
O   O5        1.0  0.03081  0.43422  0.16723  1.0000 -0.6519098714
O   O6        1.0  0.11358  0.78081  0.09659  1.0000 -0.6519098714
O   O7        1.0  0.26699  0.86358  0.83277  1.0000 -0.6519098714
O   O8        1.0  0.68422  0.01699  0.90341  1.0000 -0.6519098714
O   O9        1.0  0.23100  0.38450  0.30070  1.0000 -0.5833065018
O   O10       1.0  0.18030  0.98100  0.34650  1.0000 -0.5833065018
O   O11       1.0  0.08380  0.93030  0.69930  1.0000 -0.5833065018
O   O12       1.0  0.63450  0.83380  0.65350  1.0000 -0.5833065018
O   O13       1.0  0.01900  0.36550  0.19930  1.0000 -0.5833065018
O   O14       1.0  0.06970  0.76900  0.15350  1.0000 -0.5833065018
O   O15       1.0  0.16620  0.81970  0.80070  1.0000 -0.5833065018
O   O16       1.0  0.61550  0.91620  0.84650  1.0000 -0.5833065018
O   O17       1.0  0.85130  0.00760  0.30730  1.0000 -0.6098138742
O   O18       1.0  0.79400  0.60130  0.34370  1.0000 -0.6098138742
O   O19       1.0  0.70030  0.54400  0.69270  1.0000 -0.6098138742
O   O20       1.0  0.25760  0.45030  0.65630  1.0000 -0.6098138742
O   O21       1.0  0.39870  0.74240  0.19270  1.0000 -0.6098138742
O   O22       1.0  0.45600  0.14870  0.15630  1.0000 -0.6098138742
O   O23       1.0  0.54970  0.20600  0.80730  1.0000 -0.6098138742
O   O24       1.0  0.99240  0.29970  0.84370  1.0000 -0.6098138742
O   O25       1.0  0.97450  0.10483  0.26393  1.0000 -0.6360779718
O   O26       1.0  0.96057  0.72450  0.36967  1.0000 -0.6360779718
O   O27       1.0  0.84090  0.71057  0.73607  1.0000 -0.6360779718
O   O28       1.0  0.35483  0.59090  0.63033  1.0000 -0.6360779718
O   O29       1.0  0.27550  0.64517  0.23607  1.0000 -0.6360779718
O   O30       1.0  0.28943  0.02550  0.13033  1.0000 -0.6360779718
O   O31       1.0  0.40910  0.03943  0.76393  1.0000 -0.6360779718
O   O32       1.0  0.89517  0.15910  0.86967  1.0000 -0.6360779718
O   O33       1.0  0.64042  0.75848  0.25330  1.0000 -0.6519098714
O   O34       1.0  0.63712  0.39042  0.38194  1.0000 -0.6519098714
O   O35       1.0  0.50518  0.38712  0.74670  1.0000 -0.6519098714
O   O36       1.0  0.00848  0.25518  0.61806  1.0000 -0.6631020554
O   O37       1.0  0.60958  0.99152  0.24670  1.0000 -0.6519098714
O   O38       1.0  0.61288  0.35958  0.11806  1.0000 -0.6519098714
O   O39       1.0  0.74482  0.36288  0.75330  1.0000 -0.6519098714
O   O40       1.0  0.24152  0.49482  0.88194  1.0000 -0.6519098714
O   O41       1.0  0.44358  0.55568  0.23486  1.0000 -0.6896790877
O   O42       1.0  0.45872  0.19358  0.38790  1.0000 -0.6896790877
O   O43       1.0  0.32082  0.20872  0.76514  1.0000 -0.6896790877
O   O44       1.0  0.80568  0.07082  0.61210  1.0000 -0.6896790877
O   O45       1.0  0.80642  0.19432  0.26514  1.0000 -0.6896790877
O   O46       1.0  0.79128  0.55642  0.11210  1.0000 -0.6896790877
O   O47       1.0  0.92918  0.54128  0.73486  1.0000 -0.6896790877
O   O48       1.0  0.44432  0.67918  0.88790  1.0000 -0.6896790877
O   O49       1.0  0.60716  0.69661  0.14997  1.0000 -0.5833065018
O   O50       1.0  0.70719  0.35716  0.41055  1.0000 -0.5833065018
O   O51       1.0  0.54664  0.45719  0.85003  1.0000 -0.5833065018
O   O52       1.0  0.94661  0.29664  0.58945  1.0000 -0.5833065018
O   O53       1.0  0.64284  0.05339  0.35003  1.0000 -0.5833065018
O   O54       1.0  0.54281  0.39284  0.08945  1.0000 -0.5833065018
O   O55       1.0  0.70336  0.29281  0.64997  1.0000 -0.5833065018
O   O56       1.0  0.30339  0.45336  0.91055  1.0000 -0.5833065018
O   O57       1.0  0.54122  0.58036  0.17798  1.0000 -0.5665137059
O   O58       1.0  0.61324  0.29122  0.46086  1.0000 -0.5665137059
O   O59       1.0  0.40238  0.36324  0.82202  1.0000 -0.5665137059
O   O60       1.0  0.83036  0.15238  0.53914  1.0000 -0.5642979259
O   O61       1.0  0.70878  0.16964  0.32202  1.0000 -0.5665137059
O   O62       1.0  0.63676  0.45878  0.03914  1.0000 -0.5665137059
O   O63       1.0  0.84762  0.38676  0.67798  1.0000 -0.5665137059
O   O64       1.0  0.41964  0.59762  0.96086  1.0000 -0.5665137059
O   O65       1.0  0.02528  0.08343  0.17231  1.0000 -0.5833065018
O   O66       1.0  0.10297  0.77528  0.44185  1.0000 -0.5833065018
O   O67       1.0  0.91112  0.85297  0.82769  1.0000 -0.5833065018
O   O68       1.0  0.33343  0.66112  0.55815  1.0000 -0.5833065018
O   O69       1.0  0.22472  0.66657  0.32769  1.0000 -0.5833065018
O   O70       1.0  0.14703  0.97472  0.05815  1.0000 -0.5833065018
O   O71       1.0  0.33888  0.89703  0.67231  1.0000 -0.5833065018
O   O72       1.0  0.91657  0.08888  0.94185  1.0000 -0.5833065018
O   O73       1.0  0.15951  0.15942  0.17133  1.0000 -0.5833065018
O   O74       1.0  0.23818  0.90951  0.50009  1.0000 -0.5833065018
O   O75       1.0  0.98809  0.98818  0.82867  1.0000 -0.5833065018
O   O76       1.0  0.40942  0.73809  0.49991  1.0000 -0.5833065018
O   O77       1.0  0.09049  0.59058  0.32867  1.0000 -0.5833065018
O   O78       1.0  0.01182  0.84049  0.99991  1.0000 -0.5833065018
O   O79       1.0  0.26191  0.76182  0.67133  1.0000 -0.5833065018
O   O80       1.0  0.84058  0.01191  0.00009  1.0000 -0.5833065018
O   O81       1.0  0.98819  0.01298  0.25717  1.0000 -0.6809010223
O   O82       1.0  0.98102  0.73819  0.47521  1.0000 -0.6809010223
O   O83       1.0  0.75581  0.73102  0.74283  1.0000 -0.6809010223
O   O84       1.0  0.26298  0.50581  0.52479  1.0000 -0.6809010223
O   O85       1.0  0.26181  0.73702  0.24283  1.0000 -0.6809010223
O   O86       1.0  0.26898  0.01181  0.02479  1.0000 -0.6809010223
O   O87       1.0  0.49419  0.01898  0.75717  1.0000 -0.6809010223
O   O88       1.0  0.98702  0.24419  0.97521  1.0000 -0.6809010223
O   O89       1.0  0.18446  0.21711  0.27237  1.0000 -0.6631020554
O   O90       1.0  0.16209  0.93446  0.46735  1.0000 -0.6631020554
O   O91       1.0  0.94474  0.91209  0.72763  1.0000 -0.6631020554
O   O92       1.0  0.46711  0.69474  0.53265  1.0000 -0.6631020554
O   O93       1.0  0.06554  0.53289  0.22763  1.0000 -0.6631020554
O   O94       1.0  0.08791  0.81554  0.03265  1.0000 -0.6631020554
O   O95       1.0  0.30526  0.83791  0.77237  1.0000 -0.6631020554
O   O96       1.0  0.78289  0.05526  0.96735  1.0000 -0.6631020554
O   O97       1.0  0.53120  0.55770  0.28990  1.0000 -0.6098138742
O   O98       1.0  0.49130  0.28120  0.47350  1.0000 -0.6098138742
O   O99       1.0  0.26780  0.24130  0.71010  1.0000 -0.6098138742
O   O100      1.0  0.80770  0.01780  0.52650  1.0000 -0.6098138742
O   O101      1.0  0.71880  0.19230  0.21010  1.0000 -0.6098138742
O   O102      1.0  0.75870  0.46880  0.02650  1.0000 -0.6098138742
O   O103      1.0  0.98220  0.50870  0.78990  1.0000 -0.6098138742
O   O104      1.0  0.44230  0.73220  0.97350  1.0000 -0.6098138742
O   O105      1.0  0.41460  0.43860  0.33540  1.0000 -0.5833065018
O   O106      1.0  0.32920  0.16460  0.47600  1.0000 -0.5833065018
O   O107      1.0  0.10320  0.07920  0.66460  1.0000 -0.5833065018
O   O108      1.0  0.68860  0.85320  0.52400  1.0000 -0.5833065018
O   O109      1.0  0.83540  0.31140  0.16460  1.0000 -0.5833065018
O   O110      1.0  0.92080  0.58540  0.02400  1.0000 -0.5833065018
O   O111      1.0  0.14680  0.67080  0.83540  1.0000 -0.5833065018
O   O112      1.0  0.56140  0.89680  0.97600  1.0000 -0.5833065018
O   O113      1.0  0.71790  0.81010  0.33680  1.0000 -0.5642979259
O   O114      1.0  0.63110  0.46790  0.40780  1.0000 -0.5642979259
O   O115      1.0  0.47330  0.38110  0.66320  1.0000 -0.5642979259
O   O116      1.0  0.06010  0.22330  0.59220  1.0000 -0.5642979259
O   O117      1.0  0.53210  0.93990  0.16320  1.0000 -0.5642979259
O   O118      1.0  0.61890  0.28210  0.09220  1.0000 -0.5642979259
O   O119      1.0  0.77670  0.36890  0.83680  1.0000 -0.5642979259
O   O120      1.0  0.18990  0.52670  0.90780  1.0000 -0.5642979259
O   O121      1.0  0.80760  0.83600  0.33900  1.0000 -0.634406136
O   O122      1.0  0.71860  0.55760  0.47160  1.0000 -0.634406136
O   O123      1.0  0.49700  0.46860  0.66100  1.0000 -0.634406136
O   O124      1.0  0.08600  0.24700  0.52840  1.0000 -0.634406136
O   O125      1.0  0.44240  0.91400  0.16100  1.0000 -0.634406136
O   O126      1.0  0.53140  0.19240  0.02840  1.0000 -0.634406136
O   O127      1.0  0.75300  0.28140  0.83900  1.0000 -0.634406136
O   O128      1.0  0.16400  0.50300  0.97160  1.0000 -0.634406136
