# DDEC6 charges by PACMAN v1.1 (https://github.com/mtap-research/PACMAN-charge/)
data_2013[Ni][nan]3[ASR]11
_chemical_formula_sum              "Ni6 H80 C110 N10 O30"
_cell_length_a       13.144
_cell_length_b       16.1395
_cell_length_c       17.3653
_cell_angle_alpha    112.258
_cell_angle_beta     104.013
_cell_angle_gamma    96.65

_symmetry_space_group_name_H-M    "P 1"
_symmetry_Int_Tables_number       1

loop_
  _symmetry_equiv_pos_as_xyz
  'x, y, z'

loop_
  _atom_site_type_symbol
  _atom_site_label
  _atom_site_symmetry_multiplicity
  _atom_site_fract_x
  _atom_site_fract_y
  _atom_site_fract_z
  _atom_site_occupancy
  _atom_site_charge
Ni  Ni1       1.0  0.91930  0.27195  0.30179  1.0000 0.7728197493
Ni  Ni2       1.0  0.08070  0.72805  0.69821  1.0000 0.7728197493
Ni  Ni3       1.0  0.12297  0.27285  0.22965  1.0000 0.7792887904
Ni  Ni4       1.0  0.87703  0.72715  0.77035  1.0000 0.7792887904
Ni  Ni5       1.0  0.32717  0.72733  0.32222  1.0000 0.6354813196
Ni  Ni6       1.0  0.67283  0.27267  0.67778  1.0000 0.6354813196
H   H1        1.0  0.02560  0.15950  0.26830  1.0000 0.391271285
H   H2        1.0  0.97440  0.84050  0.73170  1.0000 0.391271285
H   H3        1.0  0.09380  0.23140  0.35330  1.0000 0.3820586421
H   H4        1.0  0.90620  0.76860  0.64670  1.0000 0.3820586421
H   H5        1.0  0.15570  0.37330  0.15480  1.0000 0.3215529092
H   H6        1.0  0.84430  0.62670  0.84520  1.0000 0.3215529092
H   H7        1.0  0.12630  0.28840  0.14330  1.0000 0.2596556016
H   H8        1.0  0.87370  0.71160  0.85670  1.0000 0.2596556016
H   H9        1.0  0.20000  0.80790  0.27760  1.0000 0.3718330183
H   H10       1.0  0.80000  0.19210  0.72240  1.0000 0.3718330183
H   H11       1.0  0.28390  0.81920  0.36720  1.0000 0.3215529092
H   H12       1.0  0.71610  0.18080  0.63280  1.0000 0.3215529092
H   H13       1.0  0.02130  0.53260  0.42140  1.0000 0.1299326964
H   H14       1.0  0.97870  0.46740  0.57860  1.0000 0.1299326964
H   H15       1.0  0.82640  0.69550  0.37720  1.0000 0.1199180071
H   H16       1.0  0.17360  0.30450  0.62280  1.0000 0.1199180071
H   H17       1.0  0.80040  0.62210  0.23110  1.0000 0.1110793071
H   H18       1.0  0.19960  0.37790  0.76890  1.0000 0.1110793071
H   H19       1.0  0.88720  0.58680  0.10550  1.0000 0.1199180071
H   H20       1.0  0.11280  0.41320  0.89450  1.0000 0.1199180071
H   H21       1.0  0.84410  0.50230  0.95650  1.0000 0.1299326964
H   H22       1.0  0.15590  0.49770  0.04350  1.0000 0.1299326964
H   H23       1.0  0.85270  0.35230  0.13740  1.0000 0.1110793071
H   H24       1.0  0.14730  0.64770  0.86260  1.0000 0.1110793071
H   H25       1.0  0.78340  0.07860  0.18590  1.0000 0.1110793071
H   H26       1.0  0.21660  0.92140  0.81410  1.0000 0.1110793071
H   H27       1.0  0.67360  0.96030  0.18520  1.0000 0.1392571919
H   H28       1.0  0.32640  0.03970  0.81480  1.0000 0.1392571919
H   H29       1.0  0.76250  0.09260  0.44660  1.0000 0.1392571919
H   H30       1.0  0.23750  0.90740  0.55340  1.0000 0.1392571919
H   H31       1.0  0.86760  0.20870  0.43750  1.0000 0.1199180071
H   H32       1.0  0.13240  0.79130  0.56250  1.0000 0.1199180071
H   H33       1.0  0.60320  0.83610  0.20220  1.0000 0.1392571919
H   H34       1.0  0.39680  0.16390  0.79780  1.0000 0.1392571919
H   H35       1.0  0.47140  0.73660  0.20810  1.0000 0.1199180071
H   H36       1.0  0.52860  0.26340  0.79190  1.0000 0.1199180071
H   H37       1.0  0.46550  0.91360  0.42950  1.0000 0.1008501664
H   H38       1.0  0.53450  0.08640  0.57050  1.0000 0.1008501664
H   H39       1.0  0.60060  0.02050  0.43300  1.0000 0.1392571919
H   H40       1.0  0.39940  0.97950  0.56700  1.0000 0.1392571919
H   H41       1.0  0.93870  0.05610  0.97480  1.0000 0.1392571919
H   H42       1.0  0.06130  0.94390  0.02520  1.0000 0.1392571919
H   H43       1.0  0.57240  0.03660  0.91000  1.0000 0.1110793071
H   H44       1.0  0.42760  0.96340  0.09000  1.0000 0.1110793071
H   H45       1.0  0.68580  0.13680  0.04590  1.0000 0.1199180071
H   H46       1.0  0.31420  0.86320  0.95410  1.0000 0.1199180071
H   H47       1.0  0.69450  0.96070  0.70240  1.0000 0.1299326964
H   H48       1.0  0.30550  0.03930  0.29760  1.0000 0.1299326964
H   H49       1.0  0.57410  0.87640  0.56660  1.0000 0.1110793071
H   H50       1.0  0.42590  0.12360  0.43340  1.0000 0.1110793071
H   H51       1.0  0.37990  0.77140  0.66880  1.0000 0.1110793071
H   H52       1.0  0.62010  0.22860  0.33120  1.0000 0.1110793071
H   H53       1.0  0.49790  0.86170  0.80820  1.0000 0.1110793071
H   H54       1.0  0.50210  0.13830  0.19180  1.0000 0.1110793071
H   H55       1.0  0.84530  0.41930  0.42860  1.0000 0.1110793071
H   H56       1.0  0.15470  0.58070  0.57140  1.0000 0.1110793071
H   H57       1.0  0.72870  0.51250  0.43500  1.0000 0.1299326964
H   H58       1.0  0.27130  0.48750  0.56500  1.0000 0.1299326964
H   H59       1.0  0.57380  0.35360  0.18110  1.0000 0.1392571919
H   H60       1.0  0.42620  0.64640  0.81890  1.0000 0.1392571919
H   H61       1.0  0.69990  0.26860  0.18260  1.0000 0.1110793071
H   H62       1.0  0.30010  0.73140  0.81740  1.0000 0.1110793071
H   H63       1.0  0.66210  0.62280  0.41030  1.0000 0.1392571919
H   H64       1.0  0.33790  0.37720  0.58970  1.0000 0.1392571919
H   H65       1.0  0.54740  0.71680  0.41300  1.0000 0.1110793071
H   H66       1.0  0.45260  0.28320  0.58700  1.0000 0.1110793071
H   H67       1.0  0.32090  0.52160  0.21860  1.0000 0.1199180071
H   H68       1.0  0.67910  0.47840  0.78140  1.0000 0.1199180071
H   H69       1.0  0.42820  0.41820  0.21090  1.0000 0.1392571919
H   H70       1.0  0.57180  0.58180  0.78910  1.0000 0.1392571919
H   H71       1.0  0.20730  0.46750  0.37220  1.0000 0.1110793071
H   H72       1.0  0.79270  0.53250  0.62780  1.0000 0.1110793071
H   H73       1.0  0.36180  0.56360  0.47510  1.0000 0.1299326964
H   H74       1.0  0.63820  0.43640  0.52490  1.0000 0.1299326964
H   H75       1.0  0.50240  0.35380  0.42470  1.0000 0.1199180071
H   H76       1.0  0.49760  0.64620  0.57530  1.0000 0.1199180071
H   H77       1.0  0.34700  0.26280  0.31760  1.0000 0.1110793071
H   H78       1.0  0.65300  0.73720  0.68240  1.0000 0.1110793071
H   H79       1.0  0.81870  0.27160  0.99050  1.0000 0.1199180071
H   H80       1.0  0.18130  0.72840  0.00950  1.0000 0.1199180071
C   C1        1.0  0.03240  0.44250  0.26270  1.0000 0.5591446378
C   C2        1.0  0.96760  0.55750  0.73730  1.0000 0.5591446378
C   C3        1.0  0.96330  0.50830  0.29450  1.0000 -0.0494820892
C   C4        1.0  0.03670  0.49170  0.70550  1.0000 -0.0494820892
C   C5        1.0  0.97770  0.55110  0.38310  1.0000 -0.1283087141
C   C6        1.0  0.02230  0.44890  0.61690  1.0000 -0.1283087141
C   C7        1.0  0.92650  0.62270  0.41540  1.0000 -0.0264746889
C   C8        1.0  0.07350  0.37730  0.58460  1.0000 -0.0264746889
C   C9        1.0  0.86040  0.64800  0.35660  1.0000 -0.1187116771
C   C10       1.0  0.13960  0.35200  0.64340  1.0000 -0.1187116771
C   C11       1.0  0.84510  0.60380  0.26900  1.0000 -0.1413453899
C   C12       1.0  0.15490  0.39620  0.73100  1.0000 -0.1413453899
C   C13       1.0  0.89400  0.53210  0.23440  1.0000 0.047824939
C   C14       1.0  0.10600  0.46790  0.76560  1.0000 0.047824939
C   C15       1.0  0.87140  0.48040  0.13920  1.0000 0.0731939443
C   C16       1.0  0.12860  0.51960  0.86080  1.0000 0.0731939443
C   C17       1.0  0.87110  0.52290  0.08260  1.0000 -0.1283087141
C   C18       1.0  0.12890  0.47710  0.91740  1.0000 -0.1283087141
C   C19       1.0  0.84730  0.47230  0.99310  1.0000 -0.0929152823
C   C20       1.0  0.15270  0.52770  0.00690  1.0000 -0.0929152823
C   C21       1.0  0.82810  0.37670  0.95790  1.0000 -0.0192745782
C   C22       1.0  0.17190  0.62330  0.04210  1.0000 -0.0192745782
C   C23       1.0  0.85170  0.38360  0.10200  1.0000 -0.1283087141
C   C24       1.0  0.14830  0.61640  0.89800  1.0000 -0.1283087141
C   C25       1.0  0.93840  0.66890  0.51220  1.0000 0.5524488606
C   C26       1.0  0.06160  0.33110  0.48780  1.0000 0.5524488606
C   C27       1.0  0.79930  0.31820  0.86150  1.0000 0.5591446378
C   C28       1.0  0.20070  0.68180  0.13850  1.0000 0.5591446378
C   C29       1.0  0.77700  0.08240  0.23930  1.0000 0.0731939443
C   C30       1.0  0.22300  0.91760  0.76070  1.0000 0.0731939443
C   C31       1.0  0.71130  0.01060  0.23770  1.0000 -0.1803263712
C   C32       1.0  0.28870  0.98940  0.76230  1.0000 -0.1803263712
C   C33       1.0  0.70140  0.01380  0.31700  1.0000 0.1110793071
C   C34       1.0  0.29860  0.98620  0.68300  1.0000 0.1110793071
C   C35       1.0  0.76350  0.08900  0.39200  1.0000 -0.1733187668
C   C36       1.0  0.23650  0.91100  0.60800  1.0000 -0.1733187668
C   C37       1.0  0.82680  0.15850  0.38580  1.0000 0.1008501664
C   C38       1.0  0.17320  0.84150  0.61420  1.0000 0.1008501664
C   C39       1.0  0.62020  0.94200  0.31810  1.0000 0.1199180071
C   C40       1.0  0.37980  0.05800  0.68190  1.0000 0.1199180071
C   C41       1.0  0.57730  0.85430  0.25000  1.0000 -0.2006653294
C   C42       1.0  0.42270  0.14570  0.75000  1.0000 -0.2006653294
C   C43       1.0  0.49680  0.79520  0.25370  1.0000 0.0795006596
C   C44       1.0  0.50320  0.20480  0.74630  1.0000 0.0795006596
C   C45       1.0  0.49330  0.89800  0.38280  1.0000 0.0904974893
C   C46       1.0  0.50670  0.10200  0.61720  1.0000 0.0904974893
C   C47       1.0  0.57570  0.96300  0.38570  1.0000 -0.1889446907
C   C48       1.0  0.42430  0.03700  0.61430  1.0000 -0.1889446907
C   C49       1.0  0.89900  0.17570  0.11200  1.0000 0.5669129558
C   C50       1.0  0.10100  0.82430  0.88800  1.0000 0.5669129558
C   C51       1.0  0.82560  0.10860  0.02450  1.0000 -0.0399721309
C   C52       1.0  0.17440  0.89140  0.97550  1.0000 -0.0399721309
C   C53       1.0  0.86480  0.05140  0.96250  1.0000 -0.1023580178
C   C54       1.0  0.13520  0.94860  0.03750  1.0000 -0.1023580178
C   C55       1.0  0.79490  0.98650  0.88150  1.0000 -0.0399721309
C   C56       1.0  0.20510  0.01350  0.11850  1.0000 -0.0399721309
C   C57       1.0  0.68420  0.98280  0.85880  1.0000 0.047824939
C   C58       1.0  0.31580  0.01720  0.14120  1.0000 0.047824939
C   C59       1.0  0.64600  0.03970  0.92270  1.0000 -0.1494978972
C   C60       1.0  0.35400  0.96030  0.07730  1.0000 -0.1494978972
C   C61       1.0  0.71410  0.10070  0.00420  1.0000 -0.1187116771
C   C62       1.0  0.28590  0.89930  0.99580  1.0000 -0.1187116771
C   C63       1.0  0.84120  0.91360  0.82480  1.0000 0.5669129558
C   C64       1.0  0.15880  0.08640  0.17520  1.0000 0.5669129558
C   C65       1.0  0.61050  0.92250  0.77120  1.0000 0.0795006596
C   C66       1.0  0.38950  0.07750  0.22880  1.0000 0.0795006596
C   C67       1.0  0.63050  0.92420  0.69660  1.0000 -0.1283087141
C   C68       1.0  0.36950  0.07580  0.30340  1.0000 -0.1283087141
C   C69       1.0  0.55850  0.87340  0.61510  1.0000 -0.1187116771
C   C70       1.0  0.44150  0.12660  0.38490  1.0000 -0.1187116771
C   C71       1.0  0.46260  0.81750  0.60340  1.0000 -0.0494820892
C   C72       1.0  0.53740  0.18250  0.39660  1.0000 -0.0494820892
C   C73       1.0  0.44210  0.81140  0.67600  1.0000 -0.1139473773
C   C74       1.0  0.55790  0.18860  0.32400  1.0000 -0.1139473773
C   C75       1.0  0.51380  0.86450  0.75970  1.0000 -0.1553114734
C   C76       1.0  0.48620  0.13550  0.24030  1.0000 -0.1553114734
C   C77       1.0  0.38130  0.76520  0.51480  1.0000 0.5412122228
C   C78       1.0  0.61870  0.23480  0.48520  1.0000 0.5412122228
C   C79       1.0  0.79200  0.40790  0.37720  1.0000 0.1110793071
C   C80       1.0  0.20800  0.59210  0.62280  1.0000 0.1110793071
C   C81       1.0  0.72080  0.46350  0.38210  1.0000 -0.1803263712
C   C82       1.0  0.27920  0.53650  0.61790  1.0000 -0.1803263712
C   C83       1.0  0.63560  0.44630  0.30720  1.0000 0.1110793071
C   C84       1.0  0.36440  0.55370  0.69280  1.0000 0.1110793071
C   C85       1.0  0.62990  0.37030  0.23240  1.0000 -0.1889446907
C   C86       1.0  0.37010  0.62970  0.76760  1.0000 -0.1889446907
C   C87       1.0  0.70650  0.31950  0.23380  1.0000 0.0621148508
C   C88       1.0  0.29350  0.68050  0.76620  1.0000 0.0621148508
C   C89       1.0  0.56120  0.50840  0.31000  1.0000 0.1008501664
C   C90       1.0  0.43880  0.49160  0.69000  1.0000 0.1008501664
C   C91       1.0  0.59300  0.59990  0.37040  1.0000 -0.1803263712
C   C92       1.0  0.40700  0.40010  0.62960  1.0000 -0.1803263712
C   C93       1.0  0.52360  0.65600  0.37130  1.0000 0.0621148508
C   C94       1.0  0.47640  0.34400  0.62870  1.0000 0.0621148508
C   C95       1.0  0.39040  0.54190  0.25770  1.0000 0.1110793071
C   C96       1.0  0.60960  0.45810  0.74230  1.0000 0.1110793071
C   C97       1.0  0.45470  0.47900  0.25210  1.0000 -0.1889446907
C   C98       1.0  0.54530  0.52100  0.74790  1.0000 -0.1889446907
C   C99       1.0  0.26790  0.44380  0.38210  1.0000 0.0795006596
C   C100      1.0  0.73210  0.55620  0.61790  1.0000 0.0795006596
C   C101      1.0  0.36030  0.50170  0.44530  1.0000 -0.1803263712
C   C102      1.0  0.63970  0.49830  0.55470  1.0000 -0.1803263712
C   C103      1.0  0.44960  0.47020  0.46490  1.0000 0.1008501664
C   C104      1.0  0.55040  0.52980  0.53510  1.0000 0.1008501664
C   C105      1.0  0.44280  0.37870  0.41480  1.0000 -0.2006653294
C   C106      1.0  0.55720  0.62130  0.58520  1.0000 -0.2006653294
C   C107      1.0  0.34860  0.32400  0.35050  1.0000 0.1008501664
C   C108      1.0  0.65140  0.67600  0.64950  1.0000 0.1008501664
C   C109      1.0  0.83110  0.33540  0.01360  1.0000 -0.1023580178
C   C110      1.0  0.16890  0.66460  0.98640  1.0000 -0.1023580178
N   N1        1.0  0.83370  0.15850  0.31090  1.0000 -0.2305450149
N   N2        1.0  0.16630  0.84150  0.68910  1.0000 -0.2305450149
N   N3        1.0  0.45280  0.81590  0.31760  1.0000 -0.2103945943
N   N4        1.0  0.54720  0.18410  0.68240  1.0000 -0.2103945943
N   N5        1.0  0.79070  0.33920  0.30480  1.0000 -0.2198011286
N   N6        1.0  0.20930  0.66080  0.69520  1.0000 -0.2198011286
N   N7        1.0  0.42180  0.62940  0.31540  1.0000 -0.2103945943
N   N8        1.0  0.57820  0.37060  0.68460  1.0000 -0.2103945943
N   N9        1.0  0.26010  0.35400  0.33320  1.0000 -0.2103945943
N   N10       1.0  0.73990  0.64600  0.66680  1.0000 -0.2103945943
O   O1        1.0  0.02870  0.36990  0.27540  1.0000 -0.5750156722
O   O2        1.0  0.97130  0.63010  0.72460  1.0000 -0.5750156722
O   O3        1.0  0.09770  0.46840  0.23030  1.0000 -0.5264754973
O   O4        1.0  0.90230  0.53160  0.76970  1.0000 -0.5264754973
O   O5        1.0  0.01430  0.65610  0.56430  1.0000 -0.5599695228
O   O6        1.0  0.98570  0.34390  0.43570  1.0000 -0.5599695228
O   O7        1.0  0.87340  0.71690  0.53390  1.0000 -0.539142885
O   O8        1.0  0.12660  0.28310  0.46610  1.0000 -0.539142885
O   O9        1.0  0.83240  0.24750  0.83870  1.0000 -0.5154652081
O   O10       1.0  0.16760  0.75250  0.16130  1.0000 -0.5154652081
O   O11       1.0  0.73830  0.34190  0.81020  1.0000 -0.539142885
O   O12       1.0  0.26170  0.65810  0.18980  1.0000 -0.539142885
O   O13       1.0  0.85610  0.20810  0.17110  1.0000 -0.5599695228
O   O14       1.0  0.14390  0.79190  0.82890  1.0000 -0.5599695228
O   O15       1.0  0.99740  0.19290  0.12030  1.0000 -0.5037977181
O   O16       1.0  0.00260  0.80710  0.87970  1.0000 -0.5037977181
O   O17       1.0  0.91590  0.94030  0.79830  1.0000 -0.5700357936
O   O18       1.0  0.08410  0.05970  0.20170  1.0000 -0.5700357936
O   O19       1.0  0.80210  0.83230  0.80890  1.0000 -0.5264754973
O   O20       1.0  0.19790  0.16770  0.19110  1.0000 -0.5264754973
O   O21       1.0  0.30740  0.70070  0.50300  1.0000 -0.5532424531
O   O22       1.0  0.69260  0.29930  0.49700  1.0000 -0.5532424531
O   O23       1.0  0.39290  0.79050  0.45610  1.0000 -0.5700357936
O   O24       1.0  0.60710  0.20950  0.54390  1.0000 -0.5700357936
O   O25       1.0  0.05460  0.21660  0.29990  1.0000 -0.6649103246
O   O26       1.0  0.94540  0.78340  0.70010  1.0000 -0.6673359754
O   O27       1.0  0.18130  0.32900  0.15360  1.0000 -0.6327527247
O   O28       1.0  0.81870  0.67100  0.84640  1.0000 -0.6327527247
O   O29       1.0  0.23970  0.83130  0.33060  1.0000 -0.6673359754
O   O30       1.0  0.76030  0.16870  0.66940  1.0000 -0.6673359754
