# DDEC6 charges by PACMAN v1.1 (https://github.com/mtap-research/PACMAN-charge/)
data_2013[Cd][dia]3[ASR]3
_chemical_formula_sum              "Cd8 H336 C384 N16 O64"
_cell_length_a       15.8642
_cell_length_b       15.8642
_cell_length_c       42.9758
_cell_angle_alpha    90
_cell_angle_beta     90
_cell_angle_gamma    90

_symmetry_space_group_name_H-M    "P 1"
_symmetry_Int_Tables_number       1

loop_
  _symmetry_equiv_pos_as_xyz
  'x, y, z'

loop_
  _atom_site_type_symbol
  _atom_site_label
  _atom_site_symmetry_multiplicity
  _atom_site_fract_x
  _atom_site_fract_y
  _atom_site_fract_z
  _atom_site_occupancy
  _atom_site_charge
Cd  Cd1       1.0  0.08432  0.77887  0.78135  1.0000 0.8993081826
Cd  Cd2       1.0  0.91568  0.22113  0.28135  1.0000 0.8993081826
Cd  Cd3       1.0  0.72113  0.58432  0.53135  1.0000 0.8993081826
Cd  Cd4       1.0  0.27887  0.41568  0.03135  1.0000 0.8993081826
Cd  Cd5       1.0  0.41568  0.27887  0.96865  1.0000 0.8993081826
Cd  Cd6       1.0  0.58432  0.72113  0.46865  1.0000 0.8993081826
Cd  Cd7       1.0  0.77887  0.08432  0.21865  1.0000 0.8993081826
Cd  Cd8       1.0  0.22113  0.91568  0.71865  1.0000 0.8993081826
H   H1        1.0  0.25149  0.37238  0.64556  1.0000 0.3270755414
H   H2        1.0  0.74851  0.62762  0.14556  1.0000 0.3270755414
H   H3        1.0  0.12762  0.75149  0.39556  1.0000 0.3270755414
H   H4        1.0  0.87238  0.24851  0.89556  1.0000 0.3270755414
H   H5        1.0  0.24851  0.87238  0.10444  1.0000 0.3270755414
H   H6        1.0  0.75149  0.12762  0.60444  1.0000 0.3270755414
H   H7        1.0  0.37238  0.25149  0.35444  1.0000 0.3270755414
H   H8        1.0  0.62762  0.74851  0.85444  1.0000 0.3270755414
H   H9        1.0  0.06114  0.29941  0.66439  1.0000 0.3350516337
H   H10       1.0  0.93886  0.70059  0.16439  1.0000 0.3350516337
H   H11       1.0  0.20059  0.56114  0.41439  1.0000 0.3350516337
H   H12       1.0  0.79941  0.43886  0.91439  1.0000 0.3350516337
H   H13       1.0  0.43886  0.79941  0.08561  1.0000 0.3350516337
H   H14       1.0  0.56114  0.20059  0.58561  1.0000 0.3350516337
H   H15       1.0  0.29941  0.06114  0.33561  1.0000 0.3350516337
H   H16       1.0  0.70059  0.93886  0.83561  1.0000 0.3350516337
H   H17       1.0  0.37695  0.55132  0.65270  1.0000 0.108994175
H   H18       1.0  0.62305  0.44868  0.15270  1.0000 0.108994175
H   H19       1.0  0.94868  0.87695  0.40270  1.0000 0.108994175
H   H20       1.0  0.05132  0.12305  0.90270  1.0000 0.108994175
H   H21       1.0  0.12305  0.05132  0.09730  1.0000 0.108994175
H   H22       1.0  0.87695  0.94868  0.59730  1.0000 0.108994175
H   H23       1.0  0.55132  0.37695  0.34730  1.0000 0.108994175
H   H24       1.0  0.44868  0.62305  0.84730  1.0000 0.108994175
H   H25       1.0  0.34623  0.44477  0.65708  1.0000 0.0822706182
H   H26       1.0  0.65377  0.55523  0.15708  1.0000 0.0822706182
H   H27       1.0  0.05523  0.84623  0.40708  1.0000 0.0822706182
H   H28       1.0  0.94477  0.15377  0.90708  1.0000 0.0822706182
H   H29       1.0  0.15377  0.94477  0.09292  1.0000 0.0822706182
H   H30       1.0  0.84623  0.05523  0.59292  1.0000 0.0822706182
H   H31       1.0  0.44477  0.34623  0.34292  1.0000 0.0822706182
H   H32       1.0  0.55523  0.65377  0.84292  1.0000 0.0822706182
H   H33       1.0  0.28647  0.66993  0.67371  1.0000 0.1183906983
H   H34       1.0  0.71353  0.33007  0.17371  1.0000 0.1183906983
H   H35       1.0  0.83007  0.78647  0.42371  1.0000 0.1183906983
H   H36       1.0  0.16993  0.21353  0.92371  1.0000 0.1183906983
H   H37       1.0  0.21353  0.16993  0.07629  1.0000 0.1183906983
H   H38       1.0  0.78647  0.83007  0.57629  1.0000 0.1183906983
H   H39       1.0  0.66993  0.28647  0.32629  1.0000 0.1183906983
H   H40       1.0  0.33007  0.71353  0.82629  1.0000 0.1183906983
H   H41       1.0  0.09306  0.60749  0.73991  1.0000 0.1183906983
H   H42       1.0  0.90694  0.39251  0.23991  1.0000 0.1183906983
H   H43       1.0  0.89251  0.59306  0.48991  1.0000 0.1183906983
H   H44       1.0  0.10749  0.40694  0.98991  1.0000 0.1183906983
H   H45       1.0  0.40694  0.10749  0.01009  1.0000 0.1183906983
H   H46       1.0  0.59306  0.89251  0.51009  1.0000 0.1183906983
H   H47       1.0  0.60749  0.09306  0.26009  1.0000 0.1183906983
H   H48       1.0  0.39251  0.90694  0.76009  1.0000 0.1183906983
H   H49       1.0  0.13228  0.37516  0.73476  1.0000 0.0919814879
H   H50       1.0  0.86772  0.62484  0.23476  1.0000 0.0919814879
H   H51       1.0  0.12484  0.63228  0.48476  1.0000 0.0919814879
H   H52       1.0  0.87516  0.36772  0.98476  1.0000 0.0919814879
H   H53       1.0  0.36772  0.87516  0.01524  1.0000 0.0919814879
H   H54       1.0  0.63228  0.12484  0.51524  1.0000 0.0919814879
H   H55       1.0  0.37516  0.13228  0.26524  1.0000 0.0919814879
H   H56       1.0  0.62484  0.86772  0.76524  1.0000 0.0919814879
H   H57       1.0  0.09291  0.45774  0.75942  1.0000 0.0985472765
H   H58       1.0  0.90709  0.54226  0.25942  1.0000 0.0985472765
H   H59       1.0  0.04226  0.59291  0.50942  1.0000 0.0985472765
H   H60       1.0  0.95774  0.40709  0.00942  1.0000 0.0985472765
H   H61       1.0  0.40709  0.95774  0.99058  1.0000 0.0985472765
H   H62       1.0  0.59291  0.04226  0.49058  1.0000 0.0985472765
H   H63       1.0  0.45774  0.09291  0.24058  1.0000 0.0985472765
H   H64       1.0  0.54226  0.90709  0.74058  1.0000 0.0985472765
H   H65       1.0  0.95412  0.51801  0.75088  1.0000 0.0985472765
H   H66       1.0  0.04588  0.48199  0.25088  1.0000 0.0985472765
H   H67       1.0  0.98199  0.45412  0.50088  1.0000 0.0985472765
H   H68       1.0  0.01801  0.54588  0.00088  1.0000 0.0985472765
H   H69       1.0  0.54588  0.01801  0.99912  1.0000 0.0985472765
H   H70       1.0  0.45412  0.98199  0.49912  1.0000 0.0985472765
H   H71       1.0  0.51801  0.95412  0.24912  1.0000 0.0985472765
H   H72       1.0  0.48199  0.04588  0.74912  1.0000 0.0985472765
H   H73       1.0  0.81028  0.50196  0.72675  1.0000 0.0919814879
H   H74       1.0  0.18972  0.49804  0.22675  1.0000 0.0919814879
H   H75       1.0  0.99804  0.31028  0.47675  1.0000 0.0919814879
H   H76       1.0  0.00196  0.68972  0.97675  1.0000 0.0919814879
H   H77       1.0  0.68972  0.00196  0.02325  1.0000 0.0919814879
H   H78       1.0  0.31028  0.99804  0.52325  1.0000 0.0919814879
H   H79       1.0  0.50196  0.81028  0.27325  1.0000 0.0919814879
H   H80       1.0  0.49804  0.18972  0.77325  1.0000 0.0919814879
H   H81       1.0  0.79217  0.40274  0.68142  1.0000 0.0985472765
H   H82       1.0  0.20783  0.59726  0.18142  1.0000 0.0985472765
H   H83       1.0  0.09726  0.29217  0.43142  1.0000 0.0985472765
H   H84       1.0  0.90274  0.70783  0.93142  1.0000 0.0985472765
H   H85       1.0  0.70783  0.90274  0.06858  1.0000 0.0985472765
H   H86       1.0  0.29217  0.09726  0.56858  1.0000 0.0985472765
H   H87       1.0  0.40274  0.79217  0.31858  1.0000 0.0985472765
H   H88       1.0  0.59726  0.20783  0.81858  1.0000 0.0985472765
H   H89       1.0  0.84358  0.28897  0.65109  1.0000 0.108994175
H   H90       1.0  0.15642  0.71103  0.15109  1.0000 0.108994175
H   H91       1.0  0.21103  0.34358  0.40109  1.0000 0.108994175
H   H92       1.0  0.78897  0.65642  0.90109  1.0000 0.108994175
H   H93       1.0  0.65642  0.78897  0.09891  1.0000 0.108994175
H   H94       1.0  0.34358  0.21103  0.59891  1.0000 0.108994175
H   H95       1.0  0.28897  0.84358  0.34891  1.0000 0.108994175
H   H96       1.0  0.71103  0.15642  0.84891  1.0000 0.108994175
H   H97       1.0  0.94709  0.24870  0.65513  1.0000 0.0919814879
H   H98       1.0  0.05291  0.75130  0.15513  1.0000 0.0919814879
H   H99       1.0  0.25130  0.44709  0.40513  1.0000 0.0919814879
H   H100      1.0  0.74870  0.55291  0.90513  1.0000 0.0919814879
H   H101      1.0  0.55291  0.74870  0.09487  1.0000 0.0919814879
H   H102      1.0  0.44709  0.25130  0.59487  1.0000 0.0919814879
H   H103      1.0  0.24870  0.94709  0.34487  1.0000 0.0919814879
H   H104      1.0  0.75130  0.05291  0.84487  1.0000 0.0919814879
H   H105      1.0  0.81618  0.42079  0.61859  1.0000 0.1183906983
H   H106      1.0  0.18382  0.57921  0.11859  1.0000 0.1183906983
H   H107      1.0  0.07921  0.31618  0.36859  1.0000 0.1183906983
H   H108      1.0  0.92079  0.68382  0.86859  1.0000 0.1183906983
H   H109      1.0  0.68382  0.92079  0.13141  1.0000 0.1183906983
H   H110      1.0  0.31618  0.07921  0.63141  1.0000 0.1183906983
H   H111      1.0  0.42079  0.81618  0.38141  1.0000 0.1183906983
H   H112      1.0  0.57921  0.18382  0.88141  1.0000 0.1183906983
H   H113      1.0  0.00180  0.48363  0.54970  1.0000 0.108994175
H   H114      1.0  0.99820  0.51637  0.04970  1.0000 0.108994175
H   H115      1.0  0.01637  0.50180  0.29970  1.0000 0.108994175
H   H116      1.0  0.98363  0.49820  0.79970  1.0000 0.108994175
H   H117      1.0  0.49820  0.98363  0.20030  1.0000 0.108994175
H   H118      1.0  0.50180  0.01637  0.70030  1.0000 0.108994175
H   H119      1.0  0.48363  0.00180  0.45030  1.0000 0.108994175
H   H120      1.0  0.51637  0.99820  0.95030  1.0000 0.108994175
H   H121      1.0  0.16096  0.32418  0.57672  1.0000 0.0985472765
H   H122      1.0  0.83904  0.67582  0.07672  1.0000 0.0985472765
H   H123      1.0  0.17582  0.66096  0.32672  1.0000 0.0985472765
H   H124      1.0  0.82418  0.33904  0.82672  1.0000 0.0985472765
H   H125      1.0  0.33904  0.82418  0.17328  1.0000 0.0985472765
H   H126      1.0  0.66096  0.17582  0.67328  1.0000 0.0985472765
H   H127      1.0  0.32418  0.16096  0.42328  1.0000 0.0985472765
H   H128      1.0  0.67582  0.83904  0.92328  1.0000 0.0985472765
H   H129      1.0  0.12820  0.38746  0.54446  1.0000 0.0985472765
H   H130      1.0  0.87180  0.61254  0.04446  1.0000 0.0985472765
H   H131      1.0  0.11254  0.62820  0.29446  1.0000 0.0985472765
H   H132      1.0  0.88746  0.37180  0.79446  1.0000 0.0985472765
H   H133      1.0  0.37180  0.88746  0.20554  1.0000 0.0985472765
H   H134      1.0  0.62820  0.11254  0.70554  1.0000 0.0985472765
H   H135      1.0  0.38746  0.12820  0.45554  1.0000 0.0985472765
H   H136      1.0  0.61254  0.87180  0.95554  1.0000 0.0985472765
H   H137      1.0  0.14328  0.54255  0.54665  1.0000 0.0919814879
H   H138      1.0  0.85672  0.45745  0.04665  1.0000 0.0919814879
H   H139      1.0  0.95745  0.64328  0.29665  1.0000 0.0919814879
H   H140      1.0  0.04255  0.35672  0.79665  1.0000 0.0919814879
H   H141      1.0  0.35672  0.04255  0.20335  1.0000 0.0919814879
H   H142      1.0  0.64328  0.95745  0.70335  1.0000 0.0919814879
H   H143      1.0  0.54255  0.14328  0.45335  1.0000 0.0919814879
H   H144      1.0  0.45745  0.85672  0.95335  1.0000 0.0919814879
H   H145      1.0  0.21729  0.66861  0.56997  1.0000 0.0985472765
H   H146      1.0  0.78271  0.33139  0.06997  1.0000 0.0985472765
H   H147      1.0  0.83139  0.71729  0.31997  1.0000 0.0985472765
H   H148      1.0  0.16861  0.28271  0.81997  1.0000 0.0985472765
H   H149      1.0  0.28271  0.16861  0.18003  1.0000 0.0985472765
H   H150      1.0  0.71729  0.83139  0.68003  1.0000 0.0985472765
H   H151      1.0  0.66861  0.21729  0.43003  1.0000 0.0985472765
H   H152      1.0  0.33139  0.78271  0.93003  1.0000 0.0985472765
H   H153      1.0  0.30086  0.64901  0.61904  1.0000 0.0985472765
H   H154      1.0  0.69914  0.35099  0.11904  1.0000 0.0985472765
H   H155      1.0  0.85099  0.80086  0.36904  1.0000 0.0985472765
H   H156      1.0  0.14901  0.19914  0.86904  1.0000 0.0985472765
H   H157      1.0  0.19914  0.14901  0.13096  1.0000 0.0985472765
H   H158      1.0  0.80086  0.85099  0.63096  1.0000 0.0985472765
H   H159      1.0  0.64901  0.30086  0.38096  1.0000 0.0985472765
H   H160      1.0  0.35099  0.69914  0.88096  1.0000 0.0985472765
H   H161      1.0  0.07434  0.21774  0.57871  1.0000 0.0486523593
H   H162      1.0  0.92566  0.78226  0.07871  1.0000 0.0486523593
H   H163      1.0  0.28226  0.57434  0.32871  1.0000 0.0486523593
H   H164      1.0  0.71774  0.42566  0.82871  1.0000 0.0486523593
H   H165      1.0  0.42566  0.71774  0.17129  1.0000 0.0486523593
H   H166      1.0  0.57434  0.28226  0.67129  1.0000 0.0486523593
H   H167      1.0  0.21774  0.07434  0.42129  1.0000 0.0486523593
H   H168      1.0  0.78226  0.92566  0.92129  1.0000 0.0486523593
H   H169      1.0  0.01098  0.16880  0.60835  1.0000 0.0591112745
H   H170      1.0  0.98902  0.83120  0.10835  1.0000 0.0591112745
H   H171      1.0  0.33120  0.51098  0.35835  1.0000 0.0591112745
H   H172      1.0  0.66880  0.48902  0.85835  1.0000 0.0591112745
H   H173      1.0  0.48902  0.66880  0.14165  1.0000 0.0591112745
H   H174      1.0  0.51098  0.33120  0.64165  1.0000 0.0591112745
H   H175      1.0  0.16880  0.01098  0.39165  1.0000 0.0591112745
H   H176      1.0  0.83120  0.98902  0.89165  1.0000 0.0591112745
H   H177      1.0  0.15948  0.09993  0.60257  1.0000 0.0822706182
H   H178      1.0  0.84052  0.90007  0.10257  1.0000 0.0822706182
H   H179      1.0  0.40007  0.65948  0.35257  1.0000 0.0822706182
H   H180      1.0  0.59993  0.34052  0.85257  1.0000 0.0822706182
H   H181      1.0  0.34052  0.59993  0.14743  1.0000 0.0822706182
H   H182      1.0  0.65948  0.40007  0.64743  1.0000 0.0822706182
H   H183      1.0  0.09993  0.15948  0.39743  1.0000 0.0822706182
H   H184      1.0  0.90007  0.84052  0.89743  1.0000 0.0822706182
H   H185      1.0  0.19862  0.19628  0.61797  1.0000 0.0919814879
H   H186      1.0  0.80138  0.80372  0.11797  1.0000 0.0919814879
H   H187      1.0  0.30372  0.69862  0.36797  1.0000 0.0919814879
H   H188      1.0  0.69628  0.30138  0.86797  1.0000 0.0919814879
H   H189      1.0  0.30138  0.69628  0.13203  1.0000 0.0919814879
H   H190      1.0  0.69862  0.30372  0.63203  1.0000 0.0919814879
H   H191      1.0  0.19628  0.19862  0.38203  1.0000 0.0919814879
H   H192      1.0  0.80372  0.80138  0.88203  1.0000 0.0919814879
H   H193      1.0  0.15426  0.15660  0.66938  1.0000 0.1287973176
H   H194      1.0  0.84574  0.84340  0.16938  1.0000 0.1287973176
H   H195      1.0  0.34340  0.65426  0.41938  1.0000 0.1287973176
H   H196      1.0  0.65660  0.34574  0.91938  1.0000 0.1287973176
H   H197      1.0  0.34574  0.65660  0.08062  1.0000 0.1287973176
H   H198      1.0  0.65426  0.34340  0.58062  1.0000 0.1287973176
H   H199      1.0  0.15660  0.15426  0.33062  1.0000 0.1287973176
H   H200      1.0  0.84340  0.84574  0.83062  1.0000 0.1287973176
H   H201      1.0  0.12155  0.05775  0.65429  1.0000 0.1287973176
H   H202      1.0  0.87845  0.94225  0.15429  1.0000 0.1287973176
H   H203      1.0  0.44225  0.62155  0.40429  1.0000 0.1287973176
H   H204      1.0  0.55775  0.37845  0.90429  1.0000 0.1287973176
H   H205      1.0  0.37845  0.55775  0.09571  1.0000 0.1287973176
H   H206      1.0  0.62155  0.44225  0.59571  1.0000 0.1287973176
H   H207      1.0  0.05775  0.12155  0.34571  1.0000 0.1287973176
H   H208      1.0  0.94225  0.87845  0.84571  1.0000 0.1287973176
H   H209      1.0  0.05115  0.14439  0.65510  1.0000 0.0985472765
H   H210      1.0  0.94885  0.85561  0.15510  1.0000 0.0985472765
H   H211      1.0  0.35561  0.55115  0.40510  1.0000 0.0985472765
H   H212      1.0  0.64439  0.44885  0.90510  1.0000 0.0985472765
H   H213      1.0  0.44885  0.64439  0.09490  1.0000 0.0985472765
H   H214      1.0  0.55115  0.35561  0.59490  1.0000 0.0985472765
H   H215      1.0  0.14439  0.05115  0.34490  1.0000 0.0985472765
H   H216      1.0  0.85561  0.94885  0.84490  1.0000 0.0985472765
H   H217      1.0  0.28283  0.36249  0.73470  1.0000 0.0591112745
H   H218      1.0  0.71717  0.63751  0.23470  1.0000 0.0591112745
H   H219      1.0  0.13751  0.78283  0.48470  1.0000 0.0591112745
H   H220      1.0  0.86249  0.21717  0.98470  1.0000 0.0591112745
H   H221      1.0  0.21717  0.86249  0.01530  1.0000 0.0591112745
H   H222      1.0  0.78283  0.13751  0.51530  1.0000 0.0591112745
H   H223      1.0  0.36249  0.28283  0.26530  1.0000 0.0591112745
H   H224      1.0  0.63751  0.71717  0.76530  1.0000 0.0591112745
H   H225      1.0  0.35617  0.40577  0.70758  1.0000 0.0591112745
H   H226      1.0  0.64383  0.59423  0.20758  1.0000 0.0591112745
H   H227      1.0  0.09423  0.85617  0.45758  1.0000 0.0591112745
H   H228      1.0  0.90577  0.14383  0.95758  1.0000 0.0591112745
H   H229      1.0  0.14383  0.90577  0.04242  1.0000 0.0591112745
H   H230      1.0  0.85617  0.09423  0.54242  1.0000 0.0591112745
H   H231      1.0  0.40577  0.35617  0.29242  1.0000 0.0591112745
H   H232      1.0  0.59423  0.64383  0.79242  1.0000 0.0591112745
H   H233      1.0  0.33958  0.27466  0.67404  1.0000 0.0822706182
H   H234      1.0  0.66042  0.72534  0.17404  1.0000 0.0822706182
H   H235      1.0  0.22534  0.83958  0.42404  1.0000 0.0822706182
H   H236      1.0  0.77466  0.16042  0.92404  1.0000 0.0822706182
H   H237      1.0  0.16042  0.77466  0.07596  1.0000 0.0822706182
H   H238      1.0  0.83958  0.22534  0.57596  1.0000 0.0822706182
H   H239      1.0  0.27466  0.33958  0.32596  1.0000 0.0822706182
H   H240      1.0  0.72534  0.66042  0.82596  1.0000 0.0822706182
H   H241      1.0  0.26820  0.23316  0.70137  1.0000 0.0919814879
H   H242      1.0  0.73180  0.76684  0.20137  1.0000 0.0919814879
H   H243      1.0  0.26684  0.76820  0.45137  1.0000 0.0919814879
H   H244      1.0  0.73316  0.23180  0.95137  1.0000 0.0919814879
H   H245      1.0  0.23180  0.73316  0.04863  1.0000 0.0919814879
H   H246      1.0  0.76820  0.26684  0.54863  1.0000 0.0919814879
H   H247      1.0  0.23316  0.26820  0.29863  1.0000 0.0919814879
H   H248      1.0  0.76684  0.73180  0.79863  1.0000 0.0919814879
H   H249      1.0  0.45723  0.27320  0.71178  1.0000 0.108994175
H   H250      1.0  0.54277  0.72680  0.21178  1.0000 0.108994175
H   H251      1.0  0.22680  0.95723  0.46178  1.0000 0.108994175
H   H252      1.0  0.77320  0.04277  0.96178  1.0000 0.108994175
H   H253      1.0  0.04277  0.77320  0.03822  1.0000 0.108994175
H   H254      1.0  0.95723  0.22680  0.53822  1.0000 0.108994175
H   H255      1.0  0.27320  0.45723  0.28822  1.0000 0.108994175
H   H256      1.0  0.72680  0.54277  0.78822  1.0000 0.108994175
H   H257      1.0  0.40799  0.17212  0.71464  1.0000 0.108994175
H   H258      1.0  0.59201  0.82788  0.21464  1.0000 0.108994175
H   H259      1.0  0.32788  0.90799  0.46464  1.0000 0.108994175
H   H260      1.0  0.67212  0.09201  0.96464  1.0000 0.108994175
H   H261      1.0  0.09201  0.67212  0.03536  1.0000 0.108994175
H   H262      1.0  0.90799  0.32788  0.53536  1.0000 0.108994175
H   H263      1.0  0.17212  0.40799  0.28536  1.0000 0.108994175
H   H264      1.0  0.82788  0.59201  0.78536  1.0000 0.108994175
H   H265      1.0  0.38757  0.25197  0.74313  1.0000 0.0985472765
H   H266      1.0  0.61243  0.74803  0.24313  1.0000 0.0985472765
H   H267      1.0  0.24803  0.88757  0.49313  1.0000 0.0985472765
H   H268      1.0  0.75197  0.11243  0.99313  1.0000 0.0985472765
H   H269      1.0  0.11243  0.75197  0.00687  1.0000 0.0985472765
H   H270      1.0  0.88757  0.24803  0.50687  1.0000 0.0985472765
H   H271      1.0  0.25197  0.38757  0.25687  1.0000 0.0985472765
H   H272      1.0  0.74803  0.61243  0.75687  1.0000 0.0985472765
H   H273      1.0  0.17652  0.94117  0.81357  1.0000 0.0919814879
H   H274      1.0  0.82348  0.05883  0.31357  1.0000 0.0919814879
H   H275      1.0  0.55883  0.67652  0.56357  1.0000 0.0919814879
H   H276      1.0  0.44117  0.32348  0.06357  1.0000 0.0919814879
H   H277      1.0  0.32348  0.44117  0.93643  1.0000 0.0919814879
H   H278      1.0  0.67652  0.55883  0.43643  1.0000 0.0919814879
H   H279      1.0  0.94117  0.17652  0.18643  1.0000 0.0919814879
H   H280      1.0  0.05883  0.82348  0.68643  1.0000 0.0919814879
H   H281      1.0  0.14429  0.09108  0.83040  1.0000 0.108994175
H   H282      1.0  0.85571  0.90892  0.33040  1.0000 0.108994175
H   H283      1.0  0.40892  0.64429  0.58040  1.0000 0.108994175
H   H284      1.0  0.59108  0.35571  0.08040  1.0000 0.108994175
H   H285      1.0  0.35571  0.59108  0.91960  1.0000 0.108994175
H   H286      1.0  0.64429  0.40892  0.41960  1.0000 0.108994175
H   H287      1.0  0.09108  0.14429  0.16960  1.0000 0.108994175
H   H288      1.0  0.90892  0.85571  0.66960  1.0000 0.108994175
H   H289      1.0  0.99937  0.14956  0.81923  1.0000 0.0985472765
H   H290      1.0  0.00063  0.85044  0.31923  1.0000 0.0985472765
H   H291      1.0  0.35044  0.49937  0.56923  1.0000 0.0985472765
H   H292      1.0  0.64956  0.50063  0.06923  1.0000 0.0985472765
H   H293      1.0  0.50063  0.64956  0.93077  1.0000 0.0985472765
H   H294      1.0  0.49937  0.35044  0.43077  1.0000 0.0985472765
H   H295      1.0  0.14956  0.99937  0.18077  1.0000 0.0985472765
H   H296      1.0  0.85044  0.00063  0.68077  1.0000 0.0985472765
H   H297      1.0  0.85628  0.13005  0.79424  1.0000 0.108994175
H   H298      1.0  0.14372  0.86995  0.29424  1.0000 0.108994175
H   H299      1.0  0.36995  0.35628  0.54424  1.0000 0.108994175
H   H300      1.0  0.63005  0.64372  0.04424  1.0000 0.108994175
H   H301      1.0  0.64372  0.63005  0.95576  1.0000 0.108994175
H   H302      1.0  0.35628  0.36995  0.45576  1.0000 0.108994175
H   H303      1.0  0.13005  0.85628  0.20576  1.0000 0.108994175
H   H304      1.0  0.86995  0.14372  0.70576  1.0000 0.108994175
H   H305      1.0  0.75476  0.03700  0.76563  1.0000 0.108994175
H   H306      1.0  0.24524  0.96300  0.26563  1.0000 0.108994175
H   H307      1.0  0.46300  0.25476  0.51563  1.0000 0.108994175
H   H308      1.0  0.53700  0.74524  0.01563  1.0000 0.108994175
H   H309      1.0  0.74524  0.53700  0.98437  1.0000 0.108994175
H   H310      1.0  0.25476  0.46300  0.48437  1.0000 0.108994175
H   H311      1.0  0.03700  0.75476  0.23437  1.0000 0.108994175
H   H312      1.0  0.96300  0.24524  0.73437  1.0000 0.108994175
H   H313      1.0  0.72496  0.89891  0.73948  1.0000 0.0985472765
H   H314      1.0  0.27504  0.10109  0.23948  1.0000 0.0985472765
H   H315      1.0  0.60109  0.22496  0.48948  1.0000 0.0985472765
H   H316      1.0  0.39891  0.77504  0.98948  1.0000 0.0985472765
H   H317      1.0  0.77504  0.39891  0.01052  1.0000 0.0985472765
H   H318      1.0  0.22496  0.60109  0.51052  1.0000 0.0985472765
H   H319      1.0  0.89891  0.72496  0.26052  1.0000 0.0985472765
H   H320      1.0  0.10109  0.27504  0.76052  1.0000 0.0985472765
H   H321      1.0  0.77459  0.75271  0.72393  1.0000 0.108994175
H   H322      1.0  0.22541  0.24729  0.22393  1.0000 0.108994175
H   H323      1.0  0.74729  0.27459  0.47393  1.0000 0.108994175
H   H324      1.0  0.25271  0.72541  0.97393  1.0000 0.108994175
H   H325      1.0  0.72541  0.25271  0.02607  1.0000 0.108994175
H   H326      1.0  0.27459  0.74729  0.52607  1.0000 0.108994175
H   H327      1.0  0.75271  0.77459  0.27607  1.0000 0.108994175
H   H328      1.0  0.24729  0.22541  0.77607  1.0000 0.108994175
H   H329      1.0  0.92512  0.71050  0.73754  1.0000 0.0919814879
H   H330      1.0  0.07488  0.28950  0.23754  1.0000 0.0919814879
H   H331      1.0  0.78950  0.42512  0.48754  1.0000 0.0919814879
H   H332      1.0  0.21050  0.57488  0.98754  1.0000 0.0919814879
H   H333      1.0  0.57488  0.21050  0.01246  1.0000 0.0919814879
H   H334      1.0  0.42512  0.78950  0.51246  1.0000 0.0919814879
H   H335      1.0  0.71050  0.92512  0.26246  1.0000 0.0919814879
H   H336      1.0  0.28950  0.07488  0.76246  1.0000 0.0919814879
C   C1        1.0  0.27341  0.51762  0.62319  1.0000 -0.0034646603
C   C2        1.0  0.72659  0.48238  0.12319  1.0000 -0.0034646603
C   C3        1.0  0.98238  0.77341  0.37319  1.0000 -0.0034646603
C   C4        1.0  0.01762  0.22659  0.87319  1.0000 -0.0034646603
C   C5        1.0  0.22659  0.01762  0.12681  1.0000 -0.0034646603
C   C6        1.0  0.77341  0.98238  0.62681  1.0000 -0.0034646603
C   C7        1.0  0.51762  0.27341  0.37681  1.0000 -0.0034646603
C   C8        1.0  0.48238  0.72659  0.87681  1.0000 -0.0034646603
C   C9        1.0  0.32165  0.50928  0.65342  1.0000 -0.2180242405
C   C10       1.0  0.67835  0.49072  0.15342  1.0000 -0.2180242405
C   C11       1.0  0.99072  0.82165  0.40342  1.0000 -0.2180242405
C   C12       1.0  0.00928  0.17835  0.90342  1.0000 -0.2180242405
C   C13       1.0  0.17835  0.00928  0.09658  1.0000 -0.2180242405
C   C14       1.0  0.82165  0.99072  0.59658  1.0000 -0.2180242405
C   C15       1.0  0.50928  0.32165  0.34658  1.0000 -0.2180242405
C   C16       1.0  0.49072  0.67835  0.84658  1.0000 -0.2180242405
C   C17       1.0  0.26390  0.53567  0.67964  1.0000 0.0205706683
C   C18       1.0  0.73610  0.46433  0.17964  1.0000 0.0205706683
C   C19       1.0  0.96433  0.76390  0.42964  1.0000 0.0205706683
C   C20       1.0  0.03567  0.23610  0.92964  1.0000 0.0205706683
C   C21       1.0  0.23610  0.03567  0.07036  1.0000 0.0205706683
C   C22       1.0  0.76390  0.96433  0.57036  1.0000 0.0205706683
C   C23       1.0  0.53567  0.26390  0.32036  1.0000 0.0205706683
C   C24       1.0  0.46433  0.73610  0.82036  1.0000 0.0205706683
C   C25       1.0  0.25092  0.62085  0.68582  1.0000 -0.1490455341
C   C26       1.0  0.74908  0.37915  0.18582  1.0000 -0.1490455341
C   C27       1.0  0.87915  0.75092  0.43582  1.0000 -0.1490455341
C   C28       1.0  0.12085  0.24908  0.93582  1.0000 -0.1490455341
C   C29       1.0  0.24908  0.12085  0.06418  1.0000 -0.1490455341
C   C30       1.0  0.75092  0.87915  0.56418  1.0000 -0.1490455341
C   C31       1.0  0.62085  0.25092  0.31418  1.0000 -0.1490455341
C   C32       1.0  0.37915  0.74908  0.81418  1.0000 -0.1490455341
C   C33       1.0  0.18954  0.64523  0.70742  1.0000 -0.0323719649
C   C34       1.0  0.81046  0.35477  0.20742  1.0000 -0.0323719649
C   C35       1.0  0.85477  0.68954  0.45742  1.0000 -0.0323719649
C   C36       1.0  0.14523  0.31046  0.95742  1.0000 -0.0323719649
C   C37       1.0  0.31046  0.14523  0.04258  1.0000 -0.0323719649
C   C38       1.0  0.68954  0.85477  0.54258  1.0000 -0.0323719649
C   C39       1.0  0.64523  0.18954  0.29258  1.0000 -0.0323719649
C   C40       1.0  0.35477  0.81046  0.79258  1.0000 -0.0323719649
C   C41       1.0  0.14031  0.58591  0.72309  1.0000 -0.1403955862
C   C42       1.0  0.85969  0.41409  0.22309  1.0000 -0.1403955862
C   C43       1.0  0.91409  0.64031  0.47309  1.0000 -0.1403955862
C   C44       1.0  0.08591  0.35969  0.97309  1.0000 -0.1403955862
C   C45       1.0  0.35969  0.08591  0.02691  1.0000 -0.1403955862
C   C46       1.0  0.64031  0.91409  0.52691  1.0000 -0.1403955862
C   C47       1.0  0.58591  0.14031  0.27691  1.0000 -0.1403955862
C   C48       1.0  0.41409  0.85969  0.77691  1.0000 -0.1403955862
C   C49       1.0  0.15347  0.49991  0.71797  1.0000 0.0380975981
C   C50       1.0  0.84653  0.50009  0.21797  1.0000 0.0380975981
C   C51       1.0  0.00009  0.65347  0.46797  1.0000 0.0380975981
C   C52       1.0  0.99991  0.34653  0.96797  1.0000 0.0380975981
C   C53       1.0  0.34653  0.99991  0.03203  1.0000 0.0380975981
C   C54       1.0  0.65347  0.00009  0.53203  1.0000 0.0380975981
C   C55       1.0  0.49991  0.15347  0.28203  1.0000 0.0380975981
C   C56       1.0  0.50009  0.84653  0.78203  1.0000 0.0380975981
C   C57       1.0  0.09978  0.43642  0.73501  1.0000 -0.2090205212
C   C58       1.0  0.90022  0.56358  0.23501  1.0000 -0.2090205212
C   C59       1.0  0.06358  0.59978  0.48501  1.0000 -0.2090205212
C   C60       1.0  0.93642  0.40022  0.98501  1.0000 -0.2090205212
C   C61       1.0  0.40022  0.93642  0.01499  1.0000 -0.2090205212
C   C62       1.0  0.59978  0.06358  0.51499  1.0000 -0.2090205212
C   C63       1.0  0.43642  0.09978  0.26499  1.0000 -0.2090205212
C   C64       1.0  0.56358  0.90022  0.76499  1.0000 -0.2090205212
C   C65       1.0  0.01343  0.42796  0.72033  1.0000 0.0205706683
C   C66       1.0  0.98657  0.57204  0.22033  1.0000 0.0205706683
C   C67       1.0  0.07204  0.51343  0.47033  1.0000 0.0205706683
C   C68       1.0  0.92796  0.48657  0.97033  1.0000 0.0205706683
C   C69       1.0  0.48657  0.92796  0.02967  1.0000 0.0205706683
C   C70       1.0  0.51343  0.07204  0.52967  1.0000 0.0205706683
C   C71       1.0  0.42796  0.01343  0.27967  1.0000 0.0205706683
C   C72       1.0  0.57204  0.98657  0.77967  1.0000 0.0205706683
C   C73       1.0  0.94436  0.47474  0.73117  1.0000 -0.1403955862
C   C74       1.0  0.05564  0.52526  0.23117  1.0000 -0.1403955862
C   C75       1.0  0.02526  0.44436  0.48117  1.0000 -0.1403955862
C   C76       1.0  0.97474  0.55564  0.98117  1.0000 -0.1403955862
C   C77       1.0  0.55564  0.97474  0.01883  1.0000 -0.1403955862
C   C78       1.0  0.44436  0.02526  0.51883  1.0000 -0.1403955862
C   C79       1.0  0.47474  0.94436  0.26883  1.0000 -0.1403955862
C   C80       1.0  0.52526  0.05564  0.76883  1.0000 -0.1403955862
C   C81       1.0  0.86448  0.46686  0.71747  1.0000 -0.1185184887
C   C82       1.0  0.13552  0.53314  0.21747  1.0000 -0.1185184887
C   C83       1.0  0.03314  0.36448  0.46747  1.0000 -0.1185184887
C   C84       1.0  0.96686  0.63552  0.96747  1.0000 -0.1185184887
C   C85       1.0  0.63552  0.96686  0.03253  1.0000 -0.1185184887
C   C86       1.0  0.36448  0.03314  0.53253  1.0000 -0.1185184887
C   C87       1.0  0.46686  0.86448  0.28253  1.0000 -0.1185184887
C   C88       1.0  0.53314  0.13552  0.78253  1.0000 -0.1185184887
C   C89       1.0  0.85405  0.41151  0.69237  1.0000 -0.1403955862
C   C90       1.0  0.14595  0.58849  0.19237  1.0000 -0.1403955862
C   C91       1.0  0.08849  0.35405  0.44237  1.0000 -0.1403955862
C   C92       1.0  0.91151  0.64595  0.94237  1.0000 -0.1403955862
C   C93       1.0  0.64595  0.91151  0.05763  1.0000 -0.1403955862
C   C94       1.0  0.35405  0.08849  0.55763  1.0000 -0.1403955862
C   C95       1.0  0.41151  0.85405  0.30763  1.0000 -0.1403955862
C   C96       1.0  0.58849  0.14595  0.80763  1.0000 -0.1403955862
C   C97       1.0  0.92134  0.36482  0.68031  1.0000 -0.0071659459
C   C98       1.0  0.07866  0.63518  0.18031  1.0000 -0.0071659459
C   C99       1.0  0.13518  0.42134  0.43031  1.0000 -0.0071659459
C   C100      1.0  0.86482  0.57866  0.93031  1.0000 -0.0071659459
C   C101      1.0  0.57866  0.86482  0.06969  1.0000 -0.0071659459
C   C102      1.0  0.42134  0.13518  0.56969  1.0000 -0.0071659459
C   C103      1.0  0.36482  0.92134  0.31969  1.0000 -0.0071659459
C   C104      1.0  0.63518  0.07866  0.81969  1.0000 -0.0071659459
C   C105      1.0  0.91043  0.30767  0.65244  1.0000 -0.2180242405
C   C106      1.0  0.08957  0.69233  0.15244  1.0000 -0.2180242405
C   C107      1.0  0.19233  0.41043  0.40244  1.0000 -0.2180242405
C   C108      1.0  0.80767  0.58957  0.90244  1.0000 -0.2180242405
C   C109      1.0  0.58957  0.80767  0.09756  1.0000 -0.2180242405
C   C110      1.0  0.41043  0.19233  0.59756  1.0000 -0.2180242405
C   C111      1.0  0.30767  0.91043  0.34756  1.0000 -0.2180242405
C   C112      1.0  0.69233  0.08957  0.84756  1.0000 -0.2180242405
C   C113      1.0  0.93493  0.35302  0.62279  1.0000 0.0205706683
C   C114      1.0  0.06507  0.64698  0.12279  1.0000 0.0205706683
C   C115      1.0  0.14698  0.43493  0.37279  1.0000 0.0205706683
C   C116      1.0  0.85302  0.56507  0.87279  1.0000 0.0205706683
C   C117      1.0  0.56507  0.85302  0.12721  1.0000 0.0205706683
C   C118      1.0  0.43493  0.14698  0.62721  1.0000 0.0205706683
C   C119      1.0  0.35302  0.93493  0.37721  1.0000 0.0205706683
C   C120      1.0  0.64698  0.06507  0.87721  1.0000 0.0205706683
C   C121      1.0  0.87931  0.41059  0.60910  1.0000 -0.1403955862
C   C122      1.0  0.12069  0.58941  0.10910  1.0000 -0.1403955862
C   C123      1.0  0.08941  0.37931  0.35910  1.0000 -0.1403955862
C   C124      1.0  0.91059  0.62069  0.85910  1.0000 -0.1403955862
C   C125      1.0  0.62069  0.91059  0.14090  1.0000 -0.1403955862
C   C126      1.0  0.37931  0.08941  0.64090  1.0000 -0.1403955862
C   C127      1.0  0.41059  0.87931  0.39090  1.0000 -0.1403955862
C   C128      1.0  0.58941  0.12069  0.89090  1.0000 -0.1403955862
C   C129      1.0  0.90305  0.45534  0.58240  1.0000 -0.0323719649
C   C130      1.0  0.09695  0.54466  0.08240  1.0000 -0.0323719649
C   C131      1.0  0.04466  0.40305  0.33240  1.0000 -0.0323719649
C   C132      1.0  0.95534  0.59695  0.83240  1.0000 -0.0323719649
C   C133      1.0  0.59695  0.95534  0.16760  1.0000 -0.0323719649
C   C134      1.0  0.40305  0.04466  0.66760  1.0000 -0.0323719649
C   C135      1.0  0.45534  0.90305  0.41760  1.0000 -0.0323719649
C   C136      1.0  0.54466  0.09695  0.91760  1.0000 -0.0323719649
C   C137      1.0  0.98445  0.44635  0.57009  1.0000 -0.1490455341
C   C138      1.0  0.01555  0.55365  0.07009  1.0000 -0.1490455341
C   C139      1.0  0.05365  0.48445  0.32009  1.0000 -0.1490455341
C   C140      1.0  0.94635  0.51555  0.82009  1.0000 -0.1490455341
C   C141      1.0  0.51555  0.94635  0.17991  1.0000 -0.1490455341
C   C142      1.0  0.48445  0.05365  0.67991  1.0000 -0.1490455341
C   C143      1.0  0.44635  0.98445  0.42991  1.0000 -0.1490455341
C   C144      1.0  0.55365  0.01555  0.92991  1.0000 -0.1490455341
C   C145      1.0  0.04200  0.38964  0.58290  1.0000 0.0314876608
C   C146      1.0  0.95800  0.61036  0.08290  1.0000 0.0314876608
C   C147      1.0  0.11036  0.54200  0.33290  1.0000 0.0314876608
C   C148      1.0  0.88964  0.45800  0.83290  1.0000 0.0314876608
C   C149      1.0  0.45800  0.88964  0.16710  1.0000 0.0314876608
C   C150      1.0  0.54200  0.11036  0.66710  1.0000 0.0314876608
C   C151      1.0  0.38964  0.04200  0.41710  1.0000 0.0314876608
C   C152      1.0  0.61036  0.95800  0.91710  1.0000 0.0314876608
C   C153      1.0  0.13101  0.38428  0.57019  1.0000 -0.2090205212
C   C154      1.0  0.86899  0.61572  0.07019  1.0000 -0.2090205212
C   C155      1.0  0.11572  0.63101  0.32019  1.0000 -0.2090205212
C   C156      1.0  0.88428  0.36899  0.82019  1.0000 -0.2090205212
C   C157      1.0  0.36899  0.88428  0.17981  1.0000 -0.2090205212
C   C158      1.0  0.63101  0.11572  0.67981  1.0000 -0.2090205212
C   C159      1.0  0.38428  0.13101  0.42981  1.0000 -0.2090205212
C   C160      1.0  0.61572  0.86899  0.92981  1.0000 -0.2090205212
C   C161      1.0  0.18259  0.45720  0.58260  1.0000 0.0205706683
C   C162      1.0  0.81741  0.54280  0.08260  1.0000 0.0205706683
C   C163      1.0  0.04280  0.68259  0.33260  1.0000 0.0205706683
C   C164      1.0  0.95720  0.31741  0.83260  1.0000 0.0205706683
C   C165      1.0  0.31741  0.95720  0.16740  1.0000 0.0205706683
C   C166      1.0  0.68259  0.04280  0.66740  1.0000 0.0205706683
C   C167      1.0  0.45720  0.18259  0.41740  1.0000 0.0205706683
C   C168      1.0  0.54280  0.81741  0.91740  1.0000 0.0205706683
C   C169      1.0  0.17917  0.53667  0.56839  1.0000 -0.1403955862
C   C170      1.0  0.82083  0.46333  0.06839  1.0000 -0.1403955862
C   C171      1.0  0.96333  0.67917  0.31839  1.0000 -0.1403955862
C   C172      1.0  0.03667  0.32083  0.81839  1.0000 -0.1403955862
C   C173      1.0  0.32083  0.03667  0.18161  1.0000 -0.1403955862
C   C174      1.0  0.67917  0.96333  0.68161  1.0000 -0.1403955862
C   C175      1.0  0.53667  0.17917  0.43161  1.0000 -0.1403955862
C   C176      1.0  0.46333  0.82083  0.93161  1.0000 -0.1403955862
C   C177      1.0  0.21990  0.60677  0.58134  1.0000 -0.1185184887
C   C178      1.0  0.78010  0.39323  0.08134  1.0000 -0.1185184887
C   C179      1.0  0.89323  0.71990  0.33134  1.0000 -0.1185184887
C   C180      1.0  0.10677  0.28010  0.83134  1.0000 -0.1185184887
C   C181      1.0  0.28010  0.10677  0.16866  1.0000 -0.1185184887
C   C182      1.0  0.71990  0.89323  0.66866  1.0000 -0.1185184887
C   C183      1.0  0.60677  0.21990  0.41866  1.0000 -0.1185184887
C   C184      1.0  0.39323  0.78010  0.91866  1.0000 -0.1185184887
C   C185      1.0  0.26653  0.59611  0.60859  1.0000 -0.1403955862
C   C186      1.0  0.73347  0.40389  0.10859  1.0000 -0.1403955862
C   C187      1.0  0.90389  0.76653  0.35859  1.0000 -0.1403955862
C   C188      1.0  0.09611  0.23347  0.85859  1.0000 -0.1403955862
C   C189      1.0  0.23347  0.09611  0.14141  1.0000 -0.1403955862
C   C190      1.0  0.76653  0.90389  0.64141  1.0000 -0.1403955862
C   C191      1.0  0.59611  0.26653  0.39141  1.0000 -0.1403955862
C   C192      1.0  0.40389  0.73347  0.89141  1.0000 -0.1403955862
C   C193      1.0  0.22961  0.44829  0.61048  1.0000 0.2055885739
C   C194      1.0  0.77039  0.55171  0.11048  1.0000 0.2055885739
C   C195      1.0  0.05171  0.72961  0.36048  1.0000 0.2055885739
C   C196      1.0  0.94829  0.27039  0.86048  1.0000 0.2055885739
C   C197      1.0  0.27039  0.94829  0.13952  1.0000 0.2055885739
C   C198      1.0  0.72961  0.05171  0.63952  1.0000 0.2055885739
C   C199      1.0  0.44829  0.22961  0.38952  1.0000 0.2055885739
C   C200      1.0  0.55171  0.77039  0.88952  1.0000 0.2055885739
C   C201      1.0  0.01404  0.34171  0.60852  1.0000 0.1287973176
C   C202      1.0  0.98596  0.65829  0.10852  1.0000 0.1287973176
C   C203      1.0  0.15829  0.51404  0.35852  1.0000 0.1287973176
C   C204      1.0  0.84171  0.48596  0.85852  1.0000 0.1287973176
C   C205      1.0  0.48596  0.84171  0.14148  1.0000 0.1287973176
C   C206      1.0  0.51404  0.15829  0.64148  1.0000 0.1287973176
C   C207      1.0  0.34171  0.01404  0.39148  1.0000 0.1287973176
C   C208      1.0  0.65829  0.98596  0.89148  1.0000 0.1287973176
C   C209      1.0  0.00153  0.37393  0.69426  1.0000 0.2162388194
C   C210      1.0  0.99847  0.62607  0.19426  1.0000 0.2162388194
C   C211      1.0  0.12607  0.50153  0.44426  1.0000 0.2162388194
C   C212      1.0  0.87393  0.49847  0.94426  1.0000 0.2162388194
C   C213      1.0  0.49847  0.87393  0.05574  1.0000 0.2162388194
C   C214      1.0  0.50153  0.12607  0.55574  1.0000 0.2162388194
C   C215      1.0  0.37393  0.00153  0.30574  1.0000 0.2162388194
C   C216      1.0  0.62607  0.99847  0.80574  1.0000 0.2162388194
C   C217      1.0  0.21623  0.47668  0.69654  1.0000 0.1399551726
C   C218      1.0  0.78377  0.52332  0.19654  1.0000 0.1399551726
C   C219      1.0  0.02332  0.71623  0.44654  1.0000 0.1399551726
C   C220      1.0  0.97668  0.28377  0.94654  1.0000 0.1399551726
C   C221      1.0  0.28377  0.97668  0.05346  1.0000 0.1399551726
C   C222      1.0  0.71623  0.02332  0.55346  1.0000 0.1399551726
C   C223      1.0  0.47668  0.21623  0.30346  1.0000 0.1399551726
C   C224      1.0  0.52332  0.78377  0.80346  1.0000 0.1399551726
C   C225      1.0  0.17806  0.73674  0.71381  1.0000 0.574051157
C   C226      1.0  0.82194  0.26326  0.21381  1.0000 0.574051157
C   C227      1.0  0.76326  0.67806  0.46381  1.0000 0.574051157
C   C228      1.0  0.23674  0.32194  0.96381  1.0000 0.574051157
C   C229      1.0  0.32194  0.23674  0.03619  1.0000 0.574051157
C   C230      1.0  0.67806  0.76326  0.53619  1.0000 0.574051157
C   C231      1.0  0.73674  0.17806  0.28619  1.0000 0.574051157
C   C232      1.0  0.26326  0.82194  0.78619  1.0000 0.574051157
C   C233      1.0  0.83940  0.50648  0.56539  1.0000 0.5509999771
C   C234      1.0  0.16060  0.49352  0.06539  1.0000 0.5509999771
C   C235      1.0  0.99352  0.33940  0.31539  1.0000 0.5509999771
C   C236      1.0  0.00648  0.66060  0.81539  1.0000 0.5509999771
C   C237      1.0  0.66060  0.00648  0.18461  1.0000 0.5509999771
C   C238      1.0  0.33940  0.99352  0.68461  1.0000 0.5509999771
C   C239      1.0  0.50648  0.83940  0.43461  1.0000 0.5509999771
C   C240      1.0  0.49352  0.16060  0.93461  1.0000 0.5509999771
C   C241      1.0  0.07052  0.20383  0.60400  1.0000 0.0486523593
C   C242      1.0  0.92948  0.79617  0.10400  1.0000 0.0486523593
C   C243      1.0  0.29617  0.57052  0.35400  1.0000 0.0486523593
C   C244      1.0  0.70383  0.42948  0.85400  1.0000 0.0486523593
C   C245      1.0  0.42948  0.70383  0.14600  1.0000 0.0486523593
C   C246      1.0  0.57052  0.29617  0.64600  1.0000 0.0486523593
C   C247      1.0  0.20383  0.07052  0.39600  1.0000 0.0486523593
C   C248      1.0  0.79617  0.92948  0.89600  1.0000 0.0486523593
C   C249      1.0  0.14269  0.15430  0.61756  1.0000 -0.1328907159
C   C250      1.0  0.85731  0.84570  0.11756  1.0000 -0.1328907159
C   C251      1.0  0.34570  0.64269  0.36756  1.0000 -0.1328907159
C   C252      1.0  0.65430  0.35731  0.86756  1.0000 -0.1328907159
C   C253      1.0  0.35731  0.65430  0.13244  1.0000 -0.1328907159
C   C254      1.0  0.64269  0.34570  0.63244  1.0000 -0.1328907159
C   C255      1.0  0.15430  0.14269  0.38244  1.0000 -0.1328907159
C   C256      1.0  0.84570  0.85731  0.88244  1.0000 -0.1328907159
C   C257      1.0  0.11765  0.12632  0.65062  1.0000 -0.3406291415
C   C258      1.0  0.88235  0.87368  0.15062  1.0000 -0.3406291415
C   C259      1.0  0.37368  0.61765  0.40062  1.0000 -0.3406291415
C   C260      1.0  0.62632  0.38235  0.90062  1.0000 -0.3406291415
C   C261      1.0  0.38235  0.62632  0.09938  1.0000 -0.3406291415
C   C262      1.0  0.61765  0.37368  0.59938  1.0000 -0.3406291415
C   C263      1.0  0.12632  0.11765  0.34938  1.0000 -0.3406291415
C   C264      1.0  0.87368  0.88235  0.84938  1.0000 -0.3406291415
C   C265      1.0  0.30175  0.36195  0.70979  1.0000 0.0380975981
C   C266      1.0  0.69825  0.63805  0.20979  1.0000 0.0380975981
C   C267      1.0  0.13805  0.80175  0.45979  1.0000 0.0380975981
C   C268      1.0  0.86195  0.19825  0.95979  1.0000 0.0380975981
C   C269      1.0  0.19825  0.86195  0.04021  1.0000 0.0380975981
C   C270      1.0  0.80175  0.13805  0.54021  1.0000 0.0380975981
C   C271      1.0  0.36195  0.30175  0.29021  1.0000 0.0380975981
C   C272      1.0  0.63805  0.69825  0.79021  1.0000 0.0380975981
C   C273      1.0  0.32425  0.27427  0.69922  1.0000 -0.1328907159
C   C274      1.0  0.67575  0.72573  0.19922  1.0000 -0.1328907159
C   C275      1.0  0.22573  0.82425  0.44922  1.0000 -0.1328907159
C   C276      1.0  0.77427  0.17575  0.94922  1.0000 -0.1328907159
C   C277      1.0  0.17575  0.77427  0.05078  1.0000 -0.1328907159
C   C278      1.0  0.82425  0.22573  0.55078  1.0000 -0.1328907159
C   C279      1.0  0.27427  0.32425  0.30078  1.0000 -0.1328907159
C   C280      1.0  0.72573  0.67575  0.80078  1.0000 -0.1328907159
C   C281      1.0  0.39797  0.24048  0.71801  1.0000 -0.3406291415
C   C282      1.0  0.60203  0.75952  0.21801  1.0000 -0.3406291415
C   C283      1.0  0.25952  0.89797  0.46801  1.0000 -0.3406291415
C   C284      1.0  0.74048  0.10203  0.96801  1.0000 -0.3406291415
C   C285      1.0  0.10203  0.74048  0.03199  1.0000 -0.3406291415
C   C286      1.0  0.89797  0.25952  0.53199  1.0000 -0.3406291415
C   C287      1.0  0.24048  0.39797  0.28199  1.0000 -0.3406291415
C   C288      1.0  0.75952  0.60203  0.78199  1.0000 -0.3406291415
C   C289      1.0  0.11479  0.97027  0.80924  1.0000 0.1183906983
C   C290      1.0  0.88521  0.02973  0.30924  1.0000 0.1183906983
C   C291      1.0  0.52973  0.61479  0.55924  1.0000 0.1183906983
C   C292      1.0  0.47027  0.38521  0.05924  1.0000 0.1183906983
C   C293      1.0  0.38521  0.47027  0.94076  1.0000 0.1183906983
C   C294      1.0  0.61479  0.52973  0.44076  1.0000 0.1183906983
C   C295      1.0  0.97027  0.11479  0.19076  1.0000 0.1183906983
C   C296      1.0  0.02973  0.88521  0.69076  1.0000 0.1183906983
C   C297      1.0  0.09595  0.05334  0.81842  1.0000 -0.1328907159
C   C298      1.0  0.90405  0.94666  0.31842  1.0000 -0.1328907159
C   C299      1.0  0.44666  0.59595  0.56842  1.0000 -0.1328907159
C   C300      1.0  0.55334  0.40405  0.06842  1.0000 -0.1328907159
C   C301      1.0  0.40405  0.55334  0.93158  1.0000 -0.1328907159
C   C302      1.0  0.59595  0.44666  0.43158  1.0000 -0.1328907159
C   C303      1.0  0.05334  0.09595  0.18158  1.0000 -0.1328907159
C   C304      1.0  0.94666  0.90405  0.68158  1.0000 -0.1328907159
C   C305      1.0  0.01634  0.08581  0.81185  1.0000 -0.0749725175
C   C306      1.0  0.98366  0.91419  0.31185  1.0000 -0.0749725175
C   C307      1.0  0.41419  0.51634  0.56185  1.0000 -0.0749725175
C   C308      1.0  0.58581  0.48366  0.06185  1.0000 -0.0749725175
C   C309      1.0  0.48366  0.58581  0.93815  1.0000 -0.0749725175
C   C310      1.0  0.51634  0.41419  0.43815  1.0000 -0.0749725175
C   C311      1.0  0.08581  0.01634  0.18815  1.0000 -0.0749725175
C   C312      1.0  0.91419  0.98366  0.68815  1.0000 -0.0749725175
C   C313      1.0  0.95648  0.03627  0.79545  1.0000 0.0380975981
C   C314      1.0  0.04352  0.96373  0.29545  1.0000 0.0380975981
C   C315      1.0  0.46373  0.45648  0.54545  1.0000 0.0380975981
C   C316      1.0  0.53627  0.54352  0.04545  1.0000 0.0380975981
C   C317      1.0  0.54352  0.53627  0.95455  1.0000 0.0380975981
C   C318      1.0  0.45648  0.46373  0.45455  1.0000 0.0380975981
C   C319      1.0  0.03627  0.95648  0.20455  1.0000 0.0380975981
C   C320      1.0  0.96373  0.04352  0.70455  1.0000 0.0380975981
C   C321      1.0  0.87368  0.06581  0.78744  1.0000 -0.1185184887
C   C322      1.0  0.12632  0.93419  0.28744  1.0000 -0.1185184887
C   C323      1.0  0.43419  0.37368  0.53744  1.0000 -0.1185184887
C   C324      1.0  0.56581  0.62632  0.03744  1.0000 -0.1185184887
C   C325      1.0  0.62632  0.56581  0.96256  1.0000 -0.1185184887
C   C326      1.0  0.37368  0.43419  0.46256  1.0000 -0.1185184887
C   C327      1.0  0.06581  0.87368  0.21256  1.0000 -0.1185184887
C   C328      1.0  0.93419  0.12632  0.71256  1.0000 -0.1185184887
C   C329      1.0  0.81825  0.01525  0.77152  1.0000 -0.1185184887
C   C330      1.0  0.18175  0.98475  0.27152  1.0000 -0.1185184887
C   C331      1.0  0.48475  0.31825  0.52152  1.0000 -0.1185184887
C   C332      1.0  0.51525  0.68175  0.02152  1.0000 -0.1185184887
C   C333      1.0  0.68175  0.51525  0.97848  1.0000 -0.1185184887
C   C334      1.0  0.31825  0.48475  0.47848  1.0000 -0.1185184887
C   C335      1.0  0.01525  0.81825  0.22848  1.0000 -0.1185184887
C   C336      1.0  0.98475  0.18175  0.72848  1.0000 -0.1185184887
C   C337      1.0  0.84206  0.93153  0.76223  1.0000 0.0486523593
C   C338      1.0  0.15794  0.06847  0.26223  1.0000 0.0486523593
C   C339      1.0  0.56847  0.34206  0.51223  1.0000 0.0486523593
C   C340      1.0  0.43153  0.65794  0.01223  1.0000 0.0486523593
C   C341      1.0  0.65794  0.43153  0.98777  1.0000 0.0486523593
C   C342      1.0  0.34206  0.56847  0.48777  1.0000 0.0486523593
C   C343      1.0  0.93153  0.84206  0.23777  1.0000 0.0486523593
C   C344      1.0  0.06847  0.15794  0.73777  1.0000 0.0486523593
C   C345      1.0  0.78778  0.87653  0.74567  1.0000 -0.0794240121
C   C346      1.0  0.21222  0.12347  0.24567  1.0000 -0.0794240121
C   C347      1.0  0.62347  0.28778  0.49567  1.0000 -0.0794240121
C   C348      1.0  0.37653  0.71222  0.99567  1.0000 -0.0794240121
C   C349      1.0  0.71222  0.37653  0.00433  1.0000 -0.0794240121
C   C350      1.0  0.28778  0.62347  0.50433  1.0000 -0.0794240121
C   C351      1.0  0.87653  0.78778  0.25433  1.0000 -0.0794240121
C   C352      1.0  0.12347  0.21222  0.75433  1.0000 -0.0794240121
C   C353      1.0  0.81538  0.79651  0.73693  1.0000 -0.1403955862
C   C354      1.0  0.18462  0.20349  0.23693  1.0000 -0.1403955862
C   C355      1.0  0.70349  0.31538  0.48693  1.0000 -0.1403955862
C   C356      1.0  0.29651  0.68462  0.98693  1.0000 -0.1403955862
C   C357      1.0  0.68462  0.29651  0.01307  1.0000 -0.1403955862
C   C358      1.0  0.31538  0.70349  0.51307  1.0000 -0.1403955862
C   C359      1.0  0.79651  0.81538  0.26307  1.0000 -0.1403955862
C   C360      1.0  0.20349  0.18462  0.76307  1.0000 -0.1403955862
C   C361      1.0  0.89833  0.77198  0.74455  1.0000 0.108994175
C   C362      1.0  0.10167  0.22802  0.24455  1.0000 0.108994175
C   C363      1.0  0.72802  0.39833  0.49455  1.0000 0.108994175
C   C364      1.0  0.27198  0.60167  0.99455  1.0000 0.108994175
C   C365      1.0  0.60167  0.27198  0.00545  1.0000 0.108994175
C   C366      1.0  0.39833  0.72802  0.50545  1.0000 0.108994175
C   C367      1.0  0.77198  0.89833  0.25545  1.0000 0.108994175
C   C368      1.0  0.22802  0.10167  0.75545  1.0000 0.108994175
C   C369      1.0  0.92383  0.90047  0.76949  1.0000 0.1287973176
C   C370      1.0  0.07617  0.09953  0.26949  1.0000 0.1287973176
C   C371      1.0  0.59953  0.42383  0.51949  1.0000 0.1287973176
C   C372      1.0  0.40047  0.57617  0.01949  1.0000 0.1287973176
C   C373      1.0  0.57617  0.40047  0.98051  1.0000 0.1287973176
C   C374      1.0  0.42383  0.59953  0.48051  1.0000 0.1287973176
C   C375      1.0  0.90047  0.92383  0.23051  1.0000 0.1287973176
C   C376      1.0  0.09953  0.07617  0.73051  1.0000 0.1287973176
C   C377      1.0  0.98179  0.95350  0.78664  1.0000 0.1287973176
C   C378      1.0  0.01821  0.04650  0.28664  1.0000 0.1287973176
C   C379      1.0  0.54650  0.48179  0.53664  1.0000 0.1287973176
C   C380      1.0  0.45350  0.51821  0.03664  1.0000 0.1287973176
C   C381      1.0  0.51821  0.45350  0.96336  1.0000 0.1287973176
C   C382      1.0  0.48179  0.54650  0.46336  1.0000 0.1287973176
C   C383      1.0  0.95350  0.98179  0.21336  1.0000 0.1287973176
C   C384      1.0  0.04650  0.01821  0.71336  1.0000 0.1287973176
N   N1        1.0  0.95048  0.82222  0.76059  1.0000 -0.2763197791
N   N2        1.0  0.04952  0.17778  0.26059  1.0000 -0.2763197791
N   N3        1.0  0.67778  0.45048  0.51059  1.0000 -0.2763197791
N   N4        1.0  0.32222  0.54952  0.01059  1.0000 -0.2763197791
N   N5        1.0  0.54952  0.32222  0.98941  1.0000 -0.2763197791
N   N6        1.0  0.45048  0.67778  0.48941  1.0000 -0.2763197791
N   N7        1.0  0.82222  0.95048  0.23941  1.0000 -0.2763197791
N   N8        1.0  0.17778  0.04952  0.73941  1.0000 -0.2763197791
N   N9        1.0  0.05927  0.92196  0.79395  1.0000 -0.2763197791
N   N10       1.0  0.94073  0.07804  0.29395  1.0000 -0.2763197791
N   N11       1.0  0.57804  0.55927  0.54395  1.0000 -0.2763197791
N   N12       1.0  0.42196  0.44073  0.04395  1.0000 -0.2763197791
N   N13       1.0  0.44073  0.42196  0.95605  1.0000 -0.2763197791
N   N14       1.0  0.55927  0.57804  0.45605  1.0000 -0.2763197791
N   N15       1.0  0.92196  0.05927  0.20605  1.0000 -0.2763197791
N   N16       1.0  0.07804  0.94073  0.70605  1.0000 -0.2763197791
O   O1        1.0  0.23270  0.39117  0.69083  1.0000 -0.2505094518
O   O2        1.0  0.76730  0.60883  0.19083  1.0000 -0.2505094518
O   O3        1.0  0.10883  0.73270  0.44083  1.0000 -0.2505094518
O   O4        1.0  0.89117  0.26730  0.94083  1.0000 -0.2505094518
O   O5        1.0  0.26730  0.89117  0.05917  1.0000 -0.2505094518
O   O6        1.0  0.73270  0.10883  0.55917  1.0000 -0.2505094518
O   O7        1.0  0.39117  0.23270  0.30917  1.0000 -0.2505094518
O   O8        1.0  0.60883  0.76730  0.80917  1.0000 -0.2505094518
O   O9        1.0  0.23325  0.36943  0.62370  1.0000 -0.451391108
O   O10       1.0  0.76675  0.63057  0.12370  1.0000 -0.451391108
O   O11       1.0  0.13057  0.73325  0.37370  1.0000 -0.451391108
O   O12       1.0  0.86943  0.26675  0.87370  1.0000 -0.451391108
O   O13       1.0  0.26675  0.86943  0.12630  1.0000 -0.451391108
O   O14       1.0  0.73325  0.13057  0.62630  1.0000 -0.451391108
O   O15       1.0  0.36943  0.23325  0.37630  1.0000 -0.451391108
O   O16       1.0  0.63057  0.76675  0.87630  1.0000 -0.451391108
O   O17       1.0  0.06898  0.28238  0.62132  1.0000 -0.2343795185
O   O18       1.0  0.93102  0.71762  0.12132  1.0000 -0.2343795185
O   O19       1.0  0.21762  0.56898  0.37132  1.0000 -0.2343795185
O   O20       1.0  0.78238  0.43102  0.87132  1.0000 -0.2343795185
O   O21       1.0  0.43102  0.78238  0.12868  1.0000 -0.2343795185
O   O22       1.0  0.56898  0.21762  0.62868  1.0000 -0.2343795185
O   O23       1.0  0.28238  0.06898  0.37868  1.0000 -0.2343795185
O   O24       1.0  0.71762  0.93102  0.87868  1.0000 -0.2343795185
O   O25       1.0  0.06983  0.32880  0.68437  1.0000 -0.4392370802
O   O26       1.0  0.93017  0.67120  0.18437  1.0000 -0.4392370802
O   O27       1.0  0.17120  0.56983  0.43437  1.0000 -0.4392370802
O   O28       1.0  0.82880  0.43017  0.93437  1.0000 -0.4392370802
O   O29       1.0  0.43017  0.82880  0.06563  1.0000 -0.4392370802
O   O30       1.0  0.56983  0.17120  0.56563  1.0000 -0.4392370802
O   O31       1.0  0.32880  0.06983  0.31563  1.0000 -0.4392370802
O   O32       1.0  0.67120  0.93017  0.81563  1.0000 -0.4392370802
O   O33       1.0  0.11588  0.75991  0.73046  1.0000 -0.5848630887
O   O34       1.0  0.88412  0.24009  0.23046  1.0000 -0.5848630887
O   O35       1.0  0.74009  0.61588  0.48046  1.0000 -0.5848630887
O   O36       1.0  0.25991  0.38412  0.98046  1.0000 -0.5853432637
O   O37       1.0  0.38412  0.25991  0.01954  1.0000 -0.5848630887
O   O38       1.0  0.61588  0.74009  0.51954  1.0000 -0.5848630887
O   O39       1.0  0.75991  0.11588  0.26954  1.0000 -0.5848630887
O   O40       1.0  0.24009  0.88412  0.76954  1.0000 -0.5853432637
O   O41       1.0  0.23193  0.78573  0.70108  1.0000 -0.5320932787
O   O42       1.0  0.76807  0.21427  0.20108  1.0000 -0.5320932787
O   O43       1.0  0.71427  0.73193  0.45108  1.0000 -0.5320932787
O   O44       1.0  0.28573  0.26807  0.95108  1.0000 -0.5320932787
O   O45       1.0  0.26807  0.28573  0.04892  1.0000 -0.5320932787
O   O46       1.0  0.73193  0.71427  0.54892  1.0000 -0.5320932787
O   O47       1.0  0.78573  0.23193  0.29892  1.0000 -0.5320932787
O   O48       1.0  0.21427  0.76807  0.79892  1.0000 -0.5320932787
O   O49       1.0  0.76811  0.51986  0.57838  1.0000 -0.5508199555
O   O50       1.0  0.23189  0.48014  0.07838  1.0000 -0.5508199555
O   O51       1.0  0.98014  0.26811  0.32838  1.0000 -0.5508199555
O   O52       1.0  0.01986  0.73189  0.82838  1.0000 -0.5508199555
O   O53       1.0  0.73189  0.01986  0.17162  1.0000 -0.5508199555
O   O54       1.0  0.26811  0.98014  0.67162  1.0000 -0.5508199555
O   O55       1.0  0.51986  0.76811  0.42162  1.0000 -0.5508199555
O   O56       1.0  0.48014  0.23189  0.92162  1.0000 -0.5508199555
O   O57       1.0  0.85778  0.53074  0.53758  1.0000 -0.5590197888
O   O58       1.0  0.14222  0.46926  0.03758  1.0000 -0.5590197888
O   O59       1.0  0.96926  0.35778  0.28758  1.0000 -0.5590197888
O   O60       1.0  0.03074  0.64222  0.78758  1.0000 -0.5590197888
O   O61       1.0  0.64222  0.03074  0.21242  1.0000 -0.5590197888
O   O62       1.0  0.35778  0.96926  0.71242  1.0000 -0.5590197888
O   O63       1.0  0.53074  0.85778  0.46242  1.0000 -0.5590197888
O   O64       1.0  0.46926  0.14222  0.96242  1.0000 -0.5590197888
