# DDEC6 charges by PACMAN v1.1 (https://github.com/mtap-research/PACMAN-charge/)
data_2013[Dy][nan]3[ASR]3
_chemical_formula_sum              "Dy4 H50 C78 N6 O28"
_cell_length_a       12.825
_cell_length_b       13.672
_cell_length_c       14.227
_cell_angle_alpha    66.182
_cell_angle_beta     66.8
_cell_angle_gamma    77.064

_symmetry_space_group_name_H-M    "P 1"
_symmetry_Int_Tables_number       1

loop_
  _symmetry_equiv_pos_as_xyz
  'x, y, z'

loop_
  _atom_site_type_symbol
  _atom_site_label
  _atom_site_symmetry_multiplicity
  _atom_site_fract_x
  _atom_site_fract_y
  _atom_site_fract_z
  _atom_site_occupancy
  _atom_site_charge
Dy  Dy1       1.0  0.57139  0.61851  0.48851  1.0000 2.1058573432
Dy  Dy2       1.0  0.42861  0.38149  0.51149  1.0000 2.1058573432
Dy  Dy3       1.0  0.56810  0.67959  0.83505  1.0000 1.984078259
Dy  Dy4       1.0  0.43190  0.32041  0.16495  1.0000 1.984078259
H   H1        1.0  0.52260  0.51190  0.77410  1.0000 0.3893753894
H   H2        1.0  0.47740  0.48810  0.22590  1.0000 0.3893753894
H   H3        1.0  0.45870  0.51180  0.89560  1.0000 0.3672477312
H   H4        1.0  0.54130  0.48820  0.10440  1.0000 0.3672477312
H   H5        1.0  0.47990  0.72090  0.97320  1.0000 0.3471005268
H   H6        1.0  0.52010  0.27910  0.02680  1.0000 0.3471005268
H   H7        1.0  0.55150  0.80840  0.95510  1.0000 0.3893753894
H   H8        1.0  0.44850  0.19160  0.04490  1.0000 0.3893753894
H   H9        1.0  0.32500  0.82650  0.50530  1.0000 0.1188897088
H   H10       1.0  0.67500  0.17350  0.49470  1.0000 0.1188897088
H   H11       1.0  0.22060  0.13250  0.47380  1.0000 0.0993967343
H   H12       1.0  0.77940  0.86750  0.52620  1.0000 0.0993967343
H   H13       1.0  0.40500  0.97240  0.65800  1.0000 0.1188897088
H   H14       1.0  0.59500  0.02760  0.34200  1.0000 0.1188897088
H   H15       1.0  0.11790  0.85450  0.51260  1.0000 0.1101951861
H   H16       1.0  0.88210  0.14550  0.48740  1.0000 0.1101951861
H   H17       1.0  0.00620  0.85760  0.41910  1.0000 0.0993967343
H   H18       1.0  0.99380  0.14240  0.58090  1.0000 0.0993967343
H   H19       1.0  0.01780  0.99100  0.25110  1.0000 0.1101951861
H   H20       1.0  0.98220  0.00900  0.74890  1.0000 0.1101951861
H   H21       1.0  0.14000  0.12300  0.18110  1.0000 0.1188897088
H   H22       1.0  0.86000  0.87700  0.81890  1.0000 0.1188897088
H   H23       1.0  0.02420  0.26350  0.26270  1.0000 0.1101951861
H   H24       1.0  0.97580  0.73650  0.73730  1.0000 0.1101951861
H   H25       1.0  0.95400  0.23660  0.14990  1.0000 0.1101951861
H   H26       1.0  0.04600  0.76340  0.85010  1.0000 0.1101951861
H   H27       1.0  0.77600  0.31270  0.14140  1.0000 0.1188897088
H   H28       1.0  0.22400  0.68730  0.85860  1.0000 0.1188897088
H   H29       1.0  0.67230  0.41970  0.24410  1.0000 0.1279623366
H   H30       1.0  0.32770  0.58030  0.75590  1.0000 0.1279623366
H   H31       1.0  0.10850  0.37150  0.29220  1.0000 0.1188897088
H   H32       1.0  0.89150  0.62850  0.70780  1.0000 0.1188897088
H   H33       1.0  0.07430  0.37060  0.58520  1.0000 0.1101951861
H   H34       1.0  0.92570  0.62940  0.41480  1.0000 0.1101951861
H   H35       1.0  0.80550  0.36570  0.52570  1.0000 0.0993967343
H   H36       1.0  0.19450  0.63430  0.47430  1.0000 0.0993967343
H   H37       1.0  0.85370  0.51270  0.94310  1.0000 0.1279623366
H   H38       1.0  0.14630  0.48730  0.05690  1.0000 0.1279623366
H   H39       1.0  0.04470  0.45900  0.88890  1.0000 0.1101951861
H   H40       1.0  0.95530  0.54100  0.11110  1.0000 0.1101951861
H   H41       1.0  0.10830  0.31950  0.82180  1.0000 0.1188897088
H   H42       1.0  0.89170  0.68050  0.17820  1.0000 0.1188897088
H   H43       1.0  0.98040  0.23840  0.80440  1.0000 0.1188897088
H   H44       1.0  0.01960  0.76160  0.19560  1.0000 0.1188897088
H   H45       1.0  0.79520  0.12010  0.92240  1.0000 0.0993967343
H   H46       1.0  0.20480  0.87990  0.07760  1.0000 0.0993967343
H   H47       1.0  0.58250  0.15740  0.77320  1.0000 0.1101951861
H   H48       1.0  0.41750  0.84260  0.22680  1.0000 0.1101951861
H   H49       1.0  0.70150  0.41570  0.75010  1.0000 0.1279623366
H   H50       1.0  0.29850  0.58430  0.24990  1.0000 0.1279623366
C   C1        1.0  0.43890  0.78260  0.64270  1.0000 0.661808402
C   C2        1.0  0.56110  0.21740  0.35730  1.0000 0.661808402
C   C3        1.0  0.37470  0.88290  0.59100  1.0000 -0.0815054758
C   C4        1.0  0.62530  0.11710  0.40900  1.0000 -0.0815054758
C   C5        1.0  0.32160  0.88690  0.52130  1.0000 -0.1218144514
C   C6        1.0  0.67840  0.11310  0.47870  1.0000 -0.1218144514
C   C7        1.0  0.26250  0.98300  0.47490  1.0000 0.037656863
C   C8        1.0  0.73750  0.01700  0.52510  1.0000 0.037656863
C   C9        1.0  0.26110  0.06920  0.50230  1.0000 0.0270999547
C   C10       1.0  0.73890  0.93080  0.49770  1.0000 0.0270999547
C   C11       1.0  0.36910  0.97510  0.61150  1.0000 0.0592129479
C   C12       1.0  0.63090  0.02490  0.38850  1.0000 0.0592129479
C   C13       1.0  0.19790  0.98870  0.40490  1.0000 0.0592129479
C   C14       1.0  0.80210  0.01130  0.59510  1.0000 0.0592129479
C   C15       1.0  0.12280  0.90930  0.44600  1.0000 -0.1496444859
C   C16       1.0  0.87720  0.09070  0.55400  1.0000 -0.1496444859
C   C17       1.0  0.05610  0.91080  0.38960  1.0000 -0.0815054758
C   C18       1.0  0.94390  0.08920  0.61040  1.0000 -0.0815054758
C   C19       1.0  0.06240  0.99060  0.28940  1.0000 -0.0987167054
C   C20       1.0  0.93760  0.00940  0.71060  1.0000 -0.0987167054
C   C21       1.0  0.13560  0.06880  0.24810  1.0000 -0.1122137127
C   C22       1.0  0.86440  0.93120  0.75190  1.0000 -0.1122137127
C   C23       1.0  0.20410  0.06920  0.30410  1.0000 -0.0583449465
C   C24       1.0  0.79590  0.93080  0.69590  1.0000 -0.0583449465
C   C25       1.0  0.28540  0.15570  0.24950  1.0000 0.5559669442
C   C26       1.0  0.71460  0.84430  0.75050  1.0000 0.5559669442
C   C27       1.0  0.70970  0.47760  0.37720  1.0000 0.6049905724
C   C28       1.0  0.29030  0.52240  0.62280  1.0000 0.6049905724
C   C29       1.0  0.78450  0.40400  0.31800  1.0000 -0.070193506
C   C30       1.0  0.21550  0.59600  0.68200  1.0000 -0.070193506
C   C31       1.0  0.89290  0.35940  0.32330  1.0000 0.0494605533
C   C32       1.0  0.10710  0.64060  0.67670  1.0000 0.0494605533
C   C33       1.0  0.95300  0.29570  0.25950  1.0000 -0.1496444859
C   C34       1.0  0.04700  0.70430  0.74050  1.0000 -0.1496444859
C   C35       1.0  0.91090  0.27870  0.19170  1.0000 -0.0899589936
C   C36       1.0  0.08910  0.72130  0.80830  1.0000 -0.0899589936
C   C37       1.0  0.80520  0.32420  0.18610  1.0000 -0.0899589936
C   C38       1.0  0.19480  0.67580  0.81390  1.0000 -0.0899589936
C   C39       1.0  0.74300  0.38750  0.24860  1.0000 -0.0987167054
C   C40       1.0  0.25700  0.61250  0.75140  1.0000 -0.0987167054
C   C41       1.0  0.94510  0.36880  0.39610  1.0000 0.0202197831
C   C42       1.0  0.05490  0.63120  0.60390  1.0000 0.0202197831
C   C43       1.0  0.06330  0.36980  0.36250  1.0000 -0.1122137127
C   C44       1.0  0.93670  0.63020  0.63750  1.0000 -0.1122137127
C   C45       1.0  0.11350  0.36800  0.43470  1.0000 -0.0899589936
C   C46       1.0  0.88650  0.63200  0.56530  1.0000 -0.0899589936
C   C47       1.0  0.04170  0.36980  0.53760  1.0000 0.0664780222
C   C48       1.0  0.95830  0.63020  0.46240  1.0000 0.0664780222
C   C49       1.0  0.88390  0.36800  0.50150  1.0000 0.0270999547
C   C50       1.0  0.11610  0.63200  0.49850  1.0000 0.0270999547
C   C51       1.0  0.23970  0.36200  0.40380  1.0000 0.661808402
C   C52       1.0  0.76030  0.63800  0.59620  1.0000 0.661808402
C   C53       1.0  0.67540  0.43490  0.96290  1.0000 0.6473681636
C   C54       1.0  0.32460  0.56510  0.03710  1.0000 0.6473681636
C   C55       1.0  0.79930  0.40570  0.91060  1.0000 -0.0815054758
C   C56       1.0  0.20070  0.59430  0.08940  1.0000 -0.0815054758
C   C57       1.0  0.87870  0.45650  0.91650  1.0000 -0.1122137127
C   C58       1.0  0.12130  0.54350  0.08350  1.0000 -0.1122137127
C   C59       1.0  0.99320  0.42480  0.88370  1.0000 -0.0987167054
C   C60       1.0  0.00680  0.57520  0.11630  1.0000 -0.0987167054
C   C61       1.0  0.03130  0.34200  0.84290  1.0000 -0.070193506
C   C62       1.0  0.96870  0.65800  0.15710  1.0000 -0.070193506
C   C63       1.0  0.95400  0.29270  0.83360  1.0000 -0.1438405358
C   C64       1.0  0.04600  0.70730  0.16640  1.0000 -0.1438405358
C   C65       1.0  0.83810  0.32270  0.86700  1.0000 0.0592129479
C   C66       1.0  0.16190  0.67730  0.13300  1.0000 0.0592129479
C   C67       1.0  0.76050  0.27510  0.84430  1.0000 0.037656863
C   C68       1.0  0.23950  0.72490  0.15570  1.0000 0.037656863
C   C69       1.0  0.75280  0.16570  0.87910  1.0000 0.0202197831
C   C70       1.0  0.24720  0.83430  0.12090  1.0000 0.0202197831
C   C71       1.0  0.62770  0.18710  0.79070  1.0000 0.0592129479
C   C72       1.0  0.37230  0.81290  0.20930  1.0000 0.0592129479
C   C73       1.0  0.63040  0.29760  0.75010  1.0000 -0.0815054758
C   C74       1.0  0.36960  0.70240  0.24990  1.0000 -0.0815054758
C   C75       1.0  0.69790  0.34180  0.77690  1.0000 -0.0987167054
C   C76       1.0  0.30210  0.65820  0.22310  1.0000 -0.0987167054
C   C77       1.0  0.56350  0.36770  0.67880  1.0000 0.6473681636
C   C78       1.0  0.43650  0.63230  0.32120  1.0000 0.6473681636
N   N1        1.0  0.31460  0.06770  0.56780  1.0000 -0.2397740178
N   N2        1.0  0.68540  0.93230  0.43220  1.0000 -0.2397740178
N   N3        1.0  0.92890  0.37050  0.57140  1.0000 -0.2584827237
N   N4        1.0  0.07110  0.62950  0.42860  1.0000 -0.2584827237
N   N5        1.0  0.68780  0.12100  0.85460  1.0000 -0.2500937276
N   N6        1.0  0.31220  0.87900  0.14540  1.0000 -0.2500937276
O   O1        1.0  0.47440  0.71380  0.59650  1.0000 -0.7114121311
O   O2        1.0  0.52560  0.28620  0.40350  1.0000 -0.7114121311
O   O3        1.0  0.45170  0.77230  0.72930  1.0000 -0.6430508785
O   O4        1.0  0.54830  0.22770  0.27070  1.0000 -0.6430508785
O   O5        1.0  0.37890  0.13720  0.26500  1.0000 -0.6157695346
O   O6        1.0  0.62110  0.86280  0.73500  1.0000 -0.6157695346
O   O7        1.0  0.25880  0.24670  0.18760  1.0000 -0.6319672756
O   O8        1.0  0.74120  0.75330  0.81240  1.0000 -0.6319672756
O   O9        1.0  0.74380  0.56170  0.36500  1.0000 -0.5962797992
O   O10       1.0  0.25620  0.43830  0.63500  1.0000 -0.5962797992
O   O11       1.0  0.60870  0.45330  0.43890  1.0000 -0.737787395
O   O12       1.0  0.39130  0.54670  0.56110  1.0000 -0.737787395
O   O13       1.0  0.30040  0.35970  0.30940  1.0000 -0.6879132681
O   O14       1.0  0.69960  0.64030  0.69060  1.0000 -0.6879132681
O   O15       1.0  0.27840  0.36010  0.47250  1.0000 -0.6642994874
O   O16       1.0  0.72160  0.63990  0.52750  1.0000 -0.6642994874
O   O17       1.0  0.64380  0.53270  0.94950  1.0000 -0.6804577801
O   O18       1.0  0.35620  0.46730  0.05050  1.0000 -0.6804577801
O   O19       1.0  0.61180  0.35990  0.02260  1.0000 -0.6319672756
O   O20       1.0  0.38820  0.64010  0.97740  1.0000 -0.6319672756
O   O21       1.0  0.56890  0.46820  0.64730  1.0000 -0.6642994874
O   O22       1.0  0.43110  0.53180  0.35270  1.0000 -0.6642994874
O   O23       1.0  0.50760  0.32370  0.65180  1.0000 -0.6804577801
O   O24       1.0  0.49240  0.67630  0.34820  1.0000 -0.6804577801
O   O25       1.0  0.50240  0.53080  0.82920  1.0000 -0.8046039634
O   O26       1.0  0.49760  0.46920  0.17080  1.0000 -0.8046039634
O   O27       1.0  0.52420  0.76010  0.97110  1.0000 -0.6804577801
O   O28       1.0  0.47580  0.23990  0.02890  1.0000 -0.6804577801
