# DDEC6 charges by PACMAN v1.1 (https://github.com/mtap-research/PACMAN-charge/)
data_2013[CuMn][nan]3[ASR]1
_chemical_formula_sum              "Mn16 Cu16 H64 C176 N32 O128"
_cell_length_a       20.467
_cell_length_b       20.467
_cell_length_c       34.344
_cell_angle_alpha    90
_cell_angle_beta     90
_cell_angle_gamma    90

_symmetry_space_group_name_H-M    "P 1"
_symmetry_Int_Tables_number       1

loop_
  _symmetry_equiv_pos_as_xyz
  'x, y, z'

loop_
  _atom_site_type_symbol
  _atom_site_label
  _atom_site_symmetry_multiplicity
  _atom_site_fract_x
  _atom_site_fract_y
  _atom_site_fract_z
  _atom_site_occupancy
  _atom_site_charge
Mn  Mn1       1.0  0.31852  0.13038  0.19785  1.0000 0.9879582646
Mn  Mn2       1.0  0.68148  0.86962  0.69785  1.0000 0.9879582646
Mn  Mn3       1.0  0.36962  0.81852  0.44785  1.0000 0.9879582646
Mn  Mn4       1.0  0.63038  0.18148  0.94785  1.0000 0.9879582646
Mn  Mn5       1.0  0.18148  0.63038  0.05215  1.0000 0.9879582646
Mn  Mn6       1.0  0.81852  0.36962  0.55215  1.0000 0.9879582646
Mn  Mn7       1.0  0.13038  0.31852  0.80215  1.0000 0.9879582646
Mn  Mn8       1.0  0.86962  0.68148  0.30215  1.0000 0.9879582646
Mn  Mn9       1.0  0.11302  0.31028  0.21380  1.0000 0.9845739942
Mn  Mn10      1.0  0.88698  0.68972  0.71380  1.0000 0.9879582646
Mn  Mn11      1.0  0.18972  0.61302  0.46380  1.0000 0.9845739942
Mn  Mn12      1.0  0.81028  0.38698  0.96380  1.0000 0.9845739942
Mn  Mn13      1.0  0.38698  0.81028  0.03620  1.0000 0.9845739942
Mn  Mn14      1.0  0.61302  0.18972  0.53620  1.0000 0.9879582646
Mn  Mn15      1.0  0.31028  0.11302  0.78620  1.0000 0.9845739942
Mn  Mn16      1.0  0.68972  0.88698  0.28620  1.0000 0.9879582646
Cu  Cu1       1.0  0.31323  0.97107  0.92029  1.0000 0.688941683
Cu  Cu2       1.0  0.68677  0.02893  0.42029  1.0000 0.688941683
Cu  Cu3       1.0  0.52893  0.81323  0.17029  1.0000 0.688941683
Cu  Cu4       1.0  0.47107  0.18677  0.67029  1.0000 0.688941683
Cu  Cu5       1.0  0.18677  0.47107  0.32971  1.0000 0.688941683
Cu  Cu6       1.0  0.81323  0.52893  0.82971  1.0000 0.688941683
Cu  Cu7       1.0  0.97107  0.31323  0.07971  1.0000 0.688941683
Cu  Cu8       1.0  0.02893  0.68677  0.57971  1.0000 0.683202241
Cu  Cu9       1.0  0.45192  0.17063  0.06390  1.0000 0.6980672817
Cu  Cu10      1.0  0.54808  0.82937  0.56390  1.0000 0.6980672817
Cu  Cu11      1.0  0.32937  0.95192  0.31390  1.0000 0.6980672817
Cu  Cu12      1.0  0.67063  0.04808  0.81390  1.0000 0.6980672817
Cu  Cu13      1.0  0.04808  0.67063  0.18610  1.0000 0.6980672817
Cu  Cu14      1.0  0.95192  0.32937  0.68610  1.0000 0.6980672817
Cu  Cu15      1.0  0.17063  0.45192  0.93610  1.0000 0.6980672817
Cu  Cu16      1.0  0.82937  0.54808  0.43610  1.0000 0.6980672817
H   H1        1.0  0.38820  0.03810  0.03160  1.0000 0.1628864821
H   H2        1.0  0.61180  0.96190  0.53160  1.0000 0.1628864821
H   H3        1.0  0.46190  0.88820  0.28160  1.0000 0.1628864821
H   H4        1.0  0.53810  0.11180  0.78160  1.0000 0.1628864821
H   H5        1.0  0.11180  0.53810  0.21840  1.0000 0.1628864821
H   H6        1.0  0.88820  0.46190  0.71840  1.0000 0.1628864821
H   H7        1.0  0.03810  0.38820  0.96840  1.0000 0.1628864821
H   H8        1.0  0.96190  0.61180  0.46840  1.0000 0.1628864821
H   H9        1.0  0.20960  0.02580  0.98240  1.0000 0.1405681059
H   H10       1.0  0.79040  0.97420  0.48240  1.0000 0.1405681059
H   H11       1.0  0.47420  0.70960  0.23240  1.0000 0.1405681059
H   H12       1.0  0.52580  0.29040  0.73240  1.0000 0.1405681059
H   H13       1.0  0.29040  0.52580  0.26760  1.0000 0.1405681059
H   H14       1.0  0.70960  0.47420  0.76760  1.0000 0.1405681059
H   H15       1.0  0.02580  0.20960  0.01760  1.0000 0.1405681059
H   H16       1.0  0.97420  0.79040  0.51760  1.0000 0.1405681059
H   H17       1.0  0.17110  0.10440  0.02440  1.0000 0.1201275554
H   H18       1.0  0.82890  0.89560  0.52440  1.0000 0.1201275554
H   H19       1.0  0.39560  0.67110  0.27440  1.0000 0.1201275554
H   H20       1.0  0.60440  0.32890  0.77440  1.0000 0.1201275554
H   H21       1.0  0.32890  0.60440  0.22560  1.0000 0.1201275554
H   H22       1.0  0.67110  0.39560  0.72560  1.0000 0.1201275554
H   H23       1.0  0.10440  0.17110  0.97560  1.0000 0.1201275554
H   H24       1.0  0.89560  0.82890  0.47560  1.0000 0.1201275554
H   H25       1.0  0.23950  0.15080  0.07080  1.0000 0.1405681059
H   H26       1.0  0.76050  0.84920  0.57080  1.0000 0.1405681059
H   H27       1.0  0.34920  0.73950  0.32080  1.0000 0.1405681059
H   H28       1.0  0.65080  0.26050  0.82080  1.0000 0.1405681059
H   H29       1.0  0.26050  0.65080  0.17920  1.0000 0.1405681059
H   H30       1.0  0.73950  0.34920  0.67920  1.0000 0.1405681059
H   H31       1.0  0.15080  0.23950  0.92920  1.0000 0.1405681059
H   H32       1.0  0.84920  0.76050  0.42920  1.0000 0.1405681059
H   H33       1.0  0.41830  0.08480  0.95220  1.0000 0.1628864821
H   H34       1.0  0.58170  0.91520  0.45220  1.0000 0.1628864821
H   H35       1.0  0.41520  0.91830  0.20220  1.0000 0.1628864821
H   H36       1.0  0.58480  0.08170  0.70220  1.0000 0.1628864821
H   H37       1.0  0.08170  0.58480  0.29780  1.0000 0.1628864821
H   H38       1.0  0.91830  0.41520  0.79780  1.0000 0.1628864821
H   H39       1.0  0.08480  0.41830  0.04780  1.0000 0.1628864821
H   H40       1.0  0.91520  0.58170  0.54780  1.0000 0.1628864821
H   H41       1.0  0.25130  0.17000  0.91820  1.0000 0.1405681059
H   H42       1.0  0.74870  0.83000  0.41820  1.0000 0.1405681059
H   H43       1.0  0.33000  0.75130  0.16820  1.0000 0.1405681059
H   H44       1.0  0.67000  0.24870  0.66820  1.0000 0.1405681059
H   H45       1.0  0.24870  0.67000  0.33180  1.0000 0.1405681059
H   H46       1.0  0.75130  0.33000  0.83180  1.0000 0.1405681059
H   H47       1.0  0.17000  0.25130  0.08180  1.0000 0.1405681059
H   H48       1.0  0.83000  0.74870  0.58180  1.0000 0.1405681059
H   H49       1.0  0.26840  0.25420  0.96090  1.0000 0.1143518578
H   H50       1.0  0.73160  0.74580  0.46090  1.0000 0.1143518578
H   H51       1.0  0.24580  0.76840  0.21090  1.0000 0.1143518578
H   H52       1.0  0.75420  0.23160  0.71090  1.0000 0.1143518578
H   H53       1.0  0.23160  0.75420  0.28910  1.0000 0.1143518578
H   H54       1.0  0.76840  0.24580  0.78910  1.0000 0.1143518578
H   H55       1.0  0.25420  0.26840  0.03910  1.0000 0.1143518578
H   H56       1.0  0.74580  0.73160  0.53910  1.0000 0.1143518578
H   H57       1.0  0.36100  0.25270  0.00200  1.0000 0.1405681059
H   H58       1.0  0.63900  0.74730  0.50200  1.0000 0.1405681059
H   H59       1.0  0.24730  0.86100  0.25200  1.0000 0.1405681059
H   H60       1.0  0.75270  0.13900  0.75200  1.0000 0.1405681059
H   H61       1.0  0.13900  0.75270  0.24800  1.0000 0.1405681059
H   H62       1.0  0.86100  0.24730  0.74800  1.0000 0.1405681059
H   H63       1.0  0.25270  0.36100  0.99800  1.0000 0.1405681059
H   H64       1.0  0.74730  0.63900  0.49800  1.0000 0.1405681059
C   C1        1.0  0.34480  0.05130  0.03046  1.0000 -0.2304093201
C   C2        1.0  0.65520  0.94870  0.53046  1.0000 -0.2304093201
C   C3        1.0  0.44870  0.84480  0.28046  1.0000 -0.2304093201
C   C4        1.0  0.55130  0.15520  0.78046  1.0000 -0.2304093201
C   C5        1.0  0.15520  0.55130  0.21954  1.0000 -0.2304093201
C   C6        1.0  0.84480  0.44870  0.71954  1.0000 -0.2304093201
C   C7        1.0  0.05130  0.34480  0.96954  1.0000 -0.2304093201
C   C8        1.0  0.94870  0.65520  0.46954  1.0000 -0.2304093201
C   C9        1.0  0.30140  0.02190  0.00379  1.0000 0.2714904128
C   C10       1.0  0.69860  0.97810  0.50379  1.0000 0.2714904128
C   C11       1.0  0.47810  0.80140  0.25379  1.0000 0.2714904128
C   C12       1.0  0.52190  0.19860  0.75379  1.0000 0.2714904128
C   C13       1.0  0.19860  0.52190  0.24621  1.0000 0.2714904128
C   C14       1.0  0.80140  0.47810  0.74621  1.0000 0.2714904128
C   C15       1.0  0.02190  0.30140  0.99621  1.0000 0.2714904128
C   C16       1.0  0.97810  0.69860  0.49621  1.0000 0.2714904128
C   C17       1.0  0.23720  0.04350  0.00110  1.0000 -0.1977274991
C   C18       1.0  0.76280  0.95650  0.50110  1.0000 -0.1977274991
C   C19       1.0  0.45650  0.73720  0.25110  1.0000 -0.1977274991
C   C20       1.0  0.54350  0.26280  0.75110  1.0000 -0.1977274991
C   C21       1.0  0.26280  0.54350  0.24890  1.0000 -0.1977274991
C   C22       1.0  0.73720  0.45650  0.74890  1.0000 -0.1977274991
C   C23       1.0  0.04350  0.23720  0.99890  1.0000 -0.1977274991
C   C24       1.0  0.95650  0.76280  0.49890  1.0000 -0.1977274991
C   C25       1.0  0.21440  0.09110  0.02598  1.0000 -0.0587590258
C   C26       1.0  0.78560  0.90890  0.52598  1.0000 -0.0587590258
C   C27       1.0  0.40890  0.71440  0.27598  1.0000 -0.0587590258
C   C28       1.0  0.59110  0.28560  0.77598  1.0000 -0.0587590258
C   C29       1.0  0.28560  0.59110  0.22402  1.0000 -0.0587590258
C   C30       1.0  0.71440  0.40890  0.72402  1.0000 -0.0587590258
C   C31       1.0  0.09110  0.21440  0.97402  1.0000 -0.0587590258
C   C32       1.0  0.90890  0.78560  0.47402  1.0000 -0.0587590258
C   C33       1.0  0.25560  0.11960  0.05362  1.0000 -0.1719776984
C   C34       1.0  0.74440  0.88040  0.55362  1.0000 -0.1719776984
C   C35       1.0  0.38040  0.75560  0.30362  1.0000 -0.1719776984
C   C36       1.0  0.61960  0.24440  0.80362  1.0000 -0.1719776984
C   C37       1.0  0.24440  0.61960  0.19638  1.0000 -0.1719776984
C   C38       1.0  0.75560  0.38040  0.69638  1.0000 -0.1719776984
C   C39       1.0  0.11960  0.25560  0.94638  1.0000 -0.1719776984
C   C40       1.0  0.88040  0.74440  0.44638  1.0000 -0.1719776984
C   C41       1.0  0.32190  0.10050  0.05521  1.0000 0.2714904128
C   C42       1.0  0.67810  0.89950  0.55521  1.0000 0.2714904128
C   C43       1.0  0.39950  0.82190  0.30521  1.0000 0.2714904128
C   C44       1.0  0.60050  0.17810  0.80521  1.0000 0.2714904128
C   C45       1.0  0.17810  0.60050  0.19479  1.0000 0.2714904128
C   C46       1.0  0.82190  0.39950  0.69479  1.0000 0.2714904128
C   C47       1.0  0.10050  0.32190  0.94479  1.0000 0.2714904128
C   C48       1.0  0.89950  0.67810  0.44479  1.0000 0.2714904128
C   C49       1.0  0.35600  0.92360  0.99052  1.0000 0.4005336486
C   C50       1.0  0.64400  0.07640  0.49052  1.0000 0.4005336486
C   C51       1.0  0.57640  0.85600  0.24052  1.0000 0.4005336486
C   C52       1.0  0.42360  0.14400  0.74052  1.0000 0.4005336486
C   C53       1.0  0.14400  0.42360  0.25948  1.0000 0.4005336486
C   C54       1.0  0.85600  0.57640  0.75948  1.0000 0.4005336486
C   C55       1.0  0.92360  0.35600  0.00948  1.0000 0.4005336486
C   C56       1.0  0.07640  0.64400  0.50948  1.0000 0.4005336486
C   C57       1.0  0.37310  0.87190  0.96085  1.0000 0.5081535582
C   C58       1.0  0.62690  0.12810  0.46085  1.0000 0.5081535582
C   C59       1.0  0.62810  0.87310  0.21085  1.0000 0.5081535582
C   C60       1.0  0.37190  0.12690  0.71085  1.0000 0.5081535582
C   C61       1.0  0.12690  0.37190  0.28915  1.0000 0.5081535582
C   C62       1.0  0.87310  0.62810  0.78915  1.0000 0.5081535582
C   C63       1.0  0.87190  0.37310  0.03915  1.0000 0.5081535582
C   C64       1.0  0.12810  0.62690  0.53915  1.0000 0.5081535582
C   C65       1.0  0.35820  0.13630  0.11685  1.0000 0.4005336486
C   C66       1.0  0.64180  0.86370  0.61685  1.0000 0.4005336486
C   C67       1.0  0.36370  0.85820  0.36685  1.0000 0.4005336486
C   C68       1.0  0.63630  0.14180  0.86685  1.0000 0.4005336486
C   C69       1.0  0.14180  0.63630  0.13315  1.0000 0.4005336486
C   C70       1.0  0.85820  0.36370  0.63315  1.0000 0.4005336486
C   C71       1.0  0.13630  0.35820  0.88315  1.0000 0.4005336486
C   C72       1.0  0.86370  0.64180  0.38315  1.0000 0.4005336486
C   C73       1.0  0.41640  0.16300  0.13996  1.0000 0.5081535582
C   C74       1.0  0.58360  0.83700  0.63996  1.0000 0.5081535582
C   C75       1.0  0.33700  0.91640  0.38996  1.0000 0.5081535582
C   C76       1.0  0.66300  0.08360  0.88996  1.0000 0.5081535582
C   C77       1.0  0.08360  0.66300  0.11004  1.0000 0.5081535582
C   C78       1.0  0.91640  0.33700  0.61004  1.0000 0.5081535582
C   C79       1.0  0.16300  0.41640  0.86004  1.0000 0.5081535582
C   C80       1.0  0.83700  0.58360  0.36004  1.0000 0.5081535582
C   C81       1.0  0.38800  0.11850  0.95411  1.0000 -0.2190185837
C   C82       1.0  0.61200  0.88150  0.45411  1.0000 -0.2190185837
C   C83       1.0  0.38150  0.88800  0.20411  1.0000 -0.2190185837
C   C84       1.0  0.61850  0.11200  0.70411  1.0000 -0.2190185837
C   C85       1.0  0.11200  0.61850  0.29589  1.0000 -0.2190185837
C   C86       1.0  0.88800  0.38150  0.79589  1.0000 -0.2190185837
C   C87       1.0  0.11850  0.38800  0.04589  1.0000 -0.2190185837
C   C88       1.0  0.88150  0.61200  0.54589  1.0000 -0.2190185837
C   C89       1.0  0.33200  0.11860  0.93008  1.0000 0.2714904128
C   C90       1.0  0.66800  0.88140  0.43008  1.0000 0.2714904128
C   C91       1.0  0.38140  0.83200  0.18008  1.0000 0.2714904128
C   C92       1.0  0.61860  0.16800  0.68008  1.0000 0.2714904128
C   C93       1.0  0.16800  0.61860  0.31992  1.0000 0.2714904128
C   C94       1.0  0.83200  0.38140  0.81992  1.0000 0.2714904128
C   C95       1.0  0.11860  0.33200  0.06992  1.0000 0.2714904128
C   C96       1.0  0.88140  0.66800  0.56992  1.0000 0.2714904128
C   C97       1.0  0.28860  0.16970  0.93377  1.0000 -0.1565807123
C   C98       1.0  0.71140  0.83030  0.43377  1.0000 -0.1565807123
C   C99       1.0  0.33030  0.78860  0.18377  1.0000 -0.1565807123
C   C100      1.0  0.66970  0.21140  0.68377  1.0000 -0.1565807123
C   C101      1.0  0.21140  0.66970  0.31623  1.0000 -0.1565807123
C   C102      1.0  0.78860  0.33030  0.81623  1.0000 -0.1565807123
C   C103      1.0  0.16970  0.28860  0.06623  1.0000 -0.1565807123
C   C104      1.0  0.83030  0.71140  0.56623  1.0000 -0.1565807123
C   C105      1.0  0.29830  0.22000  0.95954  1.0000 -0.0587590258
C   C106      1.0  0.70170  0.78000  0.45954  1.0000 -0.0587590258
C   C107      1.0  0.28000  0.79830  0.20954  1.0000 -0.0587590258
C   C108      1.0  0.72000  0.20170  0.70954  1.0000 -0.0587590258
C   C109      1.0  0.20170  0.72000  0.29046  1.0000 -0.0587590258
C   C110      1.0  0.79830  0.28000  0.79046  1.0000 -0.0587590258
C   C111      1.0  0.22000  0.29830  0.04046  1.0000 -0.0587590258
C   C112      1.0  0.78000  0.70170  0.54046  1.0000 -0.0587590258
C   C113      1.0  0.35410  0.21950  0.98401  1.0000 -0.1977274991
C   C114      1.0  0.64590  0.78050  0.48401  1.0000 -0.1977274991
C   C115      1.0  0.28050  0.85410  0.23401  1.0000 -0.1977274991
C   C116      1.0  0.71950  0.14590  0.73401  1.0000 -0.1977274991
C   C117      1.0  0.14590  0.71950  0.26599  1.0000 -0.1977274991
C   C118      1.0  0.85410  0.28050  0.76599  1.0000 -0.1977274991
C   C119      1.0  0.21950  0.35410  0.01599  1.0000 -0.1977274991
C   C120      1.0  0.78050  0.64590  0.51599  1.0000 -0.1977274991
C   C121      1.0  0.39760  0.16880  0.98045  1.0000 0.2615321618
C   C122      1.0  0.60240  0.83120  0.48045  1.0000 0.2615321618
C   C123      1.0  0.33120  0.89760  0.23045  1.0000 0.2615321618
C   C124      1.0  0.66880  0.10240  0.73045  1.0000 0.2615321618
C   C125      1.0  0.10240  0.66880  0.26955  1.0000 0.2615321618
C   C126      1.0  0.89760  0.33120  0.76955  1.0000 0.2615321618
C   C127      1.0  0.16880  0.39760  0.01955  1.0000 0.2615321618
C   C128      1.0  0.83120  0.60240  0.51955  1.0000 0.2615321618
C   C129      1.0  0.31540  0.07350  0.86717  1.0000 0.4177099567
C   C130      1.0  0.68460  0.92650  0.36717  1.0000 0.4177099567
C   C131      1.0  0.42650  0.81540  0.11717  1.0000 0.4177099567
C   C132      1.0  0.57350  0.18460  0.61717  1.0000 0.4177099567
C   C133      1.0  0.18460  0.57350  0.38283  1.0000 0.4177099567
C   C134      1.0  0.81540  0.42650  0.88283  1.0000 0.4177099567
C   C135      1.0  0.07350  0.31540  0.13283  1.0000 0.4177099567
C   C136      1.0  0.92650  0.68460  0.63283  1.0000 0.4177099567
C   C137      1.0  0.30680  0.00950  0.84457  1.0000 0.5081535582
C   C138      1.0  0.69320  0.99050  0.34457  1.0000 0.5081535582
C   C139      1.0  0.49050  0.80680  0.09457  1.0000 0.5081535582
C   C140      1.0  0.50950  0.19320  0.59457  1.0000 0.5081535582
C   C141      1.0  0.19320  0.50950  0.40543  1.0000 0.5081535582
C   C142      1.0  0.80680  0.49050  0.90543  1.0000 0.5081535582
C   C143      1.0  0.00950  0.30680  0.15543  1.0000 0.5081535582
C   C144      1.0  0.99050  0.69320  0.65543  1.0000 0.5081535582
C   C145      1.0  0.51160  0.16630  0.99147  1.0000 0.4256951502
C   C146      1.0  0.48840  0.83370  0.49147  1.0000 0.4256951502
C   C147      1.0  0.33370  0.01160  0.24147  1.0000 0.4256951502
C   C148      1.0  0.66630  0.98840  0.74147  1.0000 0.4256951502
C   C149      1.0  0.98840  0.66630  0.25853  1.0000 0.4256951502
C   C150      1.0  0.01160  0.33370  0.75853  1.0000 0.4177099567
C   C151      1.0  0.16630  0.51160  0.00853  1.0000 0.4177099567
C   C152      1.0  0.83370  0.48840  0.50853  1.0000 0.4256951502
C   C153      1.0  0.56620  0.16470  0.02265  1.0000 0.5178890294
C   C154      1.0  0.43380  0.83530  0.52265  1.0000 0.5178890294
C   C155      1.0  0.33530  0.06620  0.27265  1.0000 0.5178890294
C   C156      1.0  0.66470  0.93380  0.77265  1.0000 0.5178890294
C   C157      1.0  0.93380  0.66470  0.22735  1.0000 0.5178890294
C   C158      1.0  0.06620  0.33530  0.72735  1.0000 0.5178890294
C   C159      1.0  0.16470  0.56620  0.97735  1.0000 0.5178890294
C   C160      1.0  0.83530  0.43380  0.47735  1.0000 0.5178890294
C   C161      1.0  0.18930  0.18980  0.21311  1.0000 0.5178890294
C   C162      1.0  0.81070  0.81020  0.71311  1.0000 0.5178890294
C   C163      1.0  0.31020  0.68930  0.46311  1.0000 0.5178890294
C   C164      1.0  0.68980  0.31070  0.96311  1.0000 0.5178890294
C   C165      1.0  0.31070  0.68980  0.03689  1.0000 0.5178890294
C   C166      1.0  0.68930  0.31020  0.53689  1.0000 0.5178890294
C   C167      1.0  0.18980  0.18930  0.78689  1.0000 0.5178890294
C   C168      1.0  0.81020  0.81070  0.28689  1.0000 0.5178890294
C   C169      1.0  0.24020  0.24750  0.21238  1.0000 0.5178890294
C   C170      1.0  0.75980  0.75250  0.71238  1.0000 0.5178890294
C   C171      1.0  0.25250  0.74020  0.46238  1.0000 0.5178890294
C   C172      1.0  0.74750  0.25980  0.96238  1.0000 0.5178890294
C   C173      1.0  0.25980  0.74750  0.03762  1.0000 0.5178890294
C   C174      1.0  0.74020  0.25250  0.53762  1.0000 0.5178890294
C   C175      1.0  0.24750  0.24020  0.78762  1.0000 0.5178890294
C   C176      1.0  0.75250  0.75980  0.28762  1.0000 0.5178890294
N   N1        1.0  0.32400  0.97320  0.97749  1.0000 -0.4285699032
N   N2        1.0  0.67600  0.02680  0.47749  1.0000 -0.4285699032
N   N3        1.0  0.52680  0.82400  0.22749  1.0000 -0.4285699032
N   N4        1.0  0.47320  0.17600  0.72749  1.0000 -0.4285699032
N   N5        1.0  0.17600  0.47320  0.27251  1.0000 -0.4285699032
N   N6        1.0  0.82400  0.52680  0.77251  1.0000 -0.4285699032
N   N7        1.0  0.97320  0.32400  0.02251  1.0000 -0.4285699032
N   N8        1.0  0.02680  0.67600  0.52251  1.0000 -0.4285699032
N   N9        1.0  0.36740  0.13190  0.07976  1.0000 -0.4285699032
N   N10       1.0  0.63260  0.86810  0.57976  1.0000 -0.4285699032
N   N11       1.0  0.36810  0.86740  0.32976  1.0000 -0.4285699032
N   N12       1.0  0.63190  0.13260  0.82976  1.0000 -0.4285699032
N   N13       1.0  0.13260  0.63190  0.17024  1.0000 -0.4285699032
N   N14       1.0  0.86740  0.36810  0.67024  1.0000 -0.4285699032
N   N15       1.0  0.13190  0.36740  0.92024  1.0000 -0.4285699032
N   N16       1.0  0.86810  0.63260  0.42024  1.0000 -0.4285699032
N   N17       1.0  0.32120  0.06450  0.90514  1.0000 -0.458864532
N   N18       1.0  0.67880  0.93550  0.40514  1.0000 -0.458864532
N   N19       1.0  0.43550  0.82120  0.15514  1.0000 -0.458864532
N   N20       1.0  0.56450  0.17880  0.65514  1.0000 -0.458864532
N   N21       1.0  0.17880  0.56450  0.34486  1.0000 -0.458864532
N   N22       1.0  0.82120  0.43550  0.84486  1.0000 -0.458864532
N   N23       1.0  0.06450  0.32120  0.09486  1.0000 -0.458864532
N   N24       1.0  0.93550  0.67880  0.59486  1.0000 -0.458864532
N   N25       1.0  0.45240  0.16700  0.00616  1.0000 -0.458864532
N   N26       1.0  0.54760  0.83300  0.50616  1.0000 -0.458864532
N   N27       1.0  0.33300  0.95240  0.25616  1.0000 -0.458864532
N   N28       1.0  0.66700  0.04760  0.75616  1.0000 -0.458864532
N   N29       1.0  0.04760  0.66700  0.24384  1.0000 -0.458864532
N   N30       1.0  0.95240  0.33300  0.74384  1.0000 -0.458864532
N   N31       1.0  0.16700  0.45240  0.99384  1.0000 -0.458864532
N   N32       1.0  0.83300  0.54760  0.49384  1.0000 -0.458864532
O   O1        1.0  0.62277  0.16160  0.01049  1.0000 -0.4513170022
O   O2        1.0  0.37723  0.83840  0.51049  1.0000 -0.458864532
O   O3        1.0  0.33840  0.12277  0.26049  1.0000 -0.4513170022
O   O4        1.0  0.66160  0.87723  0.76049  1.0000 -0.4513170022
O   O5        1.0  0.87723  0.66160  0.23951  1.0000 -0.4513170022
O   O6        1.0  0.12277  0.33840  0.73951  1.0000 -0.4513170022
O   O7        1.0  0.16160  0.62277  0.98951  1.0000 -0.4513170022
O   O8        1.0  0.83840  0.37723  0.48951  1.0000 -0.4513170022
O   O9        1.0  0.52798  0.16950  0.95693  1.0000 -0.4185303222
O   O10       1.0  0.47202  0.83050  0.45693  1.0000 -0.4185303222
O   O11       1.0  0.33050  0.02798  0.20693  1.0000 -0.4185303222
O   O12       1.0  0.66950  0.97202  0.70693  1.0000 -0.4185303222
O   O13       1.0  0.97202  0.66950  0.29307  1.0000 -0.4185303222
O   O14       1.0  0.02798  0.33050  0.79307  1.0000 -0.4185303222
O   O15       1.0  0.16950  0.52798  0.04307  1.0000 -0.4185303222
O   O16       1.0  0.83050  0.47202  0.54307  1.0000 -0.4185303222
O   O17       1.0  0.54940  0.16770  0.05775  1.0000 -0.4513170022
O   O18       1.0  0.45060  0.83230  0.55775  1.0000 -0.4513170022
O   O19       1.0  0.33230  0.04940  0.30775  1.0000 -0.4513170022
O   O20       1.0  0.66770  0.95060  0.80775  1.0000 -0.4513170022
O   O21       1.0  0.95060  0.66770  0.19225  1.0000 -0.4513170022
O   O22       1.0  0.04940  0.33230  0.69225  1.0000 -0.4513170022
O   O23       1.0  0.16770  0.54940  0.94225  1.0000 -0.4513170022
O   O24       1.0  0.83230  0.45060  0.44225  1.0000 -0.4513170022
O   O25       1.0  0.21230  0.13348  0.20900  1.0000 -0.4769322571
O   O26       1.0  0.78770  0.86652  0.70900  1.0000 -0.4769322571
O   O27       1.0  0.36652  0.71230  0.45900  1.0000 -0.4769322571
O   O28       1.0  0.63348  0.28770  0.95900  1.0000 -0.4769322571
O   O29       1.0  0.28770  0.63348  0.04100  1.0000 -0.4769322571
O   O30       1.0  0.71230  0.36652  0.54100  1.0000 -0.4769322571
O   O31       1.0  0.13348  0.21230  0.79100  1.0000 -0.4769322571
O   O32       1.0  0.86652  0.78770  0.29100  1.0000 -0.4769322571
O   O33       1.0  0.29850  0.23326  0.20693  1.0000 -0.4513170022
O   O34       1.0  0.70150  0.76674  0.70693  1.0000 -0.4513170022
O   O35       1.0  0.26674  0.79850  0.45693  1.0000 -0.4513170022
O   O36       1.0  0.73326  0.20150  0.95693  1.0000 -0.4513170022
O   O37       1.0  0.20150  0.73326  0.04307  1.0000 -0.4513170022
O   O38       1.0  0.79850  0.26674  0.54307  1.0000 -0.4513170022
O   O39       1.0  0.23326  0.29850  0.79307  1.0000 -0.4513170022
O   O40       1.0  0.76674  0.70150  0.29307  1.0000 -0.4513170022
O   O41       1.0  0.21930  0.30298  0.22000  1.0000 -0.4659807939
O   O42       1.0  0.78070  0.69702  0.72000  1.0000 -0.4659807939
O   O43       1.0  0.19702  0.71930  0.47000  1.0000 -0.4659807939
O   O44       1.0  0.80298  0.28070  0.97000  1.0000 -0.4659807939
O   O45       1.0  0.28070  0.80298  0.03000  1.0000 -0.4659807939
O   O46       1.0  0.71930  0.19702  0.53000  1.0000 -0.4659807939
O   O47       1.0  0.30298  0.21930  0.78000  1.0000 -0.4659807939
O   O48       1.0  0.69702  0.78070  0.28000  1.0000 -0.4659807939
O   O49       1.0  0.13080  0.20500  0.21551  1.0000 -0.4513170022
O   O50       1.0  0.86920  0.79500  0.71551  1.0000 -0.4513170022
O   O51       1.0  0.29500  0.63080  0.46551  1.0000 -0.4513170022
O   O52       1.0  0.70500  0.36920  0.96551  1.0000 -0.4513170022
O   O53       1.0  0.36920  0.70500  0.03449  1.0000 -0.4513170022
O   O54       1.0  0.63080  0.29500  0.53449  1.0000 -0.4513170022
O   O55       1.0  0.20500  0.13080  0.78449  1.0000 -0.4513170022
O   O56       1.0  0.79500  0.86920  0.28449  1.0000 -0.4513170022
O   O57       1.0  0.46530  0.18150  0.12044  1.0000 -0.458864532
O   O58       1.0  0.53470  0.81850  0.62044  1.0000 -0.458864532
O   O59       1.0  0.31850  0.96530  0.37044  1.0000 -0.458864532
O   O60       1.0  0.68150  0.03470  0.87044  1.0000 -0.458864532
O   O61       1.0  0.03470  0.68150  0.12956  1.0000 -0.458864532
O   O62       1.0  0.96530  0.31850  0.62956  1.0000 -0.458864532
O   O63       1.0  0.18150  0.46530  0.87956  1.0000 -0.4513170022
O   O64       1.0  0.81850  0.53470  0.37956  1.0000 -0.458864532
O   O65       1.0  0.39840  0.81979  0.97236  1.0000 -0.458864532
O   O66       1.0  0.60160  0.18021  0.47236  1.0000 -0.458864532
O   O67       1.0  0.68021  0.89840  0.22236  1.0000 -0.458864532
O   O68       1.0  0.31979  0.10160  0.72236  1.0000 -0.458864532
O   O69       1.0  0.10160  0.31979  0.27764  1.0000 -0.458864532
O   O70       1.0  0.89840  0.68021  0.77764  1.0000 -0.458864532
O   O71       1.0  0.81979  0.39840  0.02764  1.0000 -0.458864532
O   O72       1.0  0.18021  0.60160  0.52764  1.0000 -0.458864532
O   O73       1.0  0.37190  0.91179  0.02624  1.0000 -0.4422353844
O   O74       1.0  0.62810  0.08821  0.52624  1.0000 -0.4422353844
O   O75       1.0  0.58821  0.87190  0.27624  1.0000 -0.4422353844
O   O76       1.0  0.41179  0.12810  0.77624  1.0000 -0.4422353844
O   O77       1.0  0.12810  0.41179  0.22376  1.0000 -0.4422353844
O   O78       1.0  0.87190  0.58821  0.72376  1.0000 -0.4422353844
O   O79       1.0  0.91179  0.37190  0.97376  1.0000 -0.4422353844
O   O80       1.0  0.08821  0.62810  0.47376  1.0000 -0.4422353844
O   O81       1.0  0.31761  0.12606  0.84874  1.0000 -0.4108989049
O   O82       1.0  0.68239  0.87394  0.34874  1.0000 -0.4108989049
O   O83       1.0  0.37394  0.81761  0.09874  1.0000 -0.4108989049
O   O84       1.0  0.62606  0.18239  0.59874  1.0000 -0.4108989049
O   O85       1.0  0.18239  0.62606  0.40126  1.0000 -0.4108989049
O   O86       1.0  0.81761  0.37394  0.90126  1.0000 -0.4108989049
O   O87       1.0  0.12606  0.31761  0.15126  1.0000 -0.4108989049
O   O88       1.0  0.87394  0.68239  0.65126  1.0000 -0.4108989049
O   O89       1.0  0.30160  0.01380  0.80855  1.0000 -0.458864532
O   O90       1.0  0.69840  0.98620  0.30855  1.0000 -0.458864532
O   O91       1.0  0.48620  0.80160  0.05855  1.0000 -0.458864532
O   O92       1.0  0.51380  0.19840  0.55855  1.0000 -0.458864532
O   O93       1.0  0.19840  0.51380  0.44145  1.0000 -0.458864532
O   O94       1.0  0.80160  0.48620  0.94145  1.0000 -0.458864532
O   O95       1.0  0.01380  0.30160  0.19145  1.0000 -0.458864532
O   O96       1.0  0.98620  0.69840  0.69145  1.0000 -0.458864532
O   O97       1.0  0.30550  0.95690  0.86371  1.0000 -0.458864532
O   O98       1.0  0.69450  0.04310  0.36371  1.0000 -0.458864532
O   O99       1.0  0.54310  0.80550  0.11371  1.0000 -0.458864532
O   O100      1.0  0.45690  0.19450  0.61371  1.0000 -0.458864532
O   O101      1.0  0.19450  0.45690  0.38629  1.0000 -0.458864532
O   O102      1.0  0.80550  0.54310  0.88629  1.0000 -0.458864532
O   O103      1.0  0.95690  0.30550  0.13629  1.0000 -0.458864532
O   O104      1.0  0.04310  0.69450  0.63629  1.0000 -0.458864532
O   O105      1.0  0.35700  0.88200  0.92567  1.0000 -0.458864532
O   O106      1.0  0.64300  0.11800  0.42567  1.0000 -0.458864532
O   O107      1.0  0.61800  0.85700  0.17567  1.0000 -0.458864532
O   O108      1.0  0.38200  0.14300  0.67567  1.0000 -0.458864532
O   O109      1.0  0.14300  0.38200  0.32433  1.0000 -0.458864532
O   O110      1.0  0.85700  0.61800  0.82433  1.0000 -0.458864532
O   O111      1.0  0.88200  0.35700  0.07433  1.0000 -0.458864532
O   O112      1.0  0.11800  0.64300  0.57433  1.0000 -0.458864532
O   O113      1.0  0.41340  0.16380  0.17614  1.0000 -0.4513170022
O   O114      1.0  0.58660  0.83620  0.67614  1.0000 -0.4513170022
O   O115      1.0  0.33620  0.91340  0.42614  1.0000 -0.4513170022
O   O116      1.0  0.66380  0.08660  0.92614  1.0000 -0.4513170022
O   O117      1.0  0.08660  0.66380  0.07386  1.0000 -0.4513170022
O   O118      1.0  0.91340  0.33620  0.57386  1.0000 -0.4513170022
O   O119      1.0  0.16380  0.41340  0.82386  1.0000 -0.4513170022
O   O120      1.0  0.83620  0.58660  0.32386  1.0000 -0.4513170022
O   O121      1.0  0.30757  0.11697  0.13624  1.0000 -0.4513170022
O   O122      1.0  0.69243  0.88303  0.63624  1.0000 -0.4422353844
O   O123      1.0  0.38303  0.80757  0.38624  1.0000 -0.4422353844
O   O124      1.0  0.61697  0.19243  0.88624  1.0000 -0.4513170022
O   O125      1.0  0.19243  0.61697  0.11376  1.0000 -0.4513170022
O   O126      1.0  0.80757  0.38303  0.61376  1.0000 -0.4513170022
O   O127      1.0  0.11697  0.30757  0.86376  1.0000 -0.4422353844
O   O128      1.0  0.88303  0.69243  0.36376  1.0000 -0.4513170022
