# DDEC6 charges by PACMAN v1.1 (https://github.com/mtap-research/PACMAN-charge/)
data_2013[Zn][flu]3[ASR]2
_chemical_formula_sum              "Zn4 H12 C32 O16"
_cell_length_a       7.9974
_cell_length_b       10.3744
_cell_length_c       12.6106
_cell_angle_alpha    90.316
_cell_angle_beta     90.311
_cell_angle_gamma    107.047

_symmetry_space_group_name_H-M    "P 1"
_symmetry_Int_Tables_number       1

loop_
  _symmetry_equiv_pos_as_xyz
  'x, y, z'

loop_
  _atom_site_type_symbol
  _atom_site_label
  _atom_site_symmetry_multiplicity
  _atom_site_fract_x
  _atom_site_fract_y
  _atom_site_fract_z
  _atom_site_occupancy
  _atom_site_charge
Zn  Zn1       1.0  0.17760  0.12851  0.94333  1.0000 0.9391402097
Zn  Zn2       1.0  0.82240  0.87149  0.05667  1.0000 0.9391402097
Zn  Zn3       1.0  0.55635  0.21007  0.76248  1.0000 0.9391402097
Zn  Zn4       1.0  0.44365  0.78993  0.23752  1.0000 0.9391402097
H   H1        1.0  0.23930  0.75980  0.99500  1.0000 0.1321616909
H   H2        1.0  0.76070  0.24020  0.00500  1.0000 0.1321616909
H   H3        1.0  0.22020  0.53470  0.99420  1.0000 0.1227556483
H   H4        1.0  0.77980  0.46530  0.00580  1.0000 0.1227556483
H   H5        1.0  0.55830  0.59910  0.75340  1.0000 0.1321616909
H   H6        1.0  0.44170  0.40090  0.24660  1.0000 0.1321616909
H   H7        1.0  0.44070  0.76580  0.60070  1.0000 0.1321616909
H   H8        1.0  0.55930  0.23420  0.39930  1.0000 0.1321616909
H   H9        1.0  0.85790  0.04250  0.48700  1.0000 0.1227556483
H   H10       1.0  0.14210  0.95750  0.51300  1.0000 0.1227556483
H   H11       1.0  0.97180  0.08550  0.65410  1.0000 0.1352401616
H   H12       1.0  0.02820  0.91450  0.34590  1.0000 0.1352401616
C   C1        1.0  0.37920  0.39820  0.86660  1.0000 0.6123920919
C   C2        1.0  0.62080  0.60180  0.13340  1.0000 0.6123920919
C   C3        1.0  0.57950  0.86130  0.41450  1.0000 0.5505690815
C   C4        1.0  0.42050  0.13870  0.58550  1.0000 0.5505690815
C   C5        1.0  0.85920  0.97490  0.83770  1.0000 0.6123920919
C   C6        1.0  0.14080  0.02510  0.16230  1.0000 0.6123920919
C   C7        1.0  0.77610  0.95060  0.73140  1.0000 -0.0602272434
C   C8        1.0  0.22390  0.04940  0.26860  1.0000 -0.0602272434
C   C9        1.0  0.39970  0.96140  0.87680  1.0000 0.6123920919
C   C10       1.0  0.60030  0.03860  0.12320  1.0000 0.6123920919
C   C11       1.0  0.40510  0.81610  0.87350  1.0000 -0.0521511866
C   C12       1.0  0.59490  0.18390  0.12650  1.0000 -0.0521511866
C   C13       1.0  0.30270  0.72720  0.94540  1.0000 -0.1003732963
C   C14       1.0  0.69730  0.27280  0.05460  1.0000 -0.1003732963
C   C15       1.0  0.29150  0.59280  0.94590  1.0000 -0.1071504487
C   C16       1.0  0.70850  0.40720  0.05410  1.0000 -0.1071504487
C   C17       1.0  0.38900  0.54530  0.87300  1.0000 -0.0201802833
C   C18       1.0  0.61100  0.45470  0.12700  1.0000 -0.0201802833
C   C19       1.0  0.49470  0.63290  0.80210  1.0000 -0.1399511157
C   C20       1.0  0.50530  0.36710  0.19790  1.0000 -0.1399511157
C   C21       1.0  0.50960  0.76950  0.80090  1.0000 0.0594257598
C   C22       1.0  0.49040  0.23050  0.19910  1.0000 0.0594257598
C   C23       1.0  0.61170  0.85180  0.71510  1.0000 0.0594257598
C   C24       1.0  0.38830  0.14820  0.28490  1.0000 0.0594257598
C   C25       1.0  0.54870  0.82910  0.61280  1.0000 -0.1399511157
C   C26       1.0  0.45130  0.17090  0.38720  1.0000 -0.1399511157
C   C27       1.0  0.64170  0.89810  0.52650  1.0000 -0.0071763794
C   C28       1.0  0.35830  0.10190  0.47350  1.0000 -0.0071763794
C   C29       1.0  0.79730  0.99430  0.54390  1.0000 -0.1003732963
C   C30       1.0  0.20270  0.00570  0.45610  1.0000 -0.1003732963
C   C31       1.0  0.86490  0.02030  0.64380  1.0000 -0.1071504487
C   C32       1.0  0.13510  0.97970  0.35620  1.0000 -0.1071504487
O   O1        1.0  0.66740  0.91180  0.33740  1.0000 -0.5140864609
O   O2        1.0  0.33260  0.08820  0.66260  1.0000 -0.5140864609
O   O3        1.0  0.42980  0.78040  0.39970  1.0000 -0.5244219659
O   O4        1.0  0.57020  0.21960  0.60030  1.0000 -0.5244219659
O   O5        1.0  0.95880  0.09230  0.85900  1.0000 -0.5472835659
O   O6        1.0  0.04120  0.90770  0.14100  1.0000 -0.5472835659
O   O7        1.0  0.83130  0.87920  0.90130  1.0000 -0.5394248722
O   O8        1.0  0.16870  0.12080  0.09870  1.0000 -0.5394248722
O   O9        1.0  0.53750  0.05320  0.85360  1.0000 -0.5577518551
O   O10       1.0  0.46250  0.94680  0.14640  1.0000 -0.5577518551
O   O11       1.0  0.25840  0.97720  0.90450  1.0000 -0.5394248722
O   O12       1.0  0.74160  0.02280  0.09550  1.0000 -0.5394248722
O   O13       1.0  0.48210  0.36390  0.80680  1.0000 -0.5577518551
O   O14       1.0  0.51790  0.63610  0.19320  1.0000 -0.5577518551
O   O15       1.0  0.26750  0.32050  0.92590  1.0000 -0.5472835659
O   O16       1.0  0.73250  0.67950  0.07410  1.0000 -0.5472835659
