# DDEC6 charges by PACMAN v1.1 (https://github.com/mtap-research/PACMAN-charge/)
data_2013[Zn][nan]3[ASR]18
_chemical_formula_sum              "Zn16 H192 C240 N32 O64"
_cell_length_a       12.2241
_cell_length_b       31.2482
_cell_length_c       26.1964
_cell_angle_alpha    90
_cell_angle_beta     109.687
_cell_angle_gamma    90

_symmetry_space_group_name_H-M    "P 1"
_symmetry_Int_Tables_number       1

loop_
  _symmetry_equiv_pos_as_xyz
  'x, y, z'

loop_
  _atom_site_type_symbol
  _atom_site_label
  _atom_site_symmetry_multiplicity
  _atom_site_fract_x
  _atom_site_fract_y
  _atom_site_fract_z
  _atom_site_occupancy
  _atom_site_charge
Zn  Zn1       1.0  0.86571  0.26943  0.25502  1.0000 0.8181062729
Zn  Zn2       1.0  0.13429  0.76943  0.24498  1.0000 0.8181062729
Zn  Zn3       1.0  0.13429  0.73057  0.74498  1.0000 0.8181062729
Zn  Zn4       1.0  0.86571  0.23057  0.75502  1.0000 0.8181062729
Zn  Zn5       1.0  0.61899  0.25701  0.20862  1.0000 0.8181062729
Zn  Zn6       1.0  0.38101  0.75701  0.29138  1.0000 0.8181062729
Zn  Zn7       1.0  0.38101  0.74299  0.79138  1.0000 0.8181062729
Zn  Zn8       1.0  0.61899  0.24299  0.70862  1.0000 0.8181062729
Zn  Zn9       1.0  0.27472  0.13835  0.06772  1.0000 0.8465601966
Zn  Zn10      1.0  0.72528  0.63835  0.43228  1.0000 0.8465601966
Zn  Zn11      1.0  0.72528  0.86165  0.93228  1.0000 0.8449865148
Zn  Zn12      1.0  0.27472  0.36165  0.56772  1.0000 0.8465601966
Zn  Zn13      1.0  0.21887  0.12674  0.91518  1.0000 0.8465601966
Zn  Zn14      1.0  0.78113  0.62674  0.58482  1.0000 0.8465601966
Zn  Zn15      1.0  0.78113  0.87326  0.08482  1.0000 0.8465601966
Zn  Zn16      1.0  0.21887  0.37326  0.41518  1.0000 0.8465601966
H   H1        1.0  0.03670  0.34110  0.30930  1.0000 0.1198989334
H   H2        1.0  0.96330  0.84110  0.19070  1.0000 0.1198989334
H   H3        1.0  0.96330  0.65890  0.69070  1.0000 0.1198989334
H   H4        1.0  0.03670  0.15890  0.80930  1.0000 0.1198989334
H   H5        1.0  0.01840  0.31190  0.35610  1.0000 0.1118824472
H   H6        1.0  0.98160  0.81190  0.14390  1.0000 0.1118824472
H   H7        1.0  0.98160  0.68810  0.64390  1.0000 0.1118824472
H   H8        1.0  0.01840  0.18810  0.85610  1.0000 0.1118824472
H   H9        1.0  0.07230  0.21250  0.30470  1.0000 0.1118824472
H   H10       1.0  0.92770  0.71250  0.19530  1.0000 0.1118824472
H   H11       1.0  0.92770  0.78750  0.69530  1.0000 0.1118824472
H   H12       1.0  0.07230  0.28750  0.80470  1.0000 0.1118824472
H   H13       1.0  0.04100  0.23390  0.35360  1.0000 0.1118824472
H   H14       1.0  0.95900  0.73390  0.14640  1.0000 0.1118824472
H   H15       1.0  0.95900  0.76610  0.64640  1.0000 0.1118824472
H   H16       1.0  0.04100  0.26610  0.85360  1.0000 0.1118824472
H   H17       1.0  0.08580  0.30820  0.23500  1.0000 0.1118824472
H   H18       1.0  0.91420  0.80820  0.26500  1.0000 0.1118824472
H   H19       1.0  0.91420  0.69180  0.76500  1.0000 0.1118824472
H   H20       1.0  0.08580  0.19180  0.73500  1.0000 0.1118824472
H   H21       1.0  0.09880  0.25730  0.23310  1.0000 0.0994487541
H   H22       1.0  0.90120  0.75730  0.26690  1.0000 0.0994487541
H   H23       1.0  0.90120  0.74270  0.76690  1.0000 0.0994487541
H   H24       1.0  0.09880  0.24270  0.73310  1.0000 0.0994487541
H   H25       1.0  0.18410  0.27470  0.42050  1.0000 0.1118824472
H   H26       1.0  0.81590  0.77470  0.07950  1.0000 0.1118824472
H   H27       1.0  0.81590  0.72530  0.57950  1.0000 0.1118824472
H   H28       1.0  0.18410  0.22530  0.92050  1.0000 0.1118824472
H   H29       1.0  0.31130  0.28040  0.41660  1.0000 0.1118824472
H   H30       1.0  0.68870  0.78040  0.08340  1.0000 0.1118824472
H   H31       1.0  0.68870  0.71960  0.58340  1.0000 0.1118824472
H   H32       1.0  0.31130  0.21960  0.91660  1.0000 0.1118824472
H   H33       1.0  0.35630  0.24890  0.34250  1.0000 0.0994487541
H   H34       1.0  0.64370  0.74890  0.15750  1.0000 0.0994487541
H   H35       1.0  0.64370  0.75110  0.65750  1.0000 0.0994487541
H   H36       1.0  0.35630  0.25110  0.84250  1.0000 0.0994487541
H   H37       1.0  0.25910  0.22180  0.29770  1.0000 0.0994487541
H   H38       1.0  0.74090  0.72180  0.20230  1.0000 0.0994487541
H   H39       1.0  0.74090  0.77820  0.70230  1.0000 0.0994487541
H   H40       1.0  0.25910  0.27820  0.79770  1.0000 0.0994487541
H   H41       1.0  0.33880  0.32580  0.34530  1.0000 0.1118824472
H   H42       1.0  0.66120  0.82580  0.15470  1.0000 0.1118824472
H   H43       1.0  0.66120  0.67420  0.65470  1.0000 0.1118824472
H   H44       1.0  0.33880  0.17420  0.84530  1.0000 0.1118824472
H   H45       1.0  0.22960  0.34930  0.30270  1.0000 0.1118824472
H   H46       1.0  0.77040  0.84930  0.19730  1.0000 0.1118824472
H   H47       1.0  0.77040  0.65070  0.69730  1.0000 0.1118824472
H   H48       1.0  0.22960  0.15070  0.80270  1.0000 0.1118824472
H   H49       1.0  0.46020  0.18070  0.16380  1.0000 0.1198989334
H   H50       1.0  0.53980  0.68070  0.33620  1.0000 0.1198989334
H   H51       1.0  0.53980  0.81930  0.83620  1.0000 0.1198989334
H   H52       1.0  0.46020  0.31930  0.66380  1.0000 0.1198989334
H   H53       1.0  0.46340  0.20780  0.11250  1.0000 0.1118824472
H   H54       1.0  0.53660  0.70780  0.38750  1.0000 0.1118824472
H   H55       1.0  0.53660  0.79220  0.88750  1.0000 0.1118824472
H   H56       1.0  0.46340  0.29220  0.61250  1.0000 0.1118824472
H   H57       1.0  0.42460  0.28450  0.10800  1.0000 0.1118824472
H   H58       1.0  0.57540  0.78450  0.39200  1.0000 0.1118824472
H   H59       1.0  0.57540  0.71550  0.89200  1.0000 0.1118824472
H   H60       1.0  0.42460  0.21550  0.60800  1.0000 0.1118824472
H   H61       1.0  0.39770  0.30780  0.15700  1.0000 0.1118824472
H   H62       1.0  0.60230  0.80780  0.34300  1.0000 0.1118824472
H   H63       1.0  0.60230  0.69220  0.84300  1.0000 0.1118824472
H   H64       1.0  0.39770  0.19220  0.65700  1.0000 0.1118824472
H   H65       1.0  0.39200  0.26620  0.23530  1.0000 0.0994487541
H   H66       1.0  0.60800  0.76620  0.26470  1.0000 0.0994487541
H   H67       1.0  0.60800  0.73380  0.76470  1.0000 0.0994487541
H   H68       1.0  0.39200  0.23380  0.73530  1.0000 0.0994487541
H   H69       1.0  0.41670  0.21580  0.23800  1.0000 0.1118824472
H   H70       1.0  0.58330  0.71580  0.26200  1.0000 0.1118824472
H   H71       1.0  0.58330  0.78420  0.76200  1.0000 0.1118824472
H   H72       1.0  0.41670  0.28420  0.73800  1.0000 0.1118824472
H   H73       1.0  0.16410  0.22870  0.05800  1.0000 0.1118824472
H   H74       1.0  0.83590  0.72870  0.44200  1.0000 0.1118824472
H   H75       1.0  0.83590  0.77130  0.94200  1.0000 0.1118824472
H   H76       1.0  0.16410  0.27130  0.55800  1.0000 0.1118824472
H   H77       1.0  0.28570  0.23730  0.04920  1.0000 0.1118824472
H   H78       1.0  0.71430  0.73730  0.45080  1.0000 0.1118824472
H   H79       1.0  0.71430  0.76270  0.95080  1.0000 0.1118824472
H   H80       1.0  0.28570  0.26270  0.54920  1.0000 0.1118824472
H   H81       1.0  0.12380  0.26220  0.13260  1.0000 0.0994487541
H   H82       1.0  0.87620  0.76220  0.36740  1.0000 0.0994487541
H   H83       1.0  0.87620  0.73780  0.86740  1.0000 0.0994487541
H   H84       1.0  0.12380  0.23780  0.63260  1.0000 0.0994487541
H   H85       1.0  0.21720  0.29390  0.17220  1.0000 0.0994487541
H   H86       1.0  0.78280  0.79390  0.32780  1.0000 0.0994487541
H   H87       1.0  0.78280  0.70610  0.82780  1.0000 0.0994487541
H   H88       1.0  0.21720  0.20610  0.67220  1.0000 0.0994487541
H   H89       1.0  0.27740  0.16830  0.17910  1.0000 0.1118824472
H   H90       1.0  0.72260  0.66830  0.32090  1.0000 0.1118824472
H   H91       1.0  0.72260  0.83170  0.82090  1.0000 0.1198989334
H   H92       1.0  0.27740  0.33170  0.67910  1.0000 0.1118824472
H   H93       1.0  0.15900  0.18690  0.13710  1.0000 0.1118824472
H   H94       1.0  0.84100  0.68690  0.36290  1.0000 0.1118824472
H   H95       1.0  0.84100  0.81310  0.86290  1.0000 0.1118824472
H   H96       1.0  0.15900  0.31310  0.63710  1.0000 0.1118824472
H   H97       1.0  0.51320  0.39210  0.21300  1.0000 0.1118824472
H   H98       1.0  0.48680  0.89210  0.28700  1.0000 0.1118824472
H   H99       1.0  0.48680  0.60790  0.78700  1.0000 0.1118824472
H   H100      1.0  0.51320  0.10790  0.71300  1.0000 0.1118824472
H   H101      1.0  0.48590  0.46170  0.23580  1.0000 0.1271423229
H   H102      1.0  0.51410  0.96170  0.26420  1.0000 0.1271423229
H   H103      1.0  0.51410  0.53830  0.76420  1.0000 0.1271423229
H   H104      1.0  0.48590  0.03830  0.73580  1.0000 0.1271423229
H   H105      1.0  0.85750  0.39950  0.29940  1.0000 0.1271423229
H   H106      1.0  0.14250  0.89950  0.20060  1.0000 0.1271423229
H   H107      1.0  0.14250  0.60050  0.70060  1.0000 0.1271423229
H   H108      1.0  0.85750  0.10050  0.79940  1.0000 0.1271423229
H   H109      1.0  0.56600  0.52820  0.28890  1.0000 0.1198989334
H   H110      1.0  0.43400  0.02820  0.21110  1.0000 0.1118824472
H   H111      1.0  0.43400  0.47180  0.71110  1.0000 0.1198989334
H   H112      1.0  0.56600  0.97180  0.78890  1.0000 0.1198989334
H   H113      1.0  0.90660  0.53310  0.38140  1.0000 0.1198989334
H   H114      1.0  0.09340  0.03310  0.11860  1.0000 0.1198989334
H   H115      1.0  0.09340  0.46690  0.61860  1.0000 0.1198989334
H   H116      1.0  0.90660  0.96690  0.88140  1.0000 0.1198989334
H   H117      1.0  0.93670  0.46590  0.35150  1.0000 0.1271423229
H   H118      1.0  0.06330  0.96590  0.14850  1.0000 0.1271423229
H   H119      1.0  0.06330  0.53410  0.64850  1.0000 0.1271423229
H   H120      1.0  0.93670  0.03410  0.85150  1.0000 0.1271423229
H   H121      1.0  0.97640  0.14010  0.23910  1.0000 0.1118824472
H   H122      1.0  0.02360  0.64010  0.26090  1.0000 0.1118824472
H   H123      1.0  0.02360  0.85990  0.76090  1.0000 0.1118824472
H   H124      1.0  0.97640  0.35990  0.73910  1.0000 0.1118824472
H   H125      1.0  0.01020  0.06960  0.22370  1.0000 0.1198989334
H   H126      1.0  0.98980  0.56960  0.27630  1.0000 0.1198989334
H   H127      1.0  0.98980  0.93040  0.77630  1.0000 0.1198989334
H   H128      1.0  0.01020  0.43040  0.72370  1.0000 0.1198989334
H   H129      1.0  0.62990  0.11830  0.19160  1.0000 0.1271423229
H   H130      1.0  0.37010  0.61830  0.30840  1.0000 0.1271423229
H   H131      1.0  0.37010  0.88170  0.80840  1.0000 0.1271423229
H   H132      1.0  0.62990  0.38170  0.69160  1.0000 0.1271423229
H   H133      1.0  0.93320  0.99580  0.19410  1.0000 0.1198989334
H   H134      1.0  0.06680  0.49580  0.30590  1.0000 0.1198989334
H   H135      1.0  0.06680  0.00420  0.80590  1.0000 0.1198989334
H   H136      1.0  0.93320  0.50420  0.69410  1.0000 0.1198989334
H   H137      1.0  0.58570  0.97590  0.13970  1.0000 0.1198989334
H   H138      1.0  0.41430  0.47590  0.36030  1.0000 0.1198989334
H   H139      1.0  0.41430  0.02410  0.86030  1.0000 0.1198989334
H   H140      1.0  0.58570  0.52410  0.63970  1.0000 0.1198989334
H   H141      1.0  0.55310  0.04570  0.15830  1.0000 0.1271423229
H   H142      1.0  0.44690  0.54570  0.34170  1.0000 0.1271423229
H   H143      1.0  0.44690  0.95430  0.84170  1.0000 0.1271423229
H   H144      1.0  0.55310  0.45430  0.65830  1.0000 0.1271423229
H   H145      1.0  0.93990  0.28740  0.10630  1.0000 0.1118824472
H   H146      1.0  0.06010  0.78740  0.39370  1.0000 0.1118824472
H   H147      1.0  0.06010  0.71260  0.89370  1.0000 0.1118824472
H   H148      1.0  0.93990  0.21260  0.60630  1.0000 0.1118824472
H   H149      1.0  0.96410  0.28450  0.02300  1.0000 0.1118824472
H   H150      1.0  0.03590  0.78450  0.47700  1.0000 0.1118824472
H   H151      1.0  0.03590  0.71550  0.97700  1.0000 0.1118824472
H   H152      1.0  0.96410  0.21550  0.52300  1.0000 0.1118824472
H   H153      1.0  0.60260  0.25280  0.03950  1.0000 0.1198989334
H   H154      1.0  0.39740  0.75280  0.46050  1.0000 0.1198989334
H   H155      1.0  0.39740  0.74720  0.96050  1.0000 0.1198989334
H   H156      1.0  0.60260  0.24720  0.53950  1.0000 0.1198989334
H   H157      1.0  0.88270  0.26740  0.92310  1.0000 0.1198989334
H   H158      1.0  0.11730  0.76740  0.57690  1.0000 0.1198989334
H   H159      1.0  0.11730  0.73260  0.07690  1.0000 0.1198989334
H   H160      1.0  0.88270  0.23260  0.42310  1.0000 0.1198989334
H   H161      1.0  0.54410  0.23530  0.85690  1.0000 0.1118824472
H   H162      1.0  0.45590  0.73530  0.64310  1.0000 0.1118824472
H   H163      1.0  0.45590  0.76470  0.14310  1.0000 0.1118824472
H   H164      1.0  0.54410  0.26470  0.35690  1.0000 0.1118824472
H   H165      1.0  0.51940  0.24060  0.94010  1.0000 0.1118824472
H   H166      1.0  0.48060  0.74060  0.55990  1.0000 0.1118824472
H   H167      1.0  0.48060  0.75940  0.05990  1.0000 0.1118824472
H   H168      1.0  0.51940  0.25940  0.44010  1.0000 0.1118824472
H   H169      1.0  0.63710  0.14970  0.09680  1.0000 0.1198989334
H   H170      1.0  0.36290  0.64970  0.40320  1.0000 0.1198989334
H   H171      1.0  0.36290  0.85030  0.90320  1.0000 0.1198989334
H   H172      1.0  0.63710  0.35030  0.59680  1.0000 0.1198989334
H   H173      1.0  0.82720  0.15280  0.09860  1.0000 0.1198989334
H   H174      1.0  0.17280  0.65280  0.40140  1.0000 0.1198989334
H   H175      1.0  0.17280  0.84720  0.90140  1.0000 0.1198989334
H   H176      1.0  0.82720  0.34720  0.59860  1.0000 0.1198989334
H   H177      1.0  0.52260  0.14020  0.93260  1.0000 0.1198989334
H   H178      1.0  0.47740  0.64020  0.56740  1.0000 0.1198989334
H   H179      1.0  0.47740  0.85980  0.06740  1.0000 0.1198989334
H   H180      1.0  0.52260  0.35980  0.43260  1.0000 0.1198989334
H   H181      1.0  0.97050  0.15270  0.04980  1.0000 0.1198989334
H   H182      1.0  0.02950  0.65270  0.45020  1.0000 0.1198989334
H   H183      1.0  0.02950  0.84730  0.95020  1.0000 0.1198989334
H   H184      1.0  0.97050  0.34730  0.54980  1.0000 0.1198989334
H   H185      1.0  0.85670  0.13670  0.88650  1.0000 0.1198989334
H   H186      1.0  0.14330  0.63670  0.61350  1.0000 0.1198989334
H   H187      1.0  0.14330  0.86330  0.11350  1.0000 0.1198989334
H   H188      1.0  0.85670  0.36330  0.38650  1.0000 0.1198989334
H   H189      1.0  0.66740  0.13620  0.88410  1.0000 0.1198989334
H   H190      1.0  0.33260  0.63620  0.61590  1.0000 0.1198989334
H   H191      1.0  0.33260  0.86380  0.11590  1.0000 0.1198989334
H   H192      1.0  0.66740  0.36380  0.38410  1.0000 0.1198989334
C   C1        1.0  0.06346  0.31490  0.33116  1.0000 -0.0288188944
C   C2        1.0  0.93654  0.81490  0.16884  1.0000 -0.0288188944
C   C3        1.0  0.93654  0.68510  0.66884  1.0000 -0.0288188944
C   C4        1.0  0.06346  0.18510  0.83116  1.0000 -0.0288188944
C   C5        1.0  0.08552  0.23792  0.32862  1.0000 -0.0288188944
C   C6        1.0  0.91448  0.73792  0.17138  1.0000 -0.0288188944
C   C7        1.0  0.91448  0.76208  0.67138  1.0000 -0.0288188944
C   C8        1.0  0.08552  0.26208  0.82862  1.0000 -0.0288188944
C   C9        1.0  0.11188  0.28231  0.25758  1.0000 -0.0288188944
C   C10       1.0  0.88812  0.78231  0.24242  1.0000 -0.0288188944
C   C11       1.0  0.88812  0.71769  0.74242  1.0000 -0.0288188944
C   C12       1.0  0.11188  0.21769  0.75758  1.0000 -0.0288188944
C   C13       1.0  0.22757  0.27836  0.39497  1.0000 -0.0288188944
C   C14       1.0  0.77243  0.77836  0.10503  1.0000 -0.0288188944
C   C15       1.0  0.77243  0.72164  0.60503  1.0000 -0.0288188944
C   C16       1.0  0.22757  0.22164  0.89497  1.0000 -0.0288188944
C   C17       1.0  0.27205  0.24709  0.32185  1.0000 -0.0288188944
C   C18       1.0  0.72795  0.74709  0.17815  1.0000 -0.0288188944
C   C19       1.0  0.72795  0.75291  0.67815  1.0000 -0.0288188944
C   C20       1.0  0.27205  0.25291  0.82185  1.0000 -0.0288188944
C   C21       1.0  0.25475  0.32305  0.32465  1.0000 -0.0288188944
C   C22       1.0  0.74525  0.82305  0.17535  1.0000 -0.0212205542
C   C23       1.0  0.74525  0.67695  0.67535  1.0000 -0.0288188944
C   C24       1.0  0.25475  0.17695  0.82465  1.0000 -0.0288188944
C   C25       1.0  0.42439  0.20506  0.13989  1.0000 -0.0288188944
C   C26       1.0  0.57561  0.70506  0.36011  1.0000 -0.0288188944
C   C27       1.0  0.57561  0.79494  0.86011  1.0000 -0.0288188944
C   C28       1.0  0.42439  0.29494  0.63989  1.0000 -0.0288188944
C   C29       1.0  0.38673  0.28095  0.13573  1.0000 -0.0288188944
C   C30       1.0  0.61327  0.78095  0.36427  1.0000 -0.0288188944
C   C31       1.0  0.61327  0.71905  0.86427  1.0000 -0.0288188944
C   C32       1.0  0.38673  0.21905  0.63573  1.0000 -0.0288188944
C   C33       1.0  0.38165  0.23982  0.21325  1.0000 -0.0288188944
C   C34       1.0  0.61835  0.73982  0.28675  1.0000 -0.0288188944
C   C35       1.0  0.61835  0.76018  0.78675  1.0000 -0.0288188944
C   C36       1.0  0.38165  0.26018  0.71325  1.0000 -0.0288188944
C   C37       1.0  0.24790  0.23387  0.07700  1.0000 -0.0288188944
C   C38       1.0  0.75210  0.73387  0.42300  1.0000 -0.0288188944
C   C39       1.0  0.75210  0.76613  0.92300  1.0000 -0.0288188944
C   C40       1.0  0.24790  0.26613  0.57700  1.0000 -0.0288188944
C   C41       1.0  0.20806  0.26730  0.15056  1.0000 -0.0288188944
C   C42       1.0  0.79194  0.76730  0.34944  1.0000 -0.0288188944
C   C43       1.0  0.79194  0.73270  0.84944  1.0000 -0.0288188944
C   C44       1.0  0.20806  0.23270  0.65056  1.0000 -0.0288188944
C   C45       1.0  0.24298  0.19268  0.15478  1.0000 -0.0288188944
C   C46       1.0  0.75702  0.69268  0.34522  1.0000 -0.0288188944
C   C47       1.0  0.75702  0.80732  0.84522  1.0000 -0.0288188944
C   C48       1.0  0.24298  0.30732  0.65478  1.0000 -0.0288188944
C   C49       1.0  0.70629  0.34344  0.24149  1.0000 0.5876747922
C   C50       1.0  0.29371  0.84344  0.25851  1.0000 0.5876747922
C   C51       1.0  0.29371  0.65656  0.75851  1.0000 0.5876747922
C   C52       1.0  0.70629  0.15656  0.74149  1.0000 0.5876747922
C   C53       1.0  0.68924  0.38908  0.25434  1.0000 -0.0212205542
C   C54       1.0  0.31076  0.88908  0.24566  1.0000 -0.0212205542
C   C55       1.0  0.31076  0.61092  0.74566  1.0000 -0.0212205542
C   C56       1.0  0.68924  0.11092  0.75434  1.0000 -0.0212205542
C   C57       1.0  0.57736  0.40810  0.23556  1.0000 -0.1292902216
C   C58       1.0  0.42264  0.90810  0.26444  1.0000 -0.1292902216
C   C59       1.0  0.42264  0.59190  0.76444  1.0000 -0.1292902216
C   C60       1.0  0.57736  0.09190  0.73556  1.0000 -0.1292902216
C   C61       1.0  0.56093  0.44915  0.24963  1.0000 -0.1496423526
C   C62       1.0  0.43907  0.94915  0.25037  1.0000 -0.1496423526
C   C63       1.0  0.43907  0.55085  0.75037  1.0000 -0.1496423526
C   C64       1.0  0.56093  0.05085  0.74963  1.0000 -0.1496423526
C   C65       1.0  0.65485  0.47321  0.28465  1.0000 0.081797945
C   C66       1.0  0.34515  0.97321  0.21535  1.0000 0.081797945
C   C67       1.0  0.34515  0.52679  0.71535  1.0000 0.081797945
C   C68       1.0  0.65485  0.02679  0.78465  1.0000 0.081797945
C   C69       1.0  0.76734  0.45439  0.30374  1.0000 0.081797945
C   C70       1.0  0.23266  0.95439  0.19626  1.0000 0.081797945
C   C71       1.0  0.23266  0.54561  0.69626  1.0000 0.081797945
C   C72       1.0  0.76734  0.04561  0.80374  1.0000 0.081797945
C   C73       1.0  0.78238  0.41210  0.28738  1.0000 -0.1496423526
C   C74       1.0  0.21762  0.91210  0.21262  1.0000 -0.1496423526
C   C75       1.0  0.21762  0.58790  0.71262  1.0000 -0.1496423526
C   C76       1.0  0.78238  0.08790  0.78738  1.0000 -0.1496423526
C   C77       1.0  0.64017  0.51491  0.30217  1.0000 -0.1596630078
C   C78       1.0  0.35983  0.01491  0.19783  1.0000 -0.1596630078
C   C79       1.0  0.35983  0.48509  0.69783  1.0000 -0.1596630078
C   C80       1.0  0.64017  0.98509  0.80217  1.0000 -0.1596630078
C   C81       1.0  0.73183  0.53663  0.33823  1.0000 -0.0120191522
C   C82       1.0  0.26817  0.03663  0.16177  1.0000 -0.0120191522
C   C83       1.0  0.26817  0.46337  0.66177  1.0000 -0.0120191522
C   C84       1.0  0.73183  0.96337  0.83823  1.0000 -0.0120191522
C   C85       1.0  0.84340  0.51793  0.35680  1.0000 -0.1213388875
C   C86       1.0  0.15660  0.01793  0.14320  1.0000 -0.1083463594
C   C87       1.0  0.15660  0.48207  0.64320  1.0000 -0.1083463594
C   C88       1.0  0.84340  0.98207  0.85680  1.0000 -0.1213388875
C   C89       1.0  0.86081  0.47791  0.33941  1.0000 -0.1496423526
C   C90       1.0  0.13919  0.97791  0.16059  1.0000 -0.1496423526
C   C91       1.0  0.13919  0.52209  0.66059  1.0000 -0.1496423526
C   C92       1.0  0.86081  0.02209  0.83941  1.0000 -0.1496423526
C   C93       1.0  0.70984  0.57856  0.36124  1.0000 0.5486894712
C   C94       1.0  0.29016  0.07856  0.13876  1.0000 0.5486894712
C   C95       1.0  0.29016  0.42144  0.63876  1.0000 0.5486894712
C   C96       1.0  0.70984  0.92144  0.86124  1.0000 0.5486894712
C   C97       1.0  0.77772  0.18220  0.22482  1.0000 0.5837711856
C   C98       1.0  0.22228  0.68220  0.27518  1.0000 0.5837711856
C   C99       1.0  0.22228  0.81780  0.77518  1.0000 0.5837711856
C   C100      1.0  0.77772  0.31780  0.72482  1.0000 0.5837711856
C   C101      1.0  0.79826  0.13612  0.21646  1.0000 -0.0288188944
C   C102      1.0  0.20174  0.63612  0.28354  1.0000 -0.0288188944
C   C103      1.0  0.20174  0.86388  0.78354  1.0000 -0.0288188944
C   C104      1.0  0.79826  0.36388  0.71646  1.0000 -0.0288188944
C   C105      1.0  0.91269  0.12095  0.22609  1.0000 -0.1292902216
C   C106      1.0  0.08731  0.62095  0.27391  1.0000 -0.1292902216
C   C107      1.0  0.08731  0.87905  0.77391  1.0000 -0.1292902216
C   C108      1.0  0.91269  0.37905  0.72609  1.0000 -0.1292902216
C   C109      1.0  0.93285  0.07915  0.21695  1.0000 -0.1496423526
C   C110      1.0  0.06715  0.57915  0.28305  1.0000 -0.1496423526
C   C111      1.0  0.06715  0.92085  0.78305  1.0000 -0.1496423526
C   C112      1.0  0.93285  0.42085  0.71695  1.0000 -0.1496423526
C   C113      1.0  0.84009  0.04996  0.19759  1.0000 0.081797945
C   C114      1.0  0.15991  0.54996  0.30241  1.0000 0.081797945
C   C115      1.0  0.15991  0.95004  0.80241  1.0000 0.081797945
C   C116      1.0  0.84009  0.45004  0.69759  1.0000 0.081797945
C   C117      1.0  0.72404  0.06482  0.18734  1.0000 0.081797945
C   C118      1.0  0.27596  0.56482  0.31266  1.0000 0.081797945
C   C119      1.0  0.27596  0.93518  0.81266  1.0000 0.081797945
C   C120      1.0  0.72404  0.43518  0.68734  1.0000 0.081797945
C   C121      1.0  0.70661  0.10824  0.19771  1.0000 -0.1496423526
C   C122      1.0  0.29339  0.60824  0.30229  1.0000 -0.1496423526
C   C123      1.0  0.29339  0.89176  0.80229  1.0000 -0.1496423526
C   C124      1.0  0.70661  0.39176  0.69771  1.0000 -0.1496423526
C   C125      1.0  0.85659  0.00651  0.18639  1.0000 -0.1596630078
C   C126      1.0  0.14341  0.50651  0.31361  1.0000 -0.1596630078
C   C127      1.0  0.14341  0.99349  0.81361  1.0000 -0.1596630078
C   C128      1.0  0.85659  0.49349  0.68639  1.0000 -0.1596630078
C   C129      1.0  0.76344  0.97952  0.16454  1.0000 -0.0120191522
C   C130      1.0  0.23656  0.47952  0.33546  1.0000 -0.0120191522
C   C131      1.0  0.23656  0.02048  0.83546  1.0000 -0.0120191522
C   C132      1.0  0.76344  0.52048  0.66454  1.0000 -0.0120191522
C   C133      1.0  0.64969  0.99468  0.15439  1.0000 -0.1083463594
C   C134      1.0  0.35031  0.49468  0.34561  1.0000 -0.1083463594
C   C135      1.0  0.35031  0.00532  0.84561  1.0000 -0.1083463594
C   C136      1.0  0.64969  0.50532  0.65439  1.0000 -0.1083463594
C   C137      1.0  0.63054  0.03604  0.16544  1.0000 -0.1403164351
C   C138      1.0  0.36946  0.53604  0.33456  1.0000 -0.1403164351
C   C139      1.0  0.36946  0.96396  0.83456  1.0000 -0.1403164351
C   C140      1.0  0.63054  0.46396  0.66544  1.0000 -0.1403164351
C   C141      1.0  0.78428  0.93582  0.14558  1.0000 0.5486894712
C   C142      1.0  0.21572  0.43582  0.35442  1.0000 0.5486894712
C   C143      1.0  0.21572  0.06418  0.85442  1.0000 0.5486894712
C   C144      1.0  0.78428  0.56418  0.64558  1.0000 0.5486894712
C   C145      1.0  0.75602  0.27007  0.13622  1.0000 0.5876747922
C   C146      1.0  0.24398  0.77007  0.36378  1.0000 0.5876747922
C   C147      1.0  0.24398  0.72993  0.86378  1.0000 0.5876747922
C   C148      1.0  0.75602  0.22993  0.63622  1.0000 0.5876747922
C   C149      1.0  0.76777  0.26980  0.08067  1.0000 -0.0212205542
C   C150      1.0  0.23223  0.76980  0.41933  1.0000 -0.0212205542
C   C151      1.0  0.23223  0.73020  0.91933  1.0000 -0.0212205542
C   C152      1.0  0.76777  0.23020  0.58067  1.0000 -0.0212205542
C   C153      1.0  0.87632  0.27953  0.07522  1.0000 -0.1292902216
C   C154      1.0  0.12368  0.77953  0.42478  1.0000 -0.1292902216
C   C155      1.0  0.12368  0.72047  0.92478  1.0000 -0.1292902216
C   C156      1.0  0.87632  0.22047  0.57522  1.0000 -0.1292902216
C   C157      1.0  0.89071  0.27779  0.02591  1.0000 -0.1596630078
C   C158      1.0  0.10929  0.77779  0.47409  1.0000 -0.1596630078
C   C159      1.0  0.10929  0.72221  0.97409  1.0000 -0.1596630078
C   C160      1.0  0.89071  0.22221  0.52591  1.0000 -0.1596630078
C   C161      1.0  0.79705  0.26602  0.97885  1.0000 0.081797945
C   C162      1.0  0.20295  0.76602  0.52115  1.0000 0.081797945
C   C163      1.0  0.20295  0.73398  0.02115  1.0000 0.081797945
C   C164      1.0  0.79705  0.23398  0.47885  1.0000 0.081797945
C   C165      1.0  0.68736  0.25711  0.98416  1.0000 0.081797945
C   C166      1.0  0.31264  0.75711  0.51584  1.0000 0.081797945
C   C167      1.0  0.31264  0.74289  0.01584  1.0000 0.081797945
C   C168      1.0  0.68736  0.24289  0.48416  1.0000 0.081797945
C   C169      1.0  0.67563  0.25905  0.03583  1.0000 -0.1496423526
C   C170      1.0  0.32437  0.75905  0.46417  1.0000 -0.1496423526
C   C171      1.0  0.32437  0.74095  0.96417  1.0000 -0.1496423526
C   C172      1.0  0.67563  0.24095  0.53583  1.0000 -0.1496423526
C   C173      1.0  0.80928  0.26219  0.92688  1.0000 -0.1596630078
C   C174      1.0  0.19072  0.76219  0.57312  1.0000 -0.1596630078
C   C175      1.0  0.19072  0.73781  0.07312  1.0000 -0.1596630078
C   C176      1.0  0.80928  0.23781  0.42688  1.0000 -0.1596630078
C   C177      1.0  0.71707  0.25118  0.88237  1.0000 -0.0212205542
C   C178      1.0  0.28293  0.75118  0.61763  1.0000 -0.0212205542
C   C179      1.0  0.28293  0.74882  0.11763  1.0000 -0.0212205542
C   C180      1.0  0.71707  0.24882  0.38237  1.0000 -0.0212205542
C   C181      1.0  0.60818  0.24303  0.88788  1.0000 -0.1213388875
C   C182      1.0  0.39182  0.74303  0.61212  1.0000 -0.1213388875
C   C183      1.0  0.39182  0.75697  0.11212  1.0000 -0.1213388875
C   C184      1.0  0.60818  0.25697  0.38788  1.0000 -0.1213388875
C   C185      1.0  0.59361  0.24606  0.93731  1.0000 -0.1596630078
C   C186      1.0  0.40639  0.74606  0.56269  1.0000 -0.1596630078
C   C187      1.0  0.40639  0.75394  0.06269  1.0000 -0.1596630078
C   C188      1.0  0.59361  0.25394  0.43731  1.0000 -0.1596630078
C   C189      1.0  0.73037  0.24637  0.82797  1.0000 0.5876747922
C   C190      1.0  0.26963  0.74637  0.67203  1.0000 0.5876747922
C   C191      1.0  0.26963  0.75363  0.17203  1.0000 0.5876747922
C   C192      1.0  0.73037  0.25363  0.32797  1.0000 0.5876747922
C   C193      1.0  0.43913  0.14530  0.01213  1.0000 0.5876747922
C   C194      1.0  0.56087  0.64530  0.48787  1.0000 0.5876747922
C   C195      1.0  0.56087  0.85470  0.98787  1.0000 0.5876747922
C   C196      1.0  0.43913  0.35470  0.51213  1.0000 0.5876747922
C   C197      1.0  0.56164  0.14557  0.01334  1.0000 -0.0288188944
C   C198      1.0  0.43836  0.64557  0.48666  1.0000 -0.0288188944
C   C199      1.0  0.43836  0.85443  0.98666  1.0000 -0.0288188944
C   C200      1.0  0.56164  0.35443  0.51334  1.0000 -0.0288188944
C   C201      1.0  0.65368  0.14868  0.06388  1.0000 -0.1083463594
C   C202      1.0  0.34632  0.64868  0.43612  1.0000 -0.1083463594
C   C203      1.0  0.34632  0.85132  0.93612  1.0000 -0.1083463594
C   C204      1.0  0.65368  0.35132  0.56388  1.0000 -0.1083463594
C   C205      1.0  0.76610  0.15020  0.06490  1.0000 -0.1403164351
C   C206      1.0  0.23390  0.65020  0.43510  1.0000 -0.1403164351
C   C207      1.0  0.23390  0.84980  0.93510  1.0000 -0.1403164351
C   C208      1.0  0.76610  0.34980  0.56490  1.0000 -0.1403164351
C   C209      1.0  0.79257  0.14793  0.01657  1.0000 0.081797945
C   C210      1.0  0.20743  0.64793  0.48343  1.0000 0.081797945
C   C211      1.0  0.20743  0.85207  0.98343  1.0000 0.081797945
C   C212      1.0  0.79257  0.35207  0.51657  1.0000 0.081797945
C   C213      1.0  0.70090  0.14332  0.96620  1.0000 0.081797945
C   C214      1.0  0.29910  0.64332  0.53380  1.0000 0.081797945
C   C215      1.0  0.29910  0.85668  0.03380  1.0000 0.081797945
C   C216      1.0  0.70090  0.35668  0.46620  1.0000 0.081797945
C   C217      1.0  0.58490  0.14266  0.96600  1.0000 -0.1596630078
C   C218      1.0  0.41510  0.64266  0.53400  1.0000 -0.1596630078
C   C219      1.0  0.41510  0.85734  0.03400  1.0000 -0.1596630078
C   C220      1.0  0.58490  0.35734  0.46600  1.0000 -0.1596630078
C   C221      1.0  0.90839  0.14912  0.01659  1.0000 -0.1596630078
C   C222      1.0  0.09161  0.64912  0.48341  1.0000 -0.1596630078
C   C223      1.0  0.09161  0.85088  0.98341  1.0000 -0.1596630078
C   C224      1.0  0.90839  0.35088  0.51659  1.0000 -0.1596630078
C   C225      1.0  0.93184  0.14510  0.96924  1.0000 -0.0288188944
C   C226      1.0  0.06816  0.64510  0.53076  1.0000 -0.0288188944
C   C227      1.0  0.06816  0.85490  0.03076  1.0000 -0.0288188944
C   C228      1.0  0.93184  0.35490  0.46924  1.0000 -0.0288188944
C   C229      1.0  0.83981  0.13987  0.91911  1.0000 -0.1047021433
C   C230      1.0  0.16019  0.63987  0.58089  1.0000 -0.1047021433
C   C231      1.0  0.16019  0.86013  0.08089  1.0000 -0.1047021433
C   C232      1.0  0.83981  0.36013  0.41911  1.0000 -0.1047021433
C   C233      1.0  0.72837  0.13933  0.91787  1.0000 -0.1403164351
C   C234      1.0  0.27163  0.63933  0.58213  1.0000 -0.1292902216
C   C235      1.0  0.27163  0.86067  0.08213  1.0000 -0.1403164351
C   C236      1.0  0.72837  0.36067  0.41787  1.0000 -0.1403164351
C   C237      1.0  0.05383  0.14533  0.97023  1.0000 0.5876747922
C   C238      1.0  0.94617  0.64533  0.52977  1.0000 0.5876747922
C   C239      1.0  0.94617  0.85467  0.02977  1.0000 0.5876747922
C   C240      1.0  0.05383  0.35467  0.47023  1.0000 0.5876747922
N   N1        1.0  0.04184  0.27725  0.29464  1.0000 -0.1797567789
N   N2        1.0  0.95816  0.77725  0.20536  1.0000 -0.1797567789
N   N3        1.0  0.95816  0.72275  0.70536  1.0000 -0.1797567789
N   N4        1.0  0.04184  0.22275  0.79464  1.0000 -0.1797567789
N   N5        1.0  0.18925  0.31902  0.36335  1.0000 -0.1892743244
N   N6        1.0  0.81075  0.81902  0.13665  1.0000 -0.1892743244
N   N7        1.0  0.81075  0.68098  0.63665  1.0000 -0.1892743244
N   N8        1.0  0.18925  0.18098  0.86335  1.0000 -0.1892743244
N   N9        1.0  0.20843  0.24131  0.35983  1.0000 -0.1403164351
N   N10       1.0  0.79157  0.74131  0.14017  1.0000 -0.1403164351
N   N11       1.0  0.79157  0.75869  0.64017  1.0000 -0.1403164351
N   N12       1.0  0.20843  0.25869  0.85983  1.0000 -0.1403164351
N   N13       1.0  0.23558  0.28593  0.28858  1.0000 -0.1797567789
N   N14       1.0  0.76442  0.78593  0.21142  1.0000 -0.1797567789
N   N15       1.0  0.76442  0.71407  0.71142  1.0000 -0.1797567789
N   N16       1.0  0.23558  0.21407  0.78858  1.0000 -0.1797567789
N   N17       1.0  0.44332  0.24473  0.17272  1.0000 -0.1797567789
N   N18       1.0  0.55668  0.74473  0.32728  1.0000 -0.1797567789
N   N19       1.0  0.55668  0.75527  0.82728  1.0000 -0.1797567789
N   N20       1.0  0.44332  0.25527  0.67272  1.0000 -0.1797567789
N   N21       1.0  0.29960  0.19608  0.11210  1.0000 -0.1892743244
N   N22       1.0  0.70040  0.69608  0.38790  1.0000 -0.1892743244
N   N23       1.0  0.70040  0.80392  0.88790  1.0000 -0.1892743244
N   N24       1.0  0.29960  0.30392  0.61210  1.0000 -0.1892743244
N   N25       1.0  0.26258  0.27330  0.10878  1.0000 -0.1496423526
N   N26       1.0  0.73742  0.77330  0.39122  1.0000 -0.1496423526
N   N27       1.0  0.73742  0.72670  0.89122  1.0000 -0.1496423526
N   N28       1.0  0.26258  0.22670  0.60878  1.0000 -0.1496423526
N   N29       1.0  0.25786  0.23172  0.18676  1.0000 -0.1733451917
N   N30       1.0  0.74214  0.73172  0.31324  1.0000 -0.1733451917
N   N31       1.0  0.74214  0.76828  0.81324  1.0000 -0.1733451917
N   N32       1.0  0.25786  0.26828  0.68676  1.0000 -0.1733451917
O   O1        1.0  0.80724  0.32840  0.26114  1.0000 -0.5418282359
O   O2        1.0  0.19276  0.82840  0.23886  1.0000 -0.5418282359
O   O3        1.0  0.19276  0.67160  0.73886  1.0000 -0.5418282359
O   O4        1.0  0.80724  0.17160  0.76114  1.0000 -0.5418282359
O   O5        1.0  0.61834  0.32284  0.21224  1.0000 -0.5511399343
O   O6        1.0  0.38166  0.82284  0.28776  1.0000 -0.5511399343
O   O7        1.0  0.38166  0.67716  0.78776  1.0000 -0.5511399343
O   O8        1.0  0.61834  0.17716  0.71224  1.0000 -0.5511399343
O   O9        1.0  0.61687  0.59795  0.34147  1.0000 -0.5511399343
O   O10       1.0  0.38313  0.09795  0.15853  1.0000 -0.5511399343
O   O11       1.0  0.38313  0.40205  0.65853  1.0000 -0.5511399343
O   O12       1.0  0.61687  0.90205  0.84147  1.0000 -0.5511399343
O   O13       1.0  0.79289  0.59228  0.40349  1.0000 -0.5592875316
O   O14       1.0  0.20711  0.09228  0.09651  1.0000 -0.5592875316
O   O15       1.0  0.20711  0.40772  0.59651  1.0000 -0.5592875316
O   O16       1.0  0.79289  0.90772  0.90349  1.0000 -0.5592875316
O   O17       1.0  0.86631  0.20606  0.23901  1.0000 -0.5511399343
O   O18       1.0  0.13369  0.70606  0.26099  1.0000 -0.5511399343
O   O19       1.0  0.13369  0.79394  0.76099  1.0000 -0.5511399343
O   O20       1.0  0.86631  0.29394  0.73901  1.0000 -0.5511399343
O   O21       1.0  0.67541  0.19435  0.21641  1.0000 -0.5418282359
O   O22       1.0  0.32459  0.69435  0.28359  1.0000 -0.5418282359
O   O23       1.0  0.32459  0.80565  0.78359  1.0000 -0.5418282359
O   O24       1.0  0.67541  0.30565  0.71641  1.0000 -0.5418282359
O   O25       1.0  0.69648  0.91656  0.11348  1.0000 -0.5418282359
O   O26       1.0  0.30352  0.41656  0.38652  1.0000 -0.5418282359
O   O27       1.0  0.30352  0.08344  0.88652  1.0000 -0.5418282359
O   O28       1.0  0.69648  0.58344  0.61348  1.0000 -0.5418282359
O   O29       1.0  0.88322  0.92059  0.15802  1.0000 -0.5511399343
O   O30       1.0  0.11678  0.42059  0.34198  1.0000 -0.5511399343
O   O31       1.0  0.11678  0.07941  0.84198  1.0000 -0.5511399343
O   O32       1.0  0.88322  0.57941  0.65802  1.0000 -0.5511399343
O   O33       1.0  0.84518  0.27969  0.17558  1.0000 -0.5418282359
O   O34       1.0  0.15482  0.77969  0.32442  1.0000 -0.5418282359
O   O35       1.0  0.15482  0.72031  0.82442  1.0000 -0.5418282359
O   O36       1.0  0.84518  0.22031  0.67558  1.0000 -0.5418282359
O   O37       1.0  0.65855  0.25982  0.13955  1.0000 -0.5511399343
O   O38       1.0  0.34145  0.75982  0.36045  1.0000 -0.5511399343
O   O39       1.0  0.34145  0.74018  0.86045  1.0000 -0.5511399343
O   O40       1.0  0.65855  0.24018  0.63955  1.0000 -0.5511399343
O   O41       1.0  0.63678  0.24303  0.78828  1.0000 -0.5511399343
O   O42       1.0  0.36322  0.74303  0.71172  1.0000 -0.5511399343
O   O43       1.0  0.36322  0.75697  0.21172  1.0000 -0.5511399343
O   O44       1.0  0.63678  0.25697  0.28828  1.0000 -0.5511399343
O   O45       1.0  0.83072  0.24614  0.82501  1.0000 -0.5418282359
O   O46       1.0  0.16928  0.74614  0.67499  1.0000 -0.5418282359
O   O47       1.0  0.16928  0.75386  0.17499  1.0000 -0.5418282359
O   O48       1.0  0.83072  0.25386  0.32501  1.0000 -0.5418282359
O   O49       1.0  0.42320  0.13738  0.05642  1.0000 -0.5418282359
O   O50       1.0  0.57680  0.63738  0.44358  1.0000 -0.5418282359
O   O51       1.0  0.57680  0.86262  0.94358  1.0000 -0.5418282359
O   O52       1.0  0.42320  0.36262  0.55642  1.0000 -0.5418282359
O   O53       1.0  0.35969  0.15361  0.96824  1.0000 -0.5799572303
O   O54       1.0  0.64031  0.65361  0.53176  1.0000 -0.5799572303
O   O55       1.0  0.64031  0.84639  0.03176  1.0000 -0.5799572303
O   O56       1.0  0.35969  0.34639  0.46824  1.0000 -0.5799572303
O   O57       1.0  0.07156  0.13131  0.92866  1.0000 -0.5330574646
O   O58       1.0  0.92844  0.63131  0.57134  1.0000 -0.5330574646
O   O59       1.0  0.92844  0.86869  0.07134  1.0000 -0.5330574646
O   O60       1.0  0.07156  0.36869  0.42866  1.0000 -0.5330574646
O   O61       1.0  0.13243  0.15950  0.01175  1.0000 -0.5866961762
O   O62       1.0  0.86757  0.65950  0.48825  1.0000 -0.5866961762
O   O63       1.0  0.86757  0.84050  0.98825  1.0000 -0.5866961762
O   O64       1.0  0.13243  0.34050  0.51175  1.0000 -0.5866961762
