# DDEC6 charges by PACMAN v1.1 (https://github.com/mtap-research/PACMAN-charge/)
data_2013[Er][nan]3[ASR]1
_chemical_formula_sum              "Er8 H40 C114 O50 F36"
_cell_length_a       8.0722
_cell_length_b       21.2247
_cell_length_c       22.7899
_cell_angle_alpha    82.622
_cell_angle_beta     82.404
_cell_angle_gamma    80.079

_symmetry_space_group_name_H-M    "P 1"
_symmetry_Int_Tables_number       1

loop_
  _symmetry_equiv_pos_as_xyz
  'x, y, z'

loop_
  _atom_site_type_symbol
  _atom_site_label
  _atom_site_symmetry_multiplicity
  _atom_site_fract_x
  _atom_site_fract_y
  _atom_site_fract_z
  _atom_site_occupancy
  _atom_site_charge
Er  Er1       1.0  0.19764  0.57546  0.71577  1.0000 2.063935834
Er  Er2       1.0  0.80236  0.42454  0.28423  1.0000 2.063935834
Er  Er3       1.0  0.61348  0.52890  0.56690  1.0000 2.0836143671
Er  Er4       1.0  0.38652  0.47110  0.43310  1.0000 2.0836143671
Er  Er5       1.0  0.53561  0.75095  0.90428  1.0000 2.065306264
Er  Er6       1.0  0.46439  0.24905  0.09572  1.0000 2.065306264
Er  Er7       1.0  0.76040  0.90639  0.96361  1.0000 2.0836143671
Er  Er8       1.0  0.23960  0.09361  0.03639  1.0000 2.0836143671
H   H1        1.0  0.61510  0.01500  0.91440  1.0000 0.344811785
H   H2        1.0  0.38490  0.98500  0.08560  1.0000 0.3459885297
H   H3        1.0  0.72480  0.05330  0.91970  1.0000 0.3894886552
H   H4        1.0  0.27520  0.94670  0.08030  1.0000 0.3894886552
H   H5        1.0  0.43850  0.35510  0.74680  1.0000 0.1192985195
H   H6        1.0  0.56150  0.64490  0.25320  1.0000 0.1192985195
H   H7        1.0  0.47010  0.28550  0.56160  1.0000 0.1292284954
H   H8        1.0  0.52990  0.71450  0.43840  1.0000 0.1292284954
H   H9        1.0  0.55590  0.21330  0.63970  1.0000 0.1192985195
H   H10       1.0  0.44410  0.78670  0.36030  1.0000 0.1192985195
H   H11       1.0  0.59830  0.22980  0.87500  1.0000 0.1292284954
H   H12       1.0  0.40170  0.77020  0.12500  1.0000 0.1292284954
H   H13       1.0  0.03040  0.25250  0.84930  1.0000 0.1192985195
H   H14       1.0  0.96960  0.74750  0.15070  1.0000 0.1192985195
H   H15       1.0  0.23130  0.25440  0.76710  1.0000 0.1192985195
H   H16       1.0  0.76870  0.74560  0.23290  1.0000 0.1192985195
H   H17       1.0  0.66160  0.71850  0.56900  1.0000 0.1292284954
H   H18       1.0  0.33840  0.28150  0.43100  1.0000 0.1292284954
H   H19       1.0  0.66220  0.81330  0.73960  1.0000 0.1192985195
H   H20       1.0  0.33780  0.18670  0.26040  1.0000 0.1192985195
H   H21       1.0  0.76450  0.86340  0.64880  1.0000 0.1192985195
H   H22       1.0  0.23550  0.13660  0.35120  1.0000 0.1192985195
H   H23       1.0  0.02140  0.73020  0.58440  1.0000 0.1292284954
H   H24       1.0  0.97860  0.26980  0.41560  1.0000 0.1292284954
H   H25       1.0  0.01920  0.68850  0.39010  1.0000 0.1192985195
H   H26       1.0  0.98080  0.31150  0.60990  1.0000 0.1192985195
H   H27       1.0  0.86470  0.78270  0.42190  1.0000 0.1192985195
H   H28       1.0  0.13530  0.21730  0.57810  1.0000 0.1192985195
H   H29       1.0  0.35150  0.91040  0.78310  1.0000 0.1292284954
H   H30       1.0  0.64850  0.08960  0.21690  1.0000 0.1292284954
H   H31       1.0  0.15490  0.11520  0.83680  1.0000 0.1192985195
H   H32       1.0  0.84510  0.88480  0.16320  1.0000 0.1192985195
H   H33       1.0  0.10090  0.08830  0.74660  1.0000 0.1136544971
H   H34       1.0  0.89910  0.91170  0.25340  1.0000 0.1136544971
H   H35       1.0  0.96530  0.92770  0.78460  1.0000 0.1292284954
H   H36       1.0  0.03470  0.07230  0.21540  1.0000 0.1292284954
H   H37       1.0  0.22640  0.75400  0.68560  1.0000 0.1192985195
H   H38       1.0  0.77360  0.24600  0.31440  1.0000 0.1192985195
H   H39       1.0  0.28160  0.85620  0.64930  1.0000 0.1192985195
H   H40       1.0  0.71840  0.14380  0.35070  1.0000 0.1192985195
C   C1        1.0  0.56600  0.23151  0.75622  1.0000 -0.2798181819
C   C2        1.0  0.43400  0.76849  0.24378  1.0000 -0.2798181819
C   C3        1.0  0.50880  0.27654  0.70212  1.0000 0.070436327
C   C4        1.0  0.49120  0.72346  0.29788  1.0000 0.070436327
C   C5        1.0  0.44960  0.34139  0.70915  1.0000 -0.1597660096
C   C6        1.0  0.55040  0.65861  0.29085  1.0000 -0.1597660096
C   C7        1.0  0.40730  0.38567  0.66114  1.0000 0.003309147
C   C8        1.0  0.59270  0.61433  0.33886  1.0000 0.003309147
C   C9        1.0  0.41510  0.36441  0.60470  1.0000 -0.0328344473
C   C10       1.0  0.58490  0.63559  0.39530  1.0000 -0.0328344473
C   C11       1.0  0.46780  0.29986  0.59860  1.0000 -0.0898373788
C   C12       1.0  0.53220  0.70014  0.40140  1.0000 -0.0898373788
C   C13       1.0  0.51720  0.25617  0.64552  1.0000 -0.1597660096
C   C14       1.0  0.48280  0.74383  0.35448  1.0000 -0.1597660096
C   C15       1.0  0.34550  0.45443  0.67317  1.0000 0.6362126647
C   C16       1.0  0.65450  0.54557  0.32683  1.0000 0.6362126647
C   C17       1.0  0.37980  0.40847  0.54995  1.0000 0.6243465124
C   C18       1.0  0.62020  0.59153  0.45005  1.0000 0.6243465124
C   C19       1.0  0.43780  0.23933  0.81179  1.0000 0.070436327
C   C20       1.0  0.56220  0.76067  0.18821  1.0000 0.070436327
C   C21       1.0  0.48480  0.23308  0.86961  1.0000 -0.1507213497
C   C22       1.0  0.51520  0.76692  0.13039  1.0000 -0.1507213497
C   C23       1.0  0.36350  0.23167  0.91890  1.0000 -0.0328344473
C   C24       1.0  0.63650  0.76833  0.08110  1.0000 -0.0328344473
C   C25       1.0  0.19370  0.23568  0.91196  1.0000 -0.0218105002
C   C26       1.0  0.80630  0.76432  0.08804  1.0000 -0.0218105002
C   C27       1.0  0.14470  0.24634  0.85454  1.0000 -0.1163655342
C   C28       1.0  0.85530  0.75366  0.14546  1.0000 -0.1163655342
C   C29       1.0  0.26550  0.24775  0.80513  1.0000 -0.1307646343
C   C30       1.0  0.73450  0.75225  0.19487  1.0000 -0.1307646343
C   C31       1.0  0.41730  0.22762  0.97917  1.0000 0.6299421965
C   C32       1.0  0.58270  0.77238  0.02083  1.0000 0.6299421965
C   C33       1.0  0.05860  0.22660  0.96336  1.0000 0.6112474381
C   C34       1.0  0.94140  0.77340  0.03664  1.0000 0.6112474381
C   C35       1.0  0.74210  0.24550  0.76497  1.0000 0.6669020949
C   C36       1.0  0.25790  0.75450  0.23503  1.0000 0.6625455632
C   C37       1.0  0.58500  0.15923  0.74581  1.0000 0.6625455632
C   C38       1.0  0.41500  0.84077  0.25419  1.0000 0.6625455632
C   C39       1.0  0.80220  0.82088  0.53631  1.0000 -0.2798181819
C   C40       1.0  0.19780  0.17912  0.46369  1.0000 -0.2798181819
C   C41       1.0  0.72730  0.79477  0.59886  1.0000 0.070436327
C   C42       1.0  0.27270  0.20523  0.40114  1.0000 0.070436327
C   C43       1.0  0.66390  0.73733  0.60349  1.0000 -0.1597660096
C   C44       1.0  0.33610  0.26267  0.39651  1.0000 -0.1597660096
C   C45       1.0  0.60370  0.70698  0.65819  1.0000 -0.0103716403
C   C46       1.0  0.39630  0.29302  0.34181  1.0000 -0.0103716403
C   C47       1.0  0.60890  0.73563  0.71042  1.0000 -0.0328344473
C   C48       1.0  0.39110  0.26437  0.28958  1.0000 -0.0351470662
C   C49       1.0  0.66480  0.79352  0.70529  1.0000 -0.0818215543
C   C50       1.0  0.33520  0.20648  0.29471  1.0000 -0.0818215543
C   C51       1.0  0.72580  0.82432  0.65073  1.0000 -0.1597660096
C   C52       1.0  0.27420  0.17568  0.34927  1.0000 -0.1597660096
C   C53       1.0  0.53220  0.64601  0.65878  1.0000 0.6669020949
C   C54       1.0  0.46780  0.35399  0.34122  1.0000 0.6669020949
C   C55       1.0  0.57530  0.69898  0.77100  1.0000 0.6299421965
C   C56       1.0  0.42470  0.30102  0.22900  1.0000 0.6299421965
C   C57       1.0  0.91690  0.76442  0.50818  1.0000 0.0763103841
C   C58       1.0  0.08310  0.23558  0.49182  1.0000 0.0763103841
C   C59       1.0  0.01780  0.72129  0.54571  1.0000 -0.1507213497
C   C60       1.0  0.98220  0.27871  0.45429  1.0000 -0.1507213497
C   C61       1.0  0.11280  0.66539  0.52601  1.0000 -0.0103716403
C   C62       1.0  0.88720  0.33461  0.47399  1.0000 -0.0103716403
C   C63       1.0  0.10680  0.65149  0.46817  1.0000 -0.0218105002
C   C64       1.0  0.89320  0.34851  0.53183  1.0000 -0.0218105002
C   C65       1.0  0.01670  0.69635  0.42941  1.0000 -0.0818215543
C   C66       1.0  0.98330  0.30365  0.57059  1.0000 -0.0818215543
C   C67       1.0  0.92300  0.75280  0.44844  1.0000 -0.1597660096
C   C68       1.0  0.07700  0.24720  0.55156  1.0000 -0.1597660096
C   C69       1.0  0.21820  0.62124  0.56961  1.0000 0.6775146602
C   C70       1.0  0.78180  0.37876  0.43039  1.0000 0.6775146602
C   C71       1.0  0.18120  0.58682  0.45026  1.0000 0.567980188
C   C72       1.0  0.81880  0.41318  0.54974  1.0000 0.567980188
C   C73       1.0  0.64900  0.85012  0.50080  1.0000 0.6669020949
C   C74       1.0  0.35100  0.14988  0.49920  1.0000 0.6669020949
C   C75       1.0  0.90970  0.87396  0.53711  1.0000 0.6625455632
C   C76       1.0  0.09030  0.12604  0.46289  1.0000 0.6625455632
C   C77       1.0  0.17400  0.97220  0.69920  1.0000 -0.2875538291
C   C78       1.0  0.82600  0.02780  0.30080  1.0000 -0.2875538291
C   C79       1.0  0.21530  0.99573  0.75665  1.0000 0.070436327
C   C80       1.0  0.78470  0.00427  0.24335  1.0000 0.070436327
C   C81       1.0  0.31040  0.95129  0.79444  1.0000 -0.1307646343
C   C82       1.0  0.68960  0.04871  0.20556  1.0000 -0.1307646343
C   C83       1.0  0.34560  0.96615  0.84859  1.0000 -0.0596560696
C   C84       1.0  0.65440  0.03385  0.15141  1.0000 -0.0596560696
C   C85       1.0  0.28390  0.02854  0.86485  1.0000 0.006398377
C   C86       1.0  0.71610  0.97146  0.13515  1.0000 0.006398377
C   C87       1.0  0.19340  0.07386  0.82636  1.0000 -0.109733087
C   C88       1.0  0.80660  0.92614  0.17364  1.0000 -0.109733087
C   C89       1.0  0.16020  0.05761  0.77232  1.0000 -0.1383138792
C   C90       1.0  0.83980  0.94239  0.22768  1.0000 -0.1383138792
C   C91       1.0  0.43360  0.91464  0.88964  1.0000 0.6625455632
C   C92       1.0  0.56640  0.08536  0.11036  1.0000 0.6625455632
C   C93       1.0  0.28410  0.04590  0.92683  1.0000 0.5813561855
C   C94       1.0  0.71590  0.95410  0.07317  1.0000 0.5813561855
C   C95       1.0  0.13550  0.90297  0.71528  1.0000 0.070436327
C   C96       1.0  0.86450  0.09703  0.28472  1.0000 0.070436327
C   C97       1.0  0.02100  0.89257  0.76539  1.0000 -0.1507213497
C   C98       1.0  0.97900  0.10743  0.23461  1.0000 -0.1507213497
C   C99       1.0  0.98690  0.83159  0.78768  1.0000 -0.0351470662
C   C100      1.0  0.01310  0.16841  0.21232  1.0000 -0.0351470662
C   C101      1.0  0.07120  0.77801  0.75888  1.0000 -0.0103716403
C   C102      1.0  0.92880  0.22199  0.24112  1.0000 -0.0103716403
C   C103      1.0  0.17680  0.78863  0.70647  1.0000 -0.0898373788
C   C104      1.0  0.82320  0.21137  0.29353  1.0000 -0.0898373788
C   C105      1.0  0.21020  0.85021  0.68440  1.0000 -0.1507213497
C   C106      1.0  0.78980  0.14979  0.31560  1.0000 -0.1507213497
C   C107      1.0  0.85570  0.82641  0.83989  1.0000 0.6775146602
C   C108      1.0  0.14430  0.17359  0.16011  1.0000 0.6775146602
C   C109      1.0  0.07030  0.70918  0.78657  1.0000 0.6299421965
C   C110      1.0  0.92970  0.29082  0.21343  1.0000 0.6299421965
C   C111      1.0  0.32990  0.97761  0.65293  1.0000 0.6625455632
C   C112      1.0  0.67010  0.02239  0.34707  1.0000 0.6625455632
C   C113      1.0  0.01840  0.01360  0.67392  1.0000 0.6625455632
C   C114      1.0  0.98160  0.98640  0.32608  1.0000 0.6625455632
O   O1        1.0  0.20410  0.46564  0.70424  1.0000 -0.6404064915
O   O2        1.0  0.79590  0.53436  0.29576  1.0000 -0.6404064915
O   O3        1.0  0.43080  0.49892  0.65658  1.0000 -0.6906562668
O   O4        1.0  0.56920  0.50108  0.34342  1.0000 -0.6906562668
O   O5        1.0  0.43580  0.46230  0.54172  1.0000 -0.7231740774
O   O6        1.0  0.56420  0.53770  0.45828  1.0000 -0.7231740774
O   O7        1.0  0.30720  0.39153  0.51070  1.0000 -0.5908420207
O   O8        1.0  0.69280  0.60847  0.48930  1.0000 -0.5908420207
O   O9        1.0  0.35020  0.19276  0.02302  1.0000 -0.7674369039
O   O10       1.0  0.64980  0.80724  0.97698  1.0000 -0.7674369039
O   O11       1.0  0.52280  0.26200  0.98832  1.0000 -0.6214540424
O   O12       1.0  0.47720  0.73800  0.01168  1.0000 -0.6214540424
O   O13       1.0  0.05570  0.16899  0.98635  1.0000 -0.6791166188
O   O14       1.0  0.94430  0.83101  0.01365  1.0000 -0.6791166188
O   O15       1.0  0.95300  0.27321  0.97838  1.0000 -0.4540407331
O   O16       1.0  0.04700  0.72679  0.02162  1.0000 -0.4540407331
O   O17       1.0  0.38800  0.64430  0.68610  1.0000 -0.6791166188
O   O18       1.0  0.61200  0.35570  0.31390  1.0000 -0.6791166188
O   O19       1.0  0.62140  0.60291  0.63073  1.0000 -0.6495425822
O   O20       1.0  0.37860  0.39709  0.36927  1.0000 -0.6495425822
O   O21       1.0  0.50100  0.73011  0.81297  1.0000 -0.698791212
O   O22       1.0  0.49900  0.26989  0.18703  1.0000 -0.698791212
O   O23       1.0  0.62730  0.63928  0.77604  1.0000 -0.5027101757
O   O24       1.0  0.37270  0.36072  0.22396  1.0000 -0.5027101757
O   O25       1.0  0.14240  0.60690  0.62102  1.0000 -0.6906562668
O   O26       1.0  0.85760  0.39310  0.37898  1.0000 -0.698791212
O   O27       1.0  0.37120  0.60337  0.55293  1.0000 -0.6495425822
O   O28       1.0  0.62880  0.39663  0.44707  1.0000 -0.6495425822
O   O29       1.0  0.25120  0.57880  0.39781  1.0000 -0.6404064915
O   O30       1.0  0.74880  0.42120  0.60219  1.0000 -0.6404064915
O   O31       1.0  0.17450  0.53923  0.48985  1.0000 -0.5952971401
O   O32       1.0  0.82550  0.46077  0.51015  1.0000 -0.5952971401
O   O33       1.0  0.44100  0.85763  0.87908  1.0000 -0.6495425822
O   O34       1.0  0.55900  0.14237  0.12092  1.0000 -0.6495425822
O   O35       1.0  0.49040  0.93187  0.93352  1.0000 -0.6594628813
O   O36       1.0  0.50960  0.06813  0.06648  1.0000 -0.6594628813
O   O37       1.0  0.38900  0.07858  0.93963  1.0000 -0.6594628813
O   O38       1.0  0.61100  0.92142  0.06037  1.0000 -0.6594628813
O   O39       1.0  0.16510  0.03021  0.96514  1.0000 -0.6134386482
O   O40       1.0  0.83490  0.96979  0.03486  1.0000 -0.6134386482
O   O41       1.0  0.76350  0.78449  0.84353  1.0000 -0.6404064915
O   O42       1.0  0.23650  0.21551  0.15647  1.0000 -0.6404064915
O   O43       1.0  0.83980  0.86907  0.87606  1.0000 -0.7079342426
O   O44       1.0  0.16020  0.13093  0.12394  1.0000 -0.7079342426
O   O45       1.0  0.06770  0.66702  0.75321  1.0000 -0.698791212
O   O46       1.0  0.93230  0.33298  0.24679  1.0000 -0.698791212
O   O47       1.0  0.08020  0.69832  0.84209  1.0000 -0.5027101757
O   O48       1.0  0.91980  0.30168  0.15791  1.0000 -0.5058222832
O   O49       1.0  0.71890  0.01308  0.91872  1.0000 -0.7827773513
O   O50       1.0  0.28110  0.98692  0.08128  1.0000 -0.7827773513
F   F1        1.0  0.84330  0.24906  0.71340  1.0000 -0.1981961762
F   F2        1.0  0.15670  0.75094  0.28660  1.0000 -0.1981961762
F   F3        1.0  0.82660  0.19868  0.80164  1.0000 -0.2097220889
F   F4        1.0  0.17340  0.80132  0.19836  1.0000 -0.2097220889
F   F5        1.0  0.73230  0.30013  0.78794  1.0000 -0.1918889026
F   F6        1.0  0.26770  0.69987  0.21206  1.0000 -0.1918889026
F   F7        1.0  0.71430  0.14247  0.70456  1.0000 -0.2097220889
F   F8        1.0  0.28570  0.85753  0.29544  1.0000 -0.2097220889
F   F9        1.0  0.44470  0.14690  0.72759  1.0000 -0.1918889026
F   F10       1.0  0.55530  0.85310  0.27241  1.0000 -0.1918889026
F   F11       1.0  0.61120  0.12007  0.79566  1.0000 -0.1981961762
F   F12       1.0  0.38880  0.87993  0.20434  1.0000 -0.1981961762
F   F13       1.0  0.56660  0.80407  0.48986  1.0000 -0.1918889026
F   F14       1.0  0.43340  0.19593  0.51014  1.0000 -0.1918889026
F   F15       1.0  0.53740  0.89067  0.53174  1.0000 -0.1918889026
F   F16       1.0  0.46260  0.10933  0.46826  1.0000 -0.1981961762
F   F17       1.0  0.69530  0.88135  0.44852  1.0000 -0.2097220889
F   F18       1.0  0.30470  0.11865  0.55148  1.0000 -0.2097220889
F   F19       1.0  0.99060  0.88823  0.48298  1.0000 -0.1981961762
F   F20       1.0  0.00940  0.11177  0.51702  1.0000 -0.1981961762
F   F21       1.0  0.81900  0.92843  0.55392  1.0000 -0.1981961762
F   F22       1.0  0.18100  0.07157  0.44608  1.0000 -0.1981961762
F   F23       1.0  0.02850  0.85472  0.57399  1.0000 -0.1918889026
F   F24       1.0  0.97150  0.14528  0.42601  1.0000 -0.1918889026
F   F25       1.0  0.37630  0.03543  0.64858  1.0000 -0.1981961762
F   F26       1.0  0.62370  0.96457  0.35142  1.0000 -0.1981961762
F   F27       1.0  0.46340  0.93498  0.66857  1.0000 -0.1918889026
F   F28       1.0  0.53660  0.06502  0.33143  1.0000 -0.1918889026
F   F29       1.0  0.30280  0.96761  0.59861  1.0000 -0.1981961762
F   F30       1.0  0.69720  0.03239  0.40139  1.0000 -0.1981961762
F   F31       1.0  0.04310  0.07288  0.65079  1.0000 -0.1981961762
F   F32       1.0  0.95690  0.92712  0.34921  1.0000 -0.1981961762
F   F33       1.0  0.88640  0.02047  0.71647  1.0000 -0.1981961762
F   F34       1.0  0.11360  0.97953  0.28353  1.0000 -0.1981961762
F   F35       1.0  0.96980  0.98618  0.63096  1.0000 -0.1981961762
F   F36       1.0  0.03020  0.01382  0.36904  1.0000 -0.1981961762
