# DDEC6 charges by PACMAN v1.1 (https://github.com/mtap-research/PACMAN-charge/)
data_2013[Y][nan]3[ASR]3
_chemical_formula_sum              "Y8 H24 C84 O48"
_cell_length_a       9.8605
_cell_length_b       29.21
_cell_length_c       10.8652
_cell_angle_alpha    90
_cell_angle_beta     92.203
_cell_angle_gamma    90

_symmetry_space_group_name_H-M    "P 1"
_symmetry_Int_Tables_number       1

loop_
  _symmetry_equiv_pos_as_xyz
  'x, y, z'

loop_
  _atom_site_type_symbol
  _atom_site_label
  _atom_site_symmetry_multiplicity
  _atom_site_fract_x
  _atom_site_fract_y
  _atom_site_fract_z
  _atom_site_occupancy
  _atom_site_charge
Y   Y1        1.0  0.54552  0.58145  0.04159  1.0000 1.7887348857
Y   Y2        1.0  0.45448  0.08145  0.45841  1.0000 1.7887348857
Y   Y3        1.0  0.45448  0.41855  0.95841  1.0000 1.7887348857
Y   Y4        1.0  0.54552  0.91855  0.54159  1.0000 1.7887348857
Y   Y5        1.0  0.54043  0.74834  0.76331  1.0000 1.7492620375
Y   Y6        1.0  0.45957  0.24834  0.73669  1.0000 1.7492620375
Y   Y7        1.0  0.45957  0.25166  0.23669  1.0000 1.7492620375
Y   Y8        1.0  0.54043  0.75166  0.26331  1.0000 1.7492620375
H   H1        1.0  0.98670  0.59250  0.16440  1.0000 0.1267219719
H   H2        1.0  0.01330  0.09250  0.33560  1.0000 0.1267219719
H   H3        1.0  0.01330  0.40750  0.83560  1.0000 0.1267219719
H   H4        1.0  0.98670  0.90750  0.66440  1.0000 0.1267219719
H   H5        1.0  0.21900  0.60730  0.16440  1.0000 0.1267219719
H   H6        1.0  0.78100  0.10730  0.33560  1.0000 0.1267219719
H   H7        1.0  0.78100  0.39270  0.83560  1.0000 0.1267219719
H   H8        1.0  0.21900  0.89270  0.66440  1.0000 0.1267219719
H   H9        1.0  0.09370  0.79010  0.84450  1.0000 0.1267219719
H   H10       1.0  0.90630  0.29010  0.65550  1.0000 0.1267219719
H   H11       1.0  0.90630  0.20990  0.15550  1.0000 0.1267219719
H   H12       1.0  0.09370  0.70990  0.34450  1.0000 0.1267219719
H   H13       1.0  0.86700  0.78660  0.89410  1.0000 0.1267219719
H   H14       1.0  0.13300  0.28660  0.60590  1.0000 0.1267219719
H   H15       1.0  0.13300  0.21340  0.10590  1.0000 0.1267219719
H   H16       1.0  0.86700  0.71340  0.39410  1.0000 0.1267219719
H   H17       1.0  0.94260  0.51760  0.68990  1.0000 0.1267219719
H   H18       1.0  0.05740  0.01760  0.81010  1.0000 0.1267219719
H   H19       1.0  0.05740  0.48240  0.31010  1.0000 0.1267219719
H   H20       1.0  0.94260  0.98240  0.18990  1.0000 0.1267219719
H   H21       1.0  0.82600  0.48610  0.26510  1.0000 0.1379241075
H   H22       1.0  0.17400  0.98610  0.23490  1.0000 0.1379241075
H   H23       1.0  0.17400  0.51390  0.73490  1.0000 0.1379241075
H   H24       1.0  0.82600  0.01390  0.76510  1.0000 0.1379241075
C   C1        1.0  0.92510  0.65108  0.08740  1.0000 -0.0578585054
C   C2        1.0  0.07490  0.15108  0.41260  1.0000 -0.0578585054
C   C3        1.0  0.07490  0.34892  0.91260  1.0000 -0.0578585054
C   C4        1.0  0.92510  0.84892  0.58740  1.0000 -0.0578585054
C   C5        1.0  0.01720  0.61988  0.13170  1.0000 -0.1035167487
C   C6        1.0  0.98280  0.11988  0.36830  1.0000 -0.1035167487
C   C7        1.0  0.98280  0.38012  0.86830  1.0000 -0.1035167487
C   C8        1.0  0.01720  0.88012  0.63170  1.0000 -0.1035167487
C   C9        1.0  0.15810  0.62826  0.12920  1.0000 -0.1035167487
C   C10       1.0  0.84190  0.12826  0.37080  1.0000 -0.1035167487
C   C11       1.0  0.84190  0.37174  0.87080  1.0000 -0.1035167487
C   C12       1.0  0.15810  0.87174  0.62920  1.0000 -0.1035167487
C   C13       1.0  0.20590  0.66721  0.07500  1.0000 -0.0667061072
C   C14       1.0  0.79410  0.16721  0.42500  1.0000 -0.0667061072
C   C15       1.0  0.79410  0.33279  0.92500  1.0000 -0.0667061072
C   C16       1.0  0.20590  0.83279  0.57500  1.0000 -0.0667061072
C   C17       1.0  0.11270  0.69888  0.01730  1.0000 0.039945199
C   C18       1.0  0.88730  0.19888  0.48270  1.0000 0.039945199
C   C19       1.0  0.88730  0.30112  0.98270  1.0000 0.039945199
C   C20       1.0  0.11270  0.80112  0.51730  1.0000 0.039945199
C   C21       1.0  0.15690  0.73555  0.94150  1.0000 -0.0482249755
C   C22       1.0  0.84310  0.23555  0.55850  1.0000 -0.0482249755
C   C23       1.0  0.84310  0.26445  0.05850  1.0000 -0.0482249755
C   C24       1.0  0.15690  0.76445  0.44150  1.0000 -0.0482249755
C   C25       1.0  0.06460  0.76665  0.89510  1.0000 -0.1035167487
C   C26       1.0  0.93540  0.26665  0.60490  1.0000 -0.1035167487
C   C27       1.0  0.93540  0.23335  0.10490  1.0000 -0.1035167487
C   C28       1.0  0.06460  0.73335  0.39510  1.0000 -0.1035167487
C   C29       1.0  0.92650  0.76392  0.92260  1.0000 -0.1175853733
C   C30       1.0  0.07350  0.26392  0.57740  1.0000 -0.1175853733
C   C31       1.0  0.07350  0.23608  0.07740  1.0000 -0.1175853733
C   C32       1.0  0.92650  0.73608  0.42260  1.0000 -0.1175853733
C   C33       1.0  0.87870  0.72866  0.99010  1.0000 -0.0760537509
C   C34       1.0  0.12130  0.22866  0.50990  1.0000 -0.0760537509
C   C35       1.0  0.12130  0.27134  0.00990  1.0000 -0.0760537509
C   C36       1.0  0.87870  0.77134  0.49010  1.0000 -0.0760537509
C   C37       1.0  0.97000  0.69295  0.03380  1.0000 0.0475312498
C   C38       1.0  0.03000  0.19295  0.46620  1.0000 0.0475312498
C   C39       1.0  0.03000  0.30705  0.96620  1.0000 0.0475312498
C   C40       1.0  0.97000  0.80705  0.53380  1.0000 0.0475312498
C   C41       1.0  0.78170  0.63458  0.07970  1.0000 0.5729752209
C   C42       1.0  0.21830  0.13458  0.42030  1.0000 0.5729752209
C   C43       1.0  0.21830  0.36542  0.92030  1.0000 0.5729752209
C   C44       1.0  0.78170  0.86542  0.57970  1.0000 0.5729752209
C   C45       1.0  0.35400  0.67752  0.09920  1.0000 0.6498982336
C   C46       1.0  0.64600  0.17752  0.40080  1.0000 0.6498982336
C   C47       1.0  0.64600  0.32248  0.90080  1.0000 0.6498982336
C   C48       1.0  0.35400  0.82248  0.59920  1.0000 0.6498982336
C   C49       1.0  0.29750  0.73832  0.89420  1.0000 0.5780539986
C   C50       1.0  0.70250  0.23832  0.60580  1.0000 0.5780539986
C   C51       1.0  0.70250  0.26168  0.10580  1.0000 0.5780539986
C   C52       1.0  0.29750  0.76168  0.39420  1.0000 0.5780539986
C   C53       1.0  0.73390  0.73242  0.02880  1.0000 0.6498982336
C   C54       1.0  0.26610  0.23242  0.47120  1.0000 0.6498982336
C   C55       1.0  0.26610  0.26758  0.97120  1.0000 0.6498982336
C   C56       1.0  0.73390  0.76758  0.52880  1.0000 0.6498982336
C   C57       1.0  0.97360  0.51397  0.77130  1.0000 -0.1109438363
C   C58       1.0  0.02640  0.01397  0.72870  1.0000 -0.1109438363
C   C59       1.0  0.02640  0.48603  0.22870  1.0000 -0.1109438363
C   C60       1.0  0.97360  0.98603  0.27130  1.0000 -0.1109438363
C   C61       1.0  0.88270  0.51095  0.86090  1.0000 -0.0667061072
C   C62       1.0  0.11730  0.01095  0.63910  1.0000 -0.0667061072
C   C63       1.0  0.11730  0.48905  0.13910  1.0000 -0.0667061072
C   C64       1.0  0.88270  0.98905  0.36090  1.0000 -0.0667061072
C   C65       1.0  0.73730  0.52353  0.82710  1.0000 0.608242723
C   C66       1.0  0.26270  0.02353  0.67290  1.0000 0.608242723
C   C67       1.0  0.26270  0.47647  0.17290  1.0000 0.608242723
C   C68       1.0  0.73730  0.97647  0.32710  1.0000 0.608242723
C   C69       1.0  0.92840  0.50109  0.98570  1.0000 0.039945199
C   C70       1.0  0.07160  0.00109  0.51430  1.0000 0.039945199
C   C71       1.0  0.07160  0.49891  0.01430  1.0000 0.039945199
C   C72       1.0  0.92840  0.99891  0.48570  1.0000 0.039945199
C   C73       1.0  0.83830  0.49370  0.08250  1.0000 -0.0667061072
C   C74       1.0  0.16170  0.99370  0.41750  1.0000 -0.0667061072
C   C75       1.0  0.16170  0.50630  0.91750  1.0000 -0.0667061072
C   C76       1.0  0.83830  0.00630  0.58250  1.0000 -0.0667061072
C   C77       1.0  0.68960  0.48584  0.05890  1.0000 0.6176097866
C   C78       1.0  0.31040  0.98584  0.44110  1.0000 0.6176097866
C   C79       1.0  0.31040  0.51416  0.94110  1.0000 0.6176097866
C   C80       1.0  0.68960  0.01416  0.55890  1.0000 0.6176097866
C   C81       1.0  0.88650  0.48830  0.20180  1.0000 -0.1109438363
C   C82       1.0  0.11350  0.98830  0.29820  1.0000 -0.1109438363
C   C83       1.0  0.11350  0.51170  0.79820  1.0000 -0.1109438363
C   C84       1.0  0.88650  0.01170  0.70180  1.0000 -0.1109438363
O   O1        1.0  0.73740  0.60962  0.16530  1.0000 -0.5958775426
O   O2        1.0  0.26260  0.10962  0.33470  1.0000 -0.5901125908
O   O3        1.0  0.26260  0.39038  0.83470  1.0000 -0.5958775426
O   O4        1.0  0.73740  0.89038  0.66530  1.0000 -0.5958775426
O   O5        1.0  0.70910  0.64157  0.98440  1.0000 -0.5564094309
O   O6        1.0  0.29090  0.14157  0.51560  1.0000 -0.5564094309
O   O7        1.0  0.29090  0.35843  0.01560  1.0000 -0.5564094309
O   O8        1.0  0.70910  0.85843  0.48440  1.0000 -0.5564094309
O   O9        1.0  0.43730  0.64555  0.09630  1.0000 -0.6188419484
O   O10       1.0  0.56270  0.14555  0.40370  1.0000 -0.6188419484
O   O11       1.0  0.56270  0.35445  0.90370  1.0000 -0.6188419484
O   O12       1.0  0.43730  0.85445  0.59630  1.0000 -0.6188419484
O   O13       1.0  0.38450  0.71764  0.13000  1.0000 -0.5958775426
O   O14       1.0  0.61550  0.21764  0.37000  1.0000 -0.5958775426
O   O15       1.0  0.61550  0.28236  0.87000  1.0000 -0.5958775426
O   O16       1.0  0.38450  0.78236  0.63000  1.0000 -0.5958775426
O   O17       1.0  0.35450  0.70351  0.85340  1.0000 -0.579524723
O   O18       1.0  0.64550  0.20351  0.64660  1.0000 -0.579524723
O   O19       1.0  0.64550  0.29649  0.14660  1.0000 -0.579524723
O   O20       1.0  0.35450  0.79649  0.35340  1.0000 -0.579524723
O   O21       1.0  0.35560  0.77699  0.88860  1.0000 -0.5901125908
O   O22       1.0  0.64440  0.27699  0.61140  1.0000 -0.5901125908
O   O23       1.0  0.64440  0.22301  0.11140  1.0000 -0.5901125908
O   O24       1.0  0.35560  0.72301  0.38860  1.0000 -0.5901125908
O   O25       1.0  0.71280  0.72726  0.14080  1.0000 -0.6188419484
O   O26       1.0  0.28720  0.22726  0.35920  1.0000 -0.6188419484
O   O27       1.0  0.28720  0.27274  0.85920  1.0000 -0.6188419484
O   O28       1.0  0.71280  0.77274  0.64080  1.0000 -0.6188419484
O   O29       1.0  0.64470  0.74478  0.95080  1.0000 -0.6389716837
O   O30       1.0  0.35530  0.24478  0.54920  1.0000 -0.6389716837
O   O31       1.0  0.35530  0.25522  0.04920  1.0000 -0.6389716837
O   O32       1.0  0.64470  0.75522  0.45080  1.0000 -0.6389716837
O   O33       1.0  0.68650  0.50920  0.72670  1.0000 -0.4714055333
O   O34       1.0  0.31350  0.00920  0.77330  1.0000 -0.4714055333
O   O35       1.0  0.31350  0.49080  0.27330  1.0000 -0.4714055333
O   O36       1.0  0.68650  0.99080  0.22670  1.0000 -0.4714055333
O   O37       1.0  0.67770  0.55007  0.89840  1.0000 -0.6188419484
O   O38       1.0  0.32230  0.05007  0.60160  1.0000 -0.6188419484
O   O39       1.0  0.32230  0.44993  0.10160  1.0000 -0.6188419484
O   O40       1.0  0.67770  0.94993  0.39840  1.0000 -0.6188419484
O   O41       1.0  0.65850  0.45405  0.98590  1.0000 -0.6079756443
O   O42       1.0  0.34150  0.95405  0.51410  1.0000 -0.6079756443
O   O43       1.0  0.34150  0.54595  0.01410  1.0000 -0.6079756443
O   O44       1.0  0.65850  0.04595  0.48590  1.0000 -0.6079756443
O   O45       1.0  0.60690  0.50968  0.11610  1.0000 -0.5901125908
O   O46       1.0  0.39310  0.00968  0.38390  1.0000 -0.5901125908
O   O47       1.0  0.39310  0.49032  0.88390  1.0000 -0.5901125908
O   O48       1.0  0.60690  0.99032  0.61610  1.0000 -0.5901125908
