# DDEC6 charges by PACMAN v1.1 (https://github.com/mtap-research/PACMAN-charge/)
data_2013[Cd][nan]3[ASR]12
_chemical_formula_sum              "Cd6 H60 C108 O36"
_cell_length_a       15.777
_cell_length_b       10.6187
_cell_length_c       18.958
_cell_angle_alpha    90
_cell_angle_beta     97.359
_cell_angle_gamma    90

_symmetry_space_group_name_H-M    "P 1"
_symmetry_Int_Tables_number       1

loop_
  _symmetry_equiv_pos_as_xyz
  'x, y, z'

loop_
  _atom_site_type_symbol
  _atom_site_label
  _atom_site_symmetry_multiplicity
  _atom_site_fract_x
  _atom_site_fract_y
  _atom_site_fract_z
  _atom_site_occupancy
  _atom_site_charge
Cd  Cd1       1.0  0.00000  0.48533  0.75000  1.0000 1.1159778803
Cd  Cd2       1.0  0.00000  0.51467  0.25000  1.0000 1.1159778803
Cd  Cd3       1.0  0.95804  0.57917  0.57373  1.0000 1.0122940509
Cd  Cd4       1.0  0.04196  0.57917  0.92627  1.0000 1.0122940509
Cd  Cd5       1.0  0.04196  0.42083  0.42627  1.0000 1.0122940509
Cd  Cd6       1.0  0.95804  0.42083  0.07373  1.0000 1.0122940509
H   H1        1.0  0.21860  0.45310  0.72870  1.0000 0.1200880666
H   H2        1.0  0.78140  0.45310  0.77130  1.0000 0.1200880666
H   H3        1.0  0.78140  0.54690  0.27130  1.0000 0.1200880666
H   H4        1.0  0.21860  0.54690  0.22870  1.0000 0.1200880666
H   H5        1.0  0.34690  0.34810  0.76150  1.0000 0.1483548774
H   H6        1.0  0.65310  0.34810  0.73850  1.0000 0.1483548774
H   H7        1.0  0.65310  0.65190  0.23850  1.0000 0.1483548774
H   H8        1.0  0.34690  0.65190  0.26150  1.0000 0.1483548774
H   H9        1.0  0.32850  0.19200  0.56640  1.0000 0.1394736736
H   H10       1.0  0.67150  0.19200  0.93360  1.0000 0.1394736736
H   H11       1.0  0.67150  0.80800  0.43360  1.0000 0.1394736736
H   H12       1.0  0.32850  0.80800  0.06640  1.0000 0.1394736736
H   H13       1.0  0.20350  0.29950  0.53430  1.0000 0.1289563782
H   H14       1.0  0.79650  0.29950  0.96570  1.0000 0.1289563782
H   H15       1.0  0.79650  0.70050  0.46570  1.0000 0.1289563782
H   H16       1.0  0.20350  0.70050  0.03430  1.0000 0.1289563782
H   H17       1.0  0.55430  0.16370  0.62510  1.0000 0.1636102258
H   H18       1.0  0.44570  0.16370  0.87490  1.0000 0.1636102258
H   H19       1.0  0.44570  0.83630  0.37490  1.0000 0.1636102258
H   H20       1.0  0.55430  0.83630  0.12510  1.0000 0.1636102258
H   H21       1.0  0.51640  0.79230  0.58650  1.0000 0.1650800376
H   H22       1.0  0.48360  0.79230  0.91350  1.0000 0.1650800376
H   H23       1.0  0.48360  0.20770  0.41350  1.0000 0.1650800376
H   H24       1.0  0.51640  0.20770  0.08650  1.0000 0.1636102258
H   H25       1.0  0.35110  0.98840  0.69110  1.0000 0.1483548774
H   H26       1.0  0.64890  0.98840  0.80890  1.0000 0.1483548774
H   H27       1.0  0.64890  0.01160  0.30890  1.0000 0.1483548774
H   H28       1.0  0.35110  0.01160  0.19110  1.0000 0.1483548774
H   H29       1.0  0.67590  0.12740  0.48780  1.0000 0.1289563782
H   H30       1.0  0.32410  0.12740  0.01220  1.0000 0.1289563782
H   H31       1.0  0.32410  0.87260  0.51220  1.0000 0.1289563782
H   H32       1.0  0.67590  0.87260  0.98780  1.0000 0.1289563782
H   H33       1.0  0.78660  0.26850  0.51380  1.0000 0.1200880666
H   H34       1.0  0.21340  0.26850  0.98620  1.0000 0.1200880666
H   H35       1.0  0.21340  0.73150  0.48620  1.0000 0.1200880666
H   H36       1.0  0.78660  0.73150  0.01380  1.0000 0.1200880666
H   H37       1.0  0.81420  0.16000  0.71780  1.0000 0.1200880666
H   H38       1.0  0.18580  0.16000  0.78220  1.0000 0.1200880666
H   H39       1.0  0.18580  0.84000  0.28220  1.0000 0.1200880666
H   H40       1.0  0.81420  0.84000  0.21780  1.0000 0.1200880666
H   H41       1.0  0.71000  0.00430  0.68890  1.0000 0.1289563782
H   H42       1.0  0.29000  0.00430  0.81110  1.0000 0.1289563782
H   H43       1.0  0.29000  0.99570  0.31110  1.0000 0.1289563782
H   H44       1.0  0.71000  0.99570  0.18890  1.0000 0.1289563782
H   H45       1.0  0.21860  0.78030  0.62260  1.0000 0.1394736736
H   H46       1.0  0.78140  0.78030  0.87740  1.0000 0.1394736736
H   H47       1.0  0.78140  0.21970  0.37740  1.0000 0.1394736736
H   H48       1.0  0.21860  0.21970  0.12260  1.0000 0.1394736736
H   H49       1.0  0.12220  0.74120  0.70240  1.0000 0.1289563782
H   H50       1.0  0.87780  0.74120  0.79760  1.0000 0.1289563782
H   H51       1.0  0.87780  0.25880  0.29760  1.0000 0.1289563782
H   H52       1.0  0.12220  0.25880  0.20240  1.0000 0.1289563782
H   H53       1.0  0.31630  0.68970  0.85800  1.0000 0.1200880666
H   H54       1.0  0.68370  0.68970  0.64200  1.0000 0.1200880666
H   H55       1.0  0.68370  0.31030  0.14200  1.0000 0.1200880666
H   H56       1.0  0.31630  0.31030  0.35800  1.0000 0.1200880666
H   H57       1.0  0.41350  0.72290  0.77530  1.0000 0.1394736736
H   H58       1.0  0.58650  0.72290  0.72470  1.0000 0.1394736736
H   H59       1.0  0.58650  0.27710  0.22470  1.0000 0.1394736736
H   H60       1.0  0.41350  0.27710  0.27530  1.0000 0.1394736736
C   C1        1.0  0.11480  0.45400  0.60880  1.0000 0.60118663
C   C2        1.0  0.88520  0.45400  0.89120  1.0000 0.60118663
C   C3        1.0  0.88520  0.54600  0.39120  1.0000 0.60118663
C   C4        1.0  0.11480  0.54600  0.10880  1.0000 0.60118663
C   C5        1.0  0.19570  0.38670  0.62820  1.0000 -0.0725876831
C   C6        1.0  0.80430  0.38670  0.87180  1.0000 -0.0725876831
C   C7        1.0  0.80430  0.61330  0.37180  1.0000 -0.0725876831
C   C8        1.0  0.19570  0.61330  0.12820  1.0000 -0.0725876831
C   C9        1.0  0.24050  0.40060  0.69610  1.0000 -0.0610289684
C   C10       1.0  0.75950  0.40060  0.80390  1.0000 -0.0610289684
C   C11       1.0  0.75950  0.59940  0.30390  1.0000 -0.0610289684
C   C12       1.0  0.24050  0.59940  0.19610  1.0000 -0.0610289684
C   C13       1.0  0.31730  0.33760  0.71620  1.0000 -0.2173813361
C   C14       1.0  0.68270  0.33760  0.78380  1.0000 -0.2173813361
C   C15       1.0  0.68270  0.66240  0.28380  1.0000 -0.2173813361
C   C16       1.0  0.31730  0.66240  0.21620  1.0000 -0.2173813361
C   C17       1.0  0.34830  0.25930  0.66740  1.0000 0.2578935592
C   C18       1.0  0.65170  0.25930  0.83260  1.0000 0.2578935592
C   C19       1.0  0.65170  0.74070  0.33260  1.0000 0.2578935592
C   C20       1.0  0.34830  0.74070  0.16740  1.0000 0.2578935592
C   C21       1.0  0.30630  0.24430  0.59880  1.0000 -0.2173813361
C   C22       1.0  0.69370  0.24430  0.90120  1.0000 -0.2173813361
C   C23       1.0  0.69370  0.75570  0.40120  1.0000 -0.2173813361
C   C24       1.0  0.30630  0.75570  0.09880  1.0000 -0.2173813361
C   C25       1.0  0.23150  0.30830  0.58030  1.0000 -0.0610289684
C   C26       1.0  0.76850  0.30830  0.91970  1.0000 -0.0610289684
C   C27       1.0  0.76850  0.69170  0.41970  1.0000 -0.0610289684
C   C28       1.0  0.23150  0.69170  0.08030  1.0000 -0.0610289684
C   C29       1.0  0.44920  0.09320  0.66070  1.0000 0.2920918682
C   C30       1.0  0.55080  0.09320  0.83930  1.0000 0.2920918682
C   C31       1.0  0.55080  0.90680  0.33930  1.0000 0.2920918682
C   C32       1.0  0.44920  0.90680  0.16070  1.0000 0.2920918682
C   C33       1.0  0.52210  0.09120  0.62890  1.0000 -0.3333102595
C   C34       1.0  0.47790  0.09120  0.87110  1.0000 -0.3333102595
C   C35       1.0  0.47790  0.90880  0.37110  1.0000 -0.3364321024
C   C36       1.0  0.52210  0.90880  0.12890  1.0000 -0.3333102595
C   C37       1.0  0.54600  0.97680  0.60260  1.0000 0.2920918682
C   C38       1.0  0.45400  0.97680  0.89740  1.0000 0.2920918682
C   C39       1.0  0.45400  0.02320  0.39740  1.0000 0.2920918682
C   C40       1.0  0.54600  0.02320  0.10260  1.0000 0.2920918682
C   C41       1.0  0.49950  0.86730  0.60590  1.0000 -0.3364321024
C   C42       1.0  0.50050  0.86730  0.89410  1.0000 -0.3364321024
C   C43       1.0  0.50050  0.13270  0.39410  1.0000 -0.3364321024
C   C44       1.0  0.49950  0.13270  0.10590  1.0000 -0.3364321024
C   C45       1.0  0.42690  0.87400  0.63930  1.0000 0.2920918682
C   C46       1.0  0.57310  0.87400  0.86070  1.0000 0.2920918682
C   C47       1.0  0.57310  0.12600  0.36070  1.0000 0.2920918682
C   C48       1.0  0.42690  0.12600  0.13930  1.0000 0.2920918682
C   C49       1.0  0.39970  0.98560  0.66810  1.0000 -0.3598542021
C   C50       1.0  0.60030  0.98560  0.83190  1.0000 -0.3598542021
C   C51       1.0  0.60030  0.01440  0.33190  1.0000 -0.3598542021
C   C52       1.0  0.39970  0.01440  0.16810  1.0000 -0.3598542021
C   C53       1.0  0.68430  0.05070  0.58560  1.0000 0.2453915334
C   C54       1.0  0.31570  0.05070  0.91440  1.0000 0.2453915334
C   C55       1.0  0.31570  0.94930  0.41440  1.0000 0.2453915334
C   C56       1.0  0.68430  0.94930  0.08560  1.0000 0.2453915334
C   C57       1.0  0.70540  0.13110  0.53350  1.0000 -0.2020006993
C   C58       1.0  0.29460  0.13110  0.96650  1.0000 -0.2020006993
C   C59       1.0  0.29460  0.86890  0.46650  1.0000 -0.2020006993
C   C60       1.0  0.70540  0.86890  0.03350  1.0000 -0.2020006993
C   C61       1.0  0.77050  0.21720  0.54960  1.0000 -0.0801246053
C   C62       1.0  0.22950  0.21720  0.95040  1.0000 -0.0801246053
C   C63       1.0  0.22950  0.78280  0.45040  1.0000 -0.0801246053
C   C64       1.0  0.77050  0.78280  0.04960  1.0000 -0.0801246053
C   C65       1.0  0.81170  0.22830  0.61720  1.0000 -0.0393357112
C   C66       1.0  0.18830  0.22830  0.88280  1.0000 -0.0393357112
C   C67       1.0  0.18830  0.77170  0.38280  1.0000 -0.0393357112
C   C68       1.0  0.81170  0.77170  0.11720  1.0000 -0.0393357112
C   C69       1.0  0.78820  0.15090  0.67130  1.0000 -0.0801246053
C   C70       1.0  0.21180  0.15090  0.82870  1.0000 -0.0801246053
C   C71       1.0  0.21180  0.84910  0.32870  1.0000 -0.0801246053
C   C72       1.0  0.78820  0.84910  0.17130  1.0000 -0.0801246053
C   C73       1.0  0.72460  0.05900  0.65410  1.0000 -0.2173813361
C   C74       1.0  0.27540  0.05900  0.84590  1.0000 -0.2173813361
C   C75       1.0  0.27540  0.94100  0.34590  1.0000 -0.2173813361
C   C76       1.0  0.72460  0.94100  0.15410  1.0000 -0.2173813361
C   C77       1.0  0.32440  0.75020  0.69140  1.0000 0.2403835921
C   C78       1.0  0.67560  0.75020  0.80860  1.0000 0.2403835921
C   C79       1.0  0.67560  0.24980  0.30860  1.0000 0.2403835921
C   C80       1.0  0.32440  0.24980  0.19140  1.0000 0.2403835921
C   C81       1.0  0.23820  0.75920  0.66940  1.0000 -0.2020006993
C   C82       1.0  0.76180  0.75920  0.83060  1.0000 -0.2020006993
C   C83       1.0  0.76180  0.24080  0.33060  1.0000 -0.2020006993
C   C84       1.0  0.23820  0.24080  0.16940  1.0000 -0.2020006993
C   C85       1.0  0.18060  0.73690  0.71730  1.0000 -0.0801246053
C   C86       1.0  0.81940  0.73690  0.78270  1.0000 -0.0801246053
C   C87       1.0  0.81940  0.26310  0.28270  1.0000 -0.0801246053
C   C88       1.0  0.18060  0.26310  0.21730  1.0000 -0.0801246053
C   C89       1.0  0.20980  0.70850  0.78710  1.0000 -0.0465056927
C   C90       1.0  0.79020  0.70850  0.71290  1.0000 -0.0465056927
C   C91       1.0  0.79020  0.29150  0.21290  1.0000 -0.0465056927
C   C92       1.0  0.20980  0.29150  0.28710  1.0000 -0.0465056927
C   C93       1.0  0.29660  0.70520  0.81040  1.0000 -0.0801246053
C   C94       1.0  0.70340  0.70520  0.68960  1.0000 -0.0801246053
C   C95       1.0  0.70340  0.29480  0.18960  1.0000 -0.0801246053
C   C96       1.0  0.29660  0.29480  0.31040  1.0000 -0.0801246053
C   C97       1.0  0.35500  0.72590  0.76080  1.0000 -0.2113252015
C   C98       1.0  0.64500  0.72590  0.73920  1.0000 -0.2113252015
C   C99       1.0  0.64500  0.27410  0.23920  1.0000 -0.2113252015
C   C100      1.0  0.35500  0.27410  0.26080  1.0000 -0.2113252015
C   C101      1.0  0.14870  0.67310  0.83790  1.0000 0.575319004
C   C102      1.0  0.85130  0.67310  0.66210  1.0000 0.575319004
C   C103      1.0  0.85130  0.32690  0.16210  1.0000 0.575319004
C   C104      1.0  0.14870  0.32690  0.33790  1.0000 0.575319004
C   C105      1.0  0.87970  0.32630  0.63530  1.0000 0.5947925417
C   C106      1.0  0.12030  0.32630  0.86470  1.0000 0.5947925417
C   C107      1.0  0.12030  0.67370  0.36470  1.0000 0.5947925417
C   C108      1.0  0.87970  0.67370  0.13530  1.0000 0.5947925417
O   O1        1.0  0.07720  0.50520  0.65570  1.0000 -0.5806813568
O   O2        1.0  0.92280  0.50520  0.84430  1.0000 -0.5806813568
O   O3        1.0  0.92280  0.49480  0.34430  1.0000 -0.5806813568
O   O4        1.0  0.07720  0.49480  0.15570  1.0000 -0.5806813568
O   O5        1.0  0.08150  0.45780  0.54470  1.0000 -0.558896187
O   O6        1.0  0.91850  0.45780  0.95530  1.0000 -0.558896187
O   O7        1.0  0.91850  0.54220  0.45530  1.0000 -0.558896187
O   O8        1.0  0.08150  0.54220  0.04470  1.0000 -0.558896187
O   O9        1.0  0.07060  0.64830  0.81270  1.0000 -0.6049664647
O   O10       1.0  0.92940  0.64830  0.68730  1.0000 -0.6049664647
O   O11       1.0  0.92940  0.35170  0.18730  1.0000 -0.6049664647
O   O12       1.0  0.07060  0.35170  0.31270  1.0000 -0.6049664647
O   O13       1.0  0.90590  0.38360  0.58230  1.0000 -0.5806813568
O   O14       1.0  0.09410  0.38360  0.91770  1.0000 -0.5806813568
O   O15       1.0  0.09410  0.61640  0.41770  1.0000 -0.5806813568
O   O16       1.0  0.90590  0.61640  0.08230  1.0000 -0.5806813568
O   O17       1.0  0.90650  0.34610  0.69950  1.0000 -0.5673557849
O   O18       1.0  0.09350  0.34610  0.80050  1.0000 -0.5673557849
O   O19       1.0  0.09350  0.65390  0.30050  1.0000 -0.5673557849
O   O20       1.0  0.90650  0.65390  0.19950  1.0000 -0.5673557849
O   O21       1.0  0.17210  0.66500  0.90330  1.0000 -0.5313105167
O   O22       1.0  0.82790  0.66500  0.59670  1.0000 -0.5313105167
O   O23       1.0  0.82790  0.33500  0.09670  1.0000 -0.5313105167
O   O24       1.0  0.17210  0.33500  0.40330  1.0000 -0.5313105167
O   O25       1.0  0.42810  0.20590  0.69040  1.0000 -0.2173813361
O   O26       1.0  0.57190  0.20590  0.80960  1.0000 -0.2173813361
O   O27       1.0  0.57190  0.79410  0.30960  1.0000 -0.2173813361
O   O28       1.0  0.42810  0.79410  0.19040  1.0000 -0.2173813361
O   O29       1.0  0.61870  0.96230  0.56810  1.0000 -0.23052537
O   O30       1.0  0.38130  0.96230  0.93190  1.0000 -0.23052537
O   O31       1.0  0.38130  0.03770  0.43190  1.0000 -0.23052537
O   O32       1.0  0.61870  0.03770  0.06810  1.0000 -0.23052537
O   O33       1.0  0.38200  0.76120  0.64190  1.0000 -0.23052537
O   O34       1.0  0.61800  0.76120  0.85810  1.0000 -0.23052537
O   O35       1.0  0.61800  0.23880  0.35810  1.0000 -0.23052537
O   O36       1.0  0.38200  0.23880  0.14190  1.0000 -0.23052537
