# DDEC6 charges by PACMAN v1.1 (https://github.com/mtap-research/PACMAN-charge/)
data_2013[La][nan]3[ASR]5
_chemical_formula_sum              "La2 H18 C42 S6 O12"
_cell_length_a       14.1833
_cell_length_b       14.1833
_cell_length_c       8.206
_cell_angle_alpha    88.735
_cell_angle_beta     91.265
_cell_angle_gamma    110.032

_symmetry_space_group_name_H-M    "P 1"
_symmetry_Int_Tables_number       1

loop_
  _symmetry_equiv_pos_as_xyz
  'x, y, z'

loop_
  _atom_site_type_symbol
  _atom_site_label
  _atom_site_symmetry_multiplicity
  _atom_site_fract_x
  _atom_site_fract_y
  _atom_site_fract_z
  _atom_site_occupancy
  _atom_site_charge
La  La1       1.0  0.25122  0.78200  0.00345  1.0000 1.8532234468
La  La2       1.0  0.21800  0.74878  0.50345  1.0000 1.8532234468
H   H1        1.0  0.43680  0.39780  0.49730  1.0000 0.1115053644
H   H2        1.0  0.60220  0.56320  0.99730  1.0000 0.1115053644
H   H3        1.0  0.71820  0.59180  0.42870  1.0000 0.1115053644
H   H4        1.0  0.40820  0.28180  0.92870  1.0000 0.1115053644
H   H5        1.0  0.64260  0.30520  0.27710  1.0000 0.1115053644
H   H6        1.0  0.69480  0.35740  0.77710  1.0000 0.1115053644
H   H7        1.0  0.25710  0.04630  0.46390  1.0000 0.1386085935
H   H8        1.0  0.95370  0.74290  0.96390  1.0000 0.1386085935
H   H9        1.0  0.33970  0.22490  0.52670  1.0000 0.1288453341
H   H10       1.0  0.77510  0.66030  0.02670  1.0000 0.1288453341
H   H11       1.0  0.60440  0.78280  0.78460  1.0000 0.1386085935
H   H12       1.0  0.21720  0.39560  0.28460  1.0000 0.1386085935
H   H13       1.0  0.68650  0.68570  0.62670  1.0000 0.1288453341
H   H14       1.0  0.31430  0.31350  0.12670  1.0000 0.1288453341
H   H15       1.0  0.96050  0.42930  0.05090  1.0000 0.1386085935
H   H16       1.0  0.57070  0.03950  0.55090  1.0000 0.1386085935
H   H17       1.0  0.78540  0.35220  0.13170  1.0000 0.1288453341
H   H18       1.0  0.64780  0.21460  0.63170  1.0000 0.1288453341
C   C1        1.0  0.52610  0.33450  0.38510  1.0000 0.1017376172
C   C2        1.0  0.66550  0.47390  0.88510  1.0000 0.1017376172
C   C3        1.0  0.50300  0.41120  0.45940  1.0000 -0.1927473508
C   C4        1.0  0.58880  0.49700  0.95940  1.0000 -0.1927473508
C   C5        1.0  0.57400  0.50720  0.48020  1.0000 0.1017376172
C   C6        1.0  0.49280  0.42600  0.98020  1.0000 0.1017376172
C   C7        1.0  0.66980  0.52640  0.41860  1.0000 -0.2101108022
C   C8        1.0  0.47360  0.33020  0.91860  1.0000 -0.2101108022
C   C9        1.0  0.69660  0.45220  0.34250  1.0000 0.1017376172
C   C10       1.0  0.54780  0.30340  0.84250  1.0000 0.1017376172
C   C11       1.0  0.62490  0.35650  0.32710  1.0000 -0.2101108022
C   C12       1.0  0.64350  0.37510  0.82710  1.0000 -0.2101108022
C   C13       1.0  0.45220  0.23260  0.36720  1.0000 -0.0208891247
C   C14       1.0  0.76740  0.54780  0.86720  1.0000 -0.0208891247
C   C15       1.0  0.36760  0.05460  0.30000  1.0000 -0.1213381149
C   C16       1.0  0.94540  0.63240  0.80000  1.0000 -0.1084097274
C   C17       1.0  0.31760  0.08780  0.41470  1.0000 -0.1213381149
C   C18       1.0  0.91220  0.68240  0.91470  1.0000 -0.1213381149
C   C19       1.0  0.36510  0.18970  0.45170  1.0000 -0.1760813631
C   C20       1.0  0.81030  0.63490  0.95170  1.0000 -0.1760813631
C   C21       1.0  0.34050  0.95370  0.22900  1.0000 0.5936596431
C   C22       1.0  0.04630  0.65950  0.72900  1.0000 0.5936596431
C   C23       1.0  0.55110  0.58530  0.56830  1.0000 -0.0208891247
C   C24       1.0  0.41470  0.44890  0.06830  1.0000 -0.0139297666
C   C25       1.0  0.46570  0.68330  0.71670  1.0000 -0.1213381149
C   C26       1.0  0.31670  0.53430  0.21670  1.0000 -0.1213381149
C   C27       1.0  0.56870  0.72390  0.72590  1.0000 -0.1084097274
C   C28       1.0  0.27610  0.43130  0.22590  1.0000 -0.1084097274
C   C29       1.0  0.61580  0.66700  0.63650  1.0000 -0.1699174084
C   C30       1.0  0.33300  0.38420  0.13650  1.0000 -0.1699174084
C   C31       1.0  0.39230  0.72030  0.79480  1.0000 0.5802096166
C   C32       1.0  0.27970  0.60770  0.29480  1.0000 0.5802096166
C   C33       1.0  0.79740  0.47320  0.27490  1.0000 -0.0208891247
C   C34       1.0  0.52680  0.20260  0.77490  1.0000 -0.0208891247
C   C35       1.0  0.97580  0.54980  0.19400  1.0000 -0.1034593769
C   C36       1.0  0.45020  0.02420  0.69400  1.0000 -0.1034593769
C   C37       1.0  0.92860  0.45960  0.12380  1.0000 -0.1084097274
C   C38       1.0  0.54040  0.07140  0.62380  1.0000 -0.1084097274
C   C39       1.0  0.82810  0.41550  0.16960  1.0000 -0.1699174084
C   C40       1.0  0.58450  0.17190  0.66960  1.0000 -0.1699174084
C   C41       1.0  0.07720  0.62140  0.15830  1.0000 0.5802096166
C   C42       1.0  0.37860  0.92280  0.65830  1.0000 0.5802096166
S   S1        1.0  0.47318  0.14936  0.23590  1.0000 0.1288453341
S   S2        1.0  0.85064  0.52682  0.73590  1.0000 0.1288453341
S   S3        1.0  0.42823  0.57633  0.59990  1.0000 0.1461951546
S   S4        1.0  0.42367  0.57177  0.09990  1.0000 0.1461951546
S   S5        1.0  0.89592  0.58136  0.32130  1.0000 0.1386085935
S   S6        1.0  0.41864  0.10408  0.82130  1.0000 0.1386085935
O   O1        1.0  0.26770  0.88330  0.29030  1.0000 -0.6560347937
O   O2        1.0  0.11670  0.73230  0.79030  1.0000 -0.6560347937
O   O3        1.0  0.38770  0.94070  0.10950  1.0000 -0.5653100573
O   O4        1.0  0.05930  0.61230  0.60950  1.0000 -0.5642555319
O   O5        1.0  0.42080  0.78180  0.90610  1.0000 -0.5318181477
O   O6        1.0  0.21820  0.57920  0.40610  1.0000 -0.5318181477
O   O7        1.0  0.30040  0.68460  0.74750  1.0000 -0.65165722
O   O8        1.0  0.31540  0.69960  0.24750  1.0000 -0.65165722
O   O9        1.0  0.12890  0.60150  0.05320  1.0000 -0.5226277076
O   O10       1.0  0.39850  0.87110  0.55320  1.0000 -0.5226277076
O   O11       1.0  0.10880  0.70420  0.23630  1.0000 -0.6702196561
O   O12       1.0  0.29580  0.89120  0.73630  1.0000 -0.6702196561
