# DDEC6 charges by PACMAN v1.1 (https://github.com/mtap-research/PACMAN-charge/)
data_2013[Zn][crb]3[ASR]2
_chemical_formula_sum              "Zn8 H96 C144 N16 O24"
_cell_length_a       26.4573
_cell_length_b       26.4573
_cell_length_c       5.2854
_cell_angle_alpha    90
_cell_angle_beta     90
_cell_angle_gamma    90

_symmetry_space_group_name_H-M    "P 1"
_symmetry_Int_Tables_number       1

loop_
  _symmetry_equiv_pos_as_xyz
  'x, y, z'

loop_
  _atom_site_type_symbol
  _atom_site_label
  _atom_site_symmetry_multiplicity
  _atom_site_fract_x
  _atom_site_fract_y
  _atom_site_fract_z
  _atom_site_occupancy
  _atom_site_charge
Zn  Zn1       1.0  0.28515  0.77380  0.08418  1.0000 0.8869103471
Zn  Zn2       1.0  0.78515  0.27380  0.58418  1.0000 0.8869103471
Zn  Zn3       1.0  0.71485  0.22620  0.08418  1.0000 0.8869103471
Zn  Zn4       1.0  0.21485  0.72620  0.58418  1.0000 0.8869103471
Zn  Zn5       1.0  0.77380  0.71485  0.91582  1.0000 0.8869103471
Zn  Zn6       1.0  0.27380  0.21485  0.41582  1.0000 0.8869103471
Zn  Zn7       1.0  0.22620  0.28515  0.91582  1.0000 0.8869103471
Zn  Zn8       1.0  0.72620  0.78515  0.41582  1.0000 0.8869103471
H   H1        1.0  0.39280  0.79490  0.85910  1.0000 0.1180629245
H   H2        1.0  0.32080  0.68730  0.47570  1.0000 0.1391960959
H   H3        1.0  0.83030  0.12220  0.31350  1.0000 0.1180629245
H   H4        1.0  0.87890  0.06430  0.52170  1.0000 0.1023092194
H   H5        1.0  0.46300  0.55190  0.90390  1.0000 0.1059565776
H   H6        1.0  0.49910  0.59930  0.59560  1.0000 0.1180629245
H   H7        1.0  0.49370  0.66770  0.28010  1.0000 0.1295707122
H   H8        1.0  0.47030  0.83080  0.89050  1.0000 0.1391960959
H   H9        1.0  0.55050  0.85870  0.76480  1.0000 0.1295707122
H   H10       1.0  0.59600  0.71430  0.72490  1.0000 0.1180629245
H   H11       1.0  0.51510  0.68820  0.85160  1.0000 0.1180629245
H   H12       1.0  0.31447  0.25407  0.09050  1.0000 0.3625979404
H   H13       1.0  0.89280  0.29490  0.35910  1.0000 0.1180629245
H   H14       1.0  0.82080  0.18730  0.97570  1.0000 0.1391960959
H   H15       1.0  0.33030  0.62220  0.81350  1.0000 0.1180629245
H   H16       1.0  0.37890  0.56430  0.02170  1.0000 0.1023092194
H   H17       1.0  0.96300  0.05190  0.40390  1.0000 0.1059565776
H   H18       1.0  0.99910  0.09930  0.09560  1.0000 0.1180629245
H   H19       1.0  0.99370  0.16770  0.78010  1.0000 0.1295707122
H   H20       1.0  0.97030  0.33080  0.39050  1.0000 0.1391960959
H   H21       1.0  0.05050  0.35870  0.26480  1.0000 0.1295707122
H   H22       1.0  0.09600  0.21430  0.22490  1.0000 0.1180629245
H   H23       1.0  0.01510  0.18820  0.35160  1.0000 0.1180629245
H   H24       1.0  0.81447  0.75407  0.59050  1.0000 0.3625979404
H   H25       1.0  0.60720  0.20510  0.85910  1.0000 0.1180629245
H   H26       1.0  0.67920  0.31270  0.47570  1.0000 0.1391960959
H   H27       1.0  0.16970  0.87780  0.31350  1.0000 0.1180629245
H   H28       1.0  0.12110  0.93570  0.52170  1.0000 0.1023092194
H   H29       1.0  0.53700  0.44810  0.90390  1.0000 0.1059565776
H   H30       1.0  0.50090  0.40070  0.59560  1.0000 0.1180629245
H   H31       1.0  0.50630  0.33230  0.28010  1.0000 0.1295707122
H   H32       1.0  0.52970  0.16920  0.89050  1.0000 0.1391960959
H   H33       1.0  0.44950  0.14130  0.76480  1.0000 0.1295707122
H   H34       1.0  0.40400  0.28570  0.72490  1.0000 0.1180629245
H   H35       1.0  0.48490  0.31180  0.85160  1.0000 0.1180629245
H   H36       1.0  0.68553  0.74593  0.09050  1.0000 0.3625979404
H   H37       1.0  0.10720  0.70510  0.35910  1.0000 0.1180629245
H   H38       1.0  0.17920  0.81270  0.97570  1.0000 0.1391960959
H   H39       1.0  0.66970  0.37780  0.81350  1.0000 0.1180629245
H   H40       1.0  0.62110  0.43570  0.02170  1.0000 0.1023092194
H   H41       1.0  0.03700  0.94810  0.40390  1.0000 0.1059565776
H   H42       1.0  0.00090  0.90070  0.09560  1.0000 0.1180629245
H   H43       1.0  0.00630  0.83230  0.78010  1.0000 0.1295707122
H   H44       1.0  0.02970  0.66920  0.39050  1.0000 0.1391960959
H   H45       1.0  0.94950  0.64130  0.26480  1.0000 0.1295707122
H   H46       1.0  0.90400  0.78570  0.22490  1.0000 0.1180629245
H   H47       1.0  0.98490  0.81180  0.35160  1.0000 0.1180629245
H   H48       1.0  0.18553  0.24593  0.59050  1.0000 0.3625979404
H   H49       1.0  0.79490  0.60720  0.14090  1.0000 0.1180629245
H   H50       1.0  0.68730  0.67920  0.52430  1.0000 0.1391960959
H   H51       1.0  0.12220  0.16970  0.68650  1.0000 0.1180629245
H   H52       1.0  0.06430  0.12110  0.47830  1.0000 0.1023092194
H   H53       1.0  0.55190  0.53700  0.09610  1.0000 0.1059565776
H   H54       1.0  0.59930  0.50090  0.40440  1.0000 0.1180629245
H   H55       1.0  0.66770  0.50630  0.71990  1.0000 0.1295707122
H   H56       1.0  0.83080  0.52970  0.10950  1.0000 0.1391960959
H   H57       1.0  0.85870  0.44950  0.23520  1.0000 0.1295707122
H   H58       1.0  0.71430  0.40400  0.27510  1.0000 0.1180629245
H   H59       1.0  0.68820  0.48490  0.14840  1.0000 0.1180629245
H   H60       1.0  0.25407  0.68553  0.90950  1.0000 0.3625979404
H   H61       1.0  0.29490  0.10720  0.64090  1.0000 0.1180629245
H   H62       1.0  0.18730  0.17920  0.02430  1.0000 0.1391960959
H   H63       1.0  0.62220  0.66970  0.18650  1.0000 0.1180629245
H   H64       1.0  0.56430  0.62110  0.97830  1.0000 0.1023092194
H   H65       1.0  0.05190  0.03700  0.59610  1.0000 0.1059565776
H   H66       1.0  0.09930  0.00090  0.90440  1.0000 0.1180629245
H   H67       1.0  0.16770  0.00630  0.21990  1.0000 0.1295707122
H   H68       1.0  0.33080  0.02970  0.60950  1.0000 0.1391960959
H   H69       1.0  0.35870  0.94950  0.73520  1.0000 0.1295707122
H   H70       1.0  0.21430  0.90400  0.77510  1.0000 0.1180629245
H   H71       1.0  0.18820  0.98490  0.64840  1.0000 0.1180629245
H   H72       1.0  0.75407  0.18553  0.40950  1.0000 0.3625979404
H   H73       1.0  0.20510  0.39280  0.14090  1.0000 0.1180629245
H   H74       1.0  0.31270  0.32080  0.52430  1.0000 0.1391960959
H   H75       1.0  0.87780  0.83030  0.68650  1.0000 0.1180629245
H   H76       1.0  0.93570  0.87890  0.47830  1.0000 0.1023092194
H   H77       1.0  0.44810  0.46300  0.09610  1.0000 0.1059565776
H   H78       1.0  0.40070  0.49910  0.40440  1.0000 0.1180629245
H   H79       1.0  0.33230  0.49370  0.71990  1.0000 0.1295707122
H   H80       1.0  0.16920  0.47030  0.10950  1.0000 0.1391960959
H   H81       1.0  0.14130  0.55050  0.23520  1.0000 0.1295707122
H   H82       1.0  0.28570  0.59600  0.27510  1.0000 0.1180629245
H   H83       1.0  0.31180  0.51510  0.14840  1.0000 0.1180629245
H   H84       1.0  0.74593  0.31447  0.90950  1.0000 0.3625979404
H   H85       1.0  0.70510  0.89280  0.64090  1.0000 0.1180629245
H   H86       1.0  0.81270  0.82080  0.02430  1.0000 0.1391960959
H   H87       1.0  0.37780  0.33030  0.18650  1.0000 0.1180629245
H   H88       1.0  0.43570  0.37890  0.97830  1.0000 0.1023092194
H   H89       1.0  0.94810  0.96300  0.59610  1.0000 0.1059565776
H   H90       1.0  0.90070  0.99910  0.90440  1.0000 0.1180629245
H   H91       1.0  0.83230  0.99370  0.21990  1.0000 0.1295707122
H   H92       1.0  0.66920  0.97030  0.60950  1.0000 0.1391960959
H   H93       1.0  0.64130  0.05050  0.73520  1.0000 0.1295707122
H   H94       1.0  0.78570  0.09600  0.77510  1.0000 0.1180629245
H   H95       1.0  0.81180  0.01510  0.64840  1.0000 0.1180629245
H   H96       1.0  0.24593  0.81447  0.40950  1.0000 0.3625979404
C   C1        1.0  0.39596  0.76843  0.97400  1.0000 0.1540708187
C   C2        1.0  0.37810  0.71248  0.25890  1.0000 0.1391960959
C   C3        1.0  0.35494  0.68328  0.43880  1.0000 -0.2369588391
C   C4        1.0  0.38437  0.64691  0.56620  1.0000 0.0800571645
C   C5        1.0  0.86388  0.11769  0.26670  1.0000 -0.1526571308
C   C6        1.0  0.89274  0.08330  0.39070  1.0000 -0.1047784706
C   C7        1.0  0.44380  0.57629  0.82120  1.0000 -0.1065280383
C   C8        1.0  0.46530  0.60429  0.63680  1.0000 -0.1655780916
C   C9        1.0  0.43659  0.64149  0.50490  1.0000 0.0800571645
C   C10       1.0  0.45972  0.67170  0.32080  1.0000 -0.2369588391
C   C11       1.0  0.43037  0.70749  0.20240  1.0000 0.1023092194
C   C12       1.0  0.48796  0.75835  0.91680  1.0000 0.1668894885
C   C13       1.0  0.49630  0.80770  0.86800  1.0000 -0.1829178278
C   C14       1.0  0.54330  0.82450  0.78400  1.0000 -0.065241987
C   C15       1.0  0.58069  0.78551  0.72630  1.0000 -0.0184972403
C   C16       1.0  0.57110  0.73820  0.75840  1.0000 -0.0930687097
C   C17       1.0  0.52310  0.72240  0.84410  1.0000 -0.205253888
C   C18       1.0  0.63170  0.80090  0.62500  1.0000 0.5304261724
C   C19       1.0  0.89596  0.26843  0.47400  1.0000 0.1540708187
C   C20       1.0  0.87810  0.21248  0.75890  1.0000 0.1391960959
C   C21       1.0  0.85494  0.18328  0.93880  1.0000 -0.2369588391
C   C22       1.0  0.88437  0.14691  0.06620  1.0000 0.0800571645
C   C23       1.0  0.36388  0.61769  0.76670  1.0000 -0.1526571308
C   C24       1.0  0.39274  0.58330  0.89070  1.0000 -0.1065280383
C   C25       1.0  0.94380  0.07629  0.32120  1.0000 -0.1065280383
C   C26       1.0  0.96530  0.10429  0.13680  1.0000 -0.1655780916
C   C27       1.0  0.93659  0.14149  0.00490  1.0000 0.0800571645
C   C28       1.0  0.95972  0.17170  0.82080  1.0000 -0.2369588391
C   C29       1.0  0.93037  0.20749  0.70240  1.0000 0.1023092194
C   C30       1.0  0.98796  0.25835  0.41680  1.0000 0.1668894885
C   C31       1.0  0.99630  0.30770  0.36800  1.0000 -0.1829178278
C   C32       1.0  0.04330  0.32450  0.28400  1.0000 -0.065241987
C   C33       1.0  0.08069  0.28551  0.22630  1.0000 -0.0184972403
C   C34       1.0  0.07110  0.23820  0.25840  1.0000 -0.0930687097
C   C35       1.0  0.02310  0.22240  0.34410  1.0000 -0.205253888
C   C36       1.0  0.13170  0.30090  0.12500  1.0000 0.5304261724
C   C37       1.0  0.60404  0.23157  0.97400  1.0000 0.1540708187
C   C38       1.0  0.62190  0.28752  0.25890  1.0000 0.1391960959
C   C39       1.0  0.64506  0.31672  0.43880  1.0000 -0.2369588391
C   C40       1.0  0.61563  0.35309  0.56620  1.0000 0.0800571645
C   C41       1.0  0.13612  0.88231  0.26670  1.0000 -0.1526571308
C   C42       1.0  0.10726  0.91670  0.39070  1.0000 -0.1047784706
C   C43       1.0  0.55620  0.42371  0.82120  1.0000 -0.1065280383
C   C44       1.0  0.53470  0.39571  0.63680  1.0000 -0.1655780916
C   C45       1.0  0.56341  0.35851  0.50490  1.0000 0.0800571645
C   C46       1.0  0.54028  0.32830  0.32080  1.0000 -0.2369588391
C   C47       1.0  0.56963  0.29251  0.20240  1.0000 0.1023092194
C   C48       1.0  0.51204  0.24165  0.91680  1.0000 0.1668894885
C   C49       1.0  0.50370  0.19230  0.86800  1.0000 -0.1829178278
C   C50       1.0  0.45670  0.17550  0.78400  1.0000 -0.065241987
C   C51       1.0  0.41931  0.21449  0.72630  1.0000 -0.0184972403
C   C52       1.0  0.42890  0.26180  0.75840  1.0000 -0.0930687097
C   C53       1.0  0.47690  0.27760  0.84410  1.0000 -0.205253888
C   C54       1.0  0.36830  0.19910  0.62500  1.0000 0.5304261724
C   C55       1.0  0.10404  0.73157  0.47400  1.0000 0.1540708187
C   C56       1.0  0.12190  0.78752  0.75890  1.0000 0.1391960959
C   C57       1.0  0.14506  0.81672  0.93880  1.0000 -0.2369588391
C   C58       1.0  0.11563  0.85309  0.06620  1.0000 0.0800571645
C   C59       1.0  0.63612  0.38231  0.76670  1.0000 -0.1526571308
C   C60       1.0  0.60726  0.41670  0.89070  1.0000 -0.1065280383
C   C61       1.0  0.05620  0.92371  0.32120  1.0000 -0.1065280383
C   C62       1.0  0.03470  0.89571  0.13680  1.0000 -0.1655780916
C   C63       1.0  0.06341  0.85851  0.00490  1.0000 0.0800571645
C   C64       1.0  0.04028  0.82830  0.82080  1.0000 -0.2369588391
C   C65       1.0  0.06963  0.79251  0.70240  1.0000 0.1023092194
C   C66       1.0  0.01204  0.74165  0.41680  1.0000 0.1668894885
C   C67       1.0  0.00370  0.69230  0.36800  1.0000 -0.1829178278
C   C68       1.0  0.95670  0.67550  0.28400  1.0000 -0.065241987
C   C69       1.0  0.91931  0.71449  0.22630  1.0000 -0.0184972403
C   C70       1.0  0.92890  0.76180  0.25840  1.0000 -0.0930687097
C   C71       1.0  0.97690  0.77760  0.34410  1.0000 -0.205253888
C   C72       1.0  0.86830  0.69910  0.12500  1.0000 0.5304261724
C   C73       1.0  0.76843  0.60404  0.02600  1.0000 0.1540708187
C   C74       1.0  0.71248  0.62190  0.74110  1.0000 0.1391960959
C   C75       1.0  0.68328  0.64506  0.56120  1.0000 -0.2369588391
C   C76       1.0  0.64691  0.61563  0.43380  1.0000 0.0800571645
C   C77       1.0  0.11769  0.13612  0.73330  1.0000 -0.1526571308
C   C78       1.0  0.08330  0.10726  0.60930  1.0000 -0.1047784706
C   C79       1.0  0.57629  0.55620  0.17880  1.0000 -0.1065280383
C   C80       1.0  0.60429  0.53470  0.36320  1.0000 -0.1655780916
C   C81       1.0  0.64149  0.56341  0.49510  1.0000 0.0800571645
C   C82       1.0  0.67170  0.54028  0.67920  1.0000 -0.2369588391
C   C83       1.0  0.70749  0.56963  0.79760  1.0000 0.1023092194
C   C84       1.0  0.75835  0.51204  0.08320  1.0000 0.1668894885
C   C85       1.0  0.80770  0.50370  0.13200  1.0000 -0.1829178278
C   C86       1.0  0.82450  0.45670  0.21600  1.0000 -0.065241987
C   C87       1.0  0.78551  0.41931  0.27370  1.0000 -0.0184972403
C   C88       1.0  0.73820  0.42890  0.24160  1.0000 -0.0930687097
C   C89       1.0  0.72240  0.47690  0.15590  1.0000 -0.205253888
C   C90       1.0  0.80090  0.36830  0.37500  1.0000 0.5304261724
C   C91       1.0  0.26843  0.10404  0.52600  1.0000 0.1540708187
C   C92       1.0  0.21248  0.12190  0.24110  1.0000 0.1391960959
C   C93       1.0  0.18328  0.14506  0.06120  1.0000 -0.2369588391
C   C94       1.0  0.14691  0.11563  0.93380  1.0000 0.0800571645
C   C95       1.0  0.61769  0.63612  0.23330  1.0000 -0.1526571308
C   C96       1.0  0.58330  0.60726  0.10930  1.0000 -0.1047784706
C   C97       1.0  0.07629  0.05620  0.67880  1.0000 -0.1065280383
C   C98       1.0  0.10429  0.03470  0.86320  1.0000 -0.1655780916
C   C99       1.0  0.14149  0.06341  0.99510  1.0000 0.0800571645
C   C100      1.0  0.17170  0.04028  0.17920  1.0000 -0.2369588391
C   C101      1.0  0.20749  0.06963  0.29760  1.0000 0.1023092194
C   C102      1.0  0.25835  0.01204  0.58320  1.0000 0.1668894885
C   C103      1.0  0.30770  0.00370  0.63200  1.0000 -0.1829178278
C   C104      1.0  0.32450  0.95670  0.71600  1.0000 -0.065241987
C   C105      1.0  0.28551  0.91931  0.77370  1.0000 -0.0184972403
C   C106      1.0  0.23820  0.92890  0.74160  1.0000 -0.0930687097
C   C107      1.0  0.22240  0.97690  0.65590  1.0000 -0.205253888
C   C108      1.0  0.30090  0.86830  0.87500  1.0000 0.5304261724
C   C109      1.0  0.23157  0.39596  0.02600  1.0000 0.1540708187
C   C110      1.0  0.28752  0.37810  0.74110  1.0000 0.1391960959
C   C111      1.0  0.31672  0.35494  0.56120  1.0000 -0.2369588391
C   C112      1.0  0.35309  0.38437  0.43380  1.0000 0.0800571645
C   C113      1.0  0.88231  0.86388  0.73330  1.0000 -0.1526571308
C   C114      1.0  0.91670  0.89274  0.60930  1.0000 -0.1047784706
C   C115      1.0  0.42371  0.44380  0.17880  1.0000 -0.1065280383
C   C116      1.0  0.39571  0.46530  0.36320  1.0000 -0.1655780916
C   C117      1.0  0.35851  0.43659  0.49510  1.0000 0.0800571645
C   C118      1.0  0.32830  0.45972  0.67920  1.0000 -0.2369588391
C   C119      1.0  0.29251  0.43037  0.79760  1.0000 0.1023092194
C   C120      1.0  0.24165  0.48796  0.08320  1.0000 0.1668894885
C   C121      1.0  0.19230  0.49630  0.13200  1.0000 -0.1829178278
C   C122      1.0  0.17550  0.54330  0.21600  1.0000 -0.065241987
C   C123      1.0  0.21449  0.58069  0.27370  1.0000 -0.0184972403
C   C124      1.0  0.26180  0.57110  0.24160  1.0000 -0.0930687097
C   C125      1.0  0.27760  0.52310  0.15590  1.0000 -0.205253888
C   C126      1.0  0.19910  0.63170  0.37500  1.0000 0.5304261724
C   C127      1.0  0.73157  0.89596  0.52600  1.0000 0.1540708187
C   C128      1.0  0.78752  0.87810  0.24110  1.0000 0.1391960959
C   C129      1.0  0.81672  0.85494  0.06120  1.0000 -0.2369588391
C   C130      1.0  0.85309  0.88437  0.93380  1.0000 0.0800571645
C   C131      1.0  0.38231  0.36388  0.23330  1.0000 -0.1526571308
C   C132      1.0  0.41670  0.39274  0.10930  1.0000 -0.1047784706
C   C133      1.0  0.92371  0.94380  0.67880  1.0000 -0.1065280383
C   C134      1.0  0.89571  0.96530  0.86320  1.0000 -0.1655780916
C   C135      1.0  0.85851  0.93659  0.99510  1.0000 0.0800571645
C   C136      1.0  0.82830  0.95972  0.17920  1.0000 -0.2369588391
C   C137      1.0  0.79251  0.93037  0.29760  1.0000 0.1023092194
C   C138      1.0  0.74165  0.98796  0.58320  1.0000 0.1668894885
C   C139      1.0  0.69230  0.99630  0.63200  1.0000 -0.1829178278
C   C140      1.0  0.67550  0.04330  0.71600  1.0000 -0.0646252205
C   C141      1.0  0.71449  0.08069  0.77370  1.0000 -0.0184972403
C   C142      1.0  0.76180  0.07110  0.74160  1.0000 -0.0930687097
C   C143      1.0  0.77760  0.02310  0.65590  1.0000 -0.205253888
C   C144      1.0  0.69910  0.13170  0.87500  1.0000 0.5304261724
N   N1        1.0  0.35842  0.75120  0.10770  1.0000 -0.3597540428
N   N2        1.0  0.44014  0.74393  0.01930  1.0000 -0.0542244624
N   N3        1.0  0.85842  0.25120  0.60770  1.0000 -0.3597540428
N   N4        1.0  0.94014  0.24393  0.51930  1.0000 -0.0542244624
N   N5        1.0  0.64158  0.24880  0.10770  1.0000 -0.3597540428
N   N6        1.0  0.55986  0.25607  0.01930  1.0000 -0.0542244624
N   N7        1.0  0.14158  0.74880  0.60770  1.0000 -0.3597540428
N   N8        1.0  0.05986  0.75607  0.51930  1.0000 -0.0542244624
N   N9        1.0  0.75120  0.64158  0.89230  1.0000 -0.3597540428
N   N10       1.0  0.74393  0.55986  0.98070  1.0000 -0.0542244624
N   N11       1.0  0.25120  0.14158  0.39230  1.0000 -0.3597540428
N   N12       1.0  0.24393  0.05986  0.48070  1.0000 -0.0542244624
N   N13       1.0  0.24880  0.35842  0.89230  1.0000 -0.3597540428
N   N14       1.0  0.25607  0.44014  0.98070  1.0000 -0.0542244624
N   N15       1.0  0.74880  0.85842  0.39230  1.0000 -0.3597540428
N   N16       1.0  0.75607  0.94014  0.48070  1.0000 -0.0542244624
O   O1        1.0  0.25349  0.77667  0.40950  1.0000 -0.8559537252
O   O2        1.0  0.66521  0.77711  0.62000  1.0000 -0.4117985983
O   O3        1.0  0.63560  0.85270  0.59600  1.0000 -0.5882637297
O   O4        1.0  0.75349  0.27667  0.90950  1.0000 -0.8559537252
O   O5        1.0  0.16521  0.27711  0.12000  1.0000 -0.4117985983
O   O6        1.0  0.13560  0.35270  0.09600  1.0000 -0.5882637297
O   O7        1.0  0.74651  0.22333  0.40950  1.0000 -0.8559537252
O   O8        1.0  0.33479  0.22289  0.62000  1.0000 -0.4117985983
O   O9        1.0  0.36440  0.14730  0.59600  1.0000 -0.5882637297
O   O10       1.0  0.24651  0.72333  0.90950  1.0000 -0.8559537252
O   O11       1.0  0.83479  0.72289  0.12000  1.0000 -0.4117985983
O   O12       1.0  0.86440  0.64730  0.09600  1.0000 -0.5882637297
O   O13       1.0  0.77667  0.74651  0.59050  1.0000 -0.8559537252
O   O14       1.0  0.77711  0.33479  0.38000  1.0000 -0.4117985983
O   O15       1.0  0.85270  0.36440  0.40400  1.0000 -0.5882637297
O   O16       1.0  0.27667  0.24651  0.09050  1.0000 -0.8559537252
O   O17       1.0  0.27711  0.83479  0.88000  1.0000 -0.4117985983
O   O18       1.0  0.35270  0.86440  0.90400  1.0000 -0.5882637297
O   O19       1.0  0.22333  0.25349  0.59050  1.0000 -0.8546299656
O   O20       1.0  0.22289  0.66521  0.38000  1.0000 -0.4117985983
O   O21       1.0  0.14730  0.63560  0.40400  1.0000 -0.5882637297
O   O22       1.0  0.72333  0.75349  0.09050  1.0000 -0.8559537252
O   O23       1.0  0.72289  0.16521  0.88000  1.0000 -0.4117985983
O   O24       1.0  0.64730  0.13560  0.90400  1.0000 -0.5882637297
