# DDEC6 charges by PACMAN v1.1 (https://github.com/mtap-research/PACMAN-charge/)
data_2013[Dy][nan]3[ASR]2
_chemical_formula_sum              "Dy4 H60 C90 S6 O48"
_cell_length_a       9.1999
_cell_length_b       15.578
_cell_length_c       22.142
_cell_angle_alpha    102.86
_cell_angle_beta     101.55
_cell_angle_gamma    104.52

_symmetry_space_group_name_H-M    "P 1"
_symmetry_Int_Tables_number       1

loop_
  _symmetry_equiv_pos_as_xyz
  'x, y, z'

loop_
  _atom_site_type_symbol
  _atom_site_label
  _atom_site_symmetry_multiplicity
  _atom_site_fract_x
  _atom_site_fract_y
  _atom_site_fract_z
  _atom_site_occupancy
  _atom_site_charge
Dy  Dy1       1.0  0.51411  0.86223  0.80432  1.0000 2.1344819986
Dy  Dy2       1.0  0.02917  0.91285  0.85774  1.0000 2.1344819986
Dy  Dy3       1.0  0.48589  0.13777  0.19568  1.0000 2.135530484
Dy  Dy4       1.0  0.97083  0.08715  0.14226  1.0000 2.1344819986
H   H1        1.0  0.86560  0.83360  0.66560  1.0000 0.1231373507
H   H2        1.0  0.74230  0.83430  0.56670  1.0000 0.1295998681
H   H3        1.0  0.28300  0.91830  0.63110  1.0000 0.1492531447
H   H4        1.0  0.66510  0.78960  0.45230  1.0000 0.1295998681
H   H5        1.0  0.67020  0.89210  0.48120  1.0000 0.1122466671
H   H6        1.0  0.67990  0.85850  0.41030  1.0000 0.1231373507
H   H7        1.0  0.98370  0.84900  0.36810  1.0000 0.1295998681
H   H8        1.0  0.96740  0.90980  0.28060  1.0000 0.1231373507
H   H9        1.0  0.43250  0.01050  0.33050  1.0000 0.1231373507
H   H10       1.0  0.45120  0.95470  0.41870  1.0000 0.1295998681
H   H11       1.0  0.99860  0.66520  0.90850  1.0000 0.1231373507
H   H12       1.0  0.93600  0.52150  0.92510  1.0000 0.1295998681
H   H13       1.0  0.27160  0.46120  0.84720  1.0000 0.1295998681
H   H14       1.0  0.33450  0.60790  0.83180  1.0000 0.1295998681
H   H15       1.0  0.11560  0.26060  0.01890  1.0000 0.1492531447
H   H16       1.0  0.51040  0.19200  0.02870  1.0000 0.1295998681
H   H17       1.0  0.59690  0.29900  0.97700  1.0000 0.1295998681
H   H18       1.0  0.67560  0.44720  0.96500  1.0000 0.1231373507
H   H19       1.0  0.60790  0.37330  0.89730  1.0000 0.1231373507
H   H20       1.0  0.61550  0.47670  0.90380  1.0000 0.1295998681
H   H21       1.0  0.59350  0.56470  0.80370  1.0000 0.1492531447
H   H22       1.0  0.98990  0.56370  0.70540  1.0000 0.1231373507
H   H23       1.0  0.92740  0.69830  0.73370  1.0000 0.1295998681
H   H24       1.0  0.94900  0.39660  0.64900  1.0000 0.1231373507
H   H25       1.0  0.07900  0.44440  0.71430  1.0000 0.1122466671
H   H26       1.0  0.00510  0.33640  0.69120  1.0000 0.1231373507
H   H27       1.0  0.25750  0.27150  0.79160  1.0000 0.1295998681
H   H28       1.0  0.22590  0.15740  0.84230  1.0000 0.1295998681
H   H29       1.0  0.59660  0.09800  0.79440  1.0000 0.1231373507
H   H30       1.0  0.62270  0.20930  0.74100  1.0000 0.1295998681
H   H31       1.0  0.13440  0.16640  0.33440  1.0000 0.1231373507
H   H32       1.0  0.25770  0.16570  0.43330  1.0000 0.1295998681
H   H33       1.0  0.71700  0.08170  0.36890  1.0000 0.1492531447
H   H34       1.0  0.33490  0.21040  0.54770  1.0000 0.1295998681
H   H35       1.0  0.32980  0.10790  0.51880  1.0000 0.1122466671
H   H36       1.0  0.32010  0.14150  0.58970  1.0000 0.1231373507
H   H37       1.0  0.01630  0.15100  0.63190  1.0000 0.1295998681
H   H38       1.0  0.03260  0.09020  0.71940  1.0000 0.1231373507
H   H39       1.0  0.56750  0.98950  0.66950  1.0000 0.1231373507
H   H40       1.0  0.54880  0.04530  0.58130  1.0000 0.1295998681
H   H41       1.0  0.00140  0.33480  0.09150  1.0000 0.1231373507
H   H42       1.0  0.06400  0.47850  0.07490  1.0000 0.1295998681
H   H43       1.0  0.72840  0.53880  0.15280  1.0000 0.1295998681
H   H44       1.0  0.66550  0.39210  0.16820  1.0000 0.1295998681
H   H45       1.0  0.88440  0.73940  0.98110  1.0000 0.1492531447
H   H46       1.0  0.48960  0.80800  0.97130  1.0000 0.1295998681
H   H47       1.0  0.40310  0.70100  0.02300  1.0000 0.1295998681
H   H48       1.0  0.32440  0.55280  0.03500  1.0000 0.1231373507
H   H49       1.0  0.39210  0.62670  0.10270  1.0000 0.1231373507
H   H50       1.0  0.38450  0.52330  0.09620  1.0000 0.1295998681
H   H51       1.0  0.40650  0.43530  0.19630  1.0000 0.1492531447
H   H52       1.0  0.01010  0.43630  0.29460  1.0000 0.1231373507
H   H53       1.0  0.07260  0.30170  0.26630  1.0000 0.1295998681
H   H54       1.0  0.05100  0.60340  0.35100  1.0000 0.1295998681
H   H55       1.0  0.92100  0.55560  0.28570  1.0000 0.1122466671
H   H56       1.0  0.99490  0.66360  0.30880  1.0000 0.1231373507
H   H57       1.0  0.74250  0.72850  0.20840  1.0000 0.1295998681
H   H58       1.0  0.77410  0.84260  0.15770  1.0000 0.1295998681
H   H59       1.0  0.40340  0.90200  0.20560  1.0000 0.1231373507
H   H60       1.0  0.37730  0.79070  0.25900  1.0000 0.1295998681
C   C1        1.0  0.16840  0.87670  0.72420  1.0000 0.6568252716
C   C2        1.0  0.09040  0.87860  0.65910  1.0000 -0.0364033653
C   C3        1.0  0.92380  0.85130  0.63820  1.0000 -0.0905019677
C   C4        1.0  0.85070  0.85120  0.57940  1.0000 -0.2013349336
C   C5        1.0  0.93600  0.87630  0.53670  1.0000 0.1720869167
C   C6        1.0  0.09900  0.90210  0.55640  1.0000 0.1720869167
C   C7        1.0  0.17470  0.90210  0.61820  1.0000 -0.1922706951
C   C8        1.0  0.70890  0.85270  0.45300  1.0000 -0.2126130265
C   C9        1.0  0.21740  0.89530  0.40220  1.0000 -0.1012160618
C   C10       1.0  0.07440  0.88210  0.36070  1.0000 -0.0905019677
C   C11       1.0  0.06430  0.91800  0.30770  1.0000 -0.0797935099
C   C12       1.0  0.19940  0.96540  0.29620  1.0000 -0.0294460625
C   C13       1.0  0.34170  0.97810  0.33820  1.0000 -0.0905019677
C   C14       1.0  0.35410  0.94470  0.39110  1.0000 -0.0905019677
C   C15       1.0  0.19080  0.00430  0.24000  1.0000 0.6523774587
C   C16       1.0  0.20570  0.74620  0.85580  1.0000 0.6523774587
C   C17       1.0  0.17230  0.65100  0.86920  1.0000 -0.0221466709
C   C18       1.0  0.05370  0.62470  0.89640  1.0000 -0.0905019677
C   C19       1.0  0.01570  0.53880  0.90610  1.0000 -0.0905019677
C   C20       1.0  0.09600  0.47760  0.88750  1.0000 -0.1012160618
C   C21       1.0  0.21730  0.50210  0.85950  1.0000 -0.0905019677
C   C22       1.0  0.25420  0.58980  0.85050  1.0000 -0.0905019677
C   C23       1.0  0.26150  0.33060  0.97900  1.0000 0.1587376494
C   C24       1.0  0.21230  0.26840  0.01030  1.0000 -0.1922706951
C   C25       1.0  0.30550  0.21550  0.03020  1.0000 -0.0364033653
C   C26       1.0  0.44830  0.22730  0.01650  1.0000 -0.0797935099
C   C27       1.0  0.49950  0.29100  0.98490  1.0000 -0.2249701199
C   C28       1.0  0.40790  0.34340  0.96450  1.0000 0.1720869167
C   C29       1.0  0.25180  0.15270  0.06770  1.0000 0.6568252716
C   C30       1.0  0.59880  0.42810  0.92430  1.0000 -0.2126130265
C   C31       1.0  0.70450  0.72970  0.78960  1.0000 0.6141644839
C   C32       1.0  0.75360  0.64410  0.77160  1.0000 -0.013586678
C   C33       1.0  0.67380  0.56440  0.78410  1.0000 -0.2013349336
C   C34       1.0  0.71520  0.48520  0.76710  1.0000 0.1587376494
C   C35       1.0  0.83450  0.48420  0.73660  1.0000 0.1587376494
C   C36       1.0  0.91010  0.56410  0.72530  1.0000 -0.2013349336
C   C37       1.0  0.87370  0.64500  0.74190  1.0000 -0.1012160618
C   C38       1.0  0.98490  0.39420  0.69220  1.0000 -0.2013349336
C   C39       1.0  0.44530  0.25140  0.76280  1.0000 -0.1089633581
C   C40       1.0  0.32460  0.23570  0.79230  1.0000 -0.0905019677
C   C41       1.0  0.30550  0.16790  0.82220  1.0000 -0.0905019677
C   C42       1.0  0.40690  0.11360  0.82250  1.0000 -0.013586678
C   C43       1.0  0.52700  0.13210  0.79300  1.0000 -0.0905019677
C   C44       1.0  0.54490  0.19930  0.76200  1.0000 -0.0905019677
C   C45       1.0  0.39000  0.03840  0.85610  1.0000 0.6523774587
C   C46       1.0  0.83160  0.12330  0.27580  1.0000 0.6568252716
C   C47       1.0  0.90960  0.12140  0.34090  1.0000 -0.0364033653
C   C48       1.0  0.07620  0.14870  0.36180  1.0000 -0.0905019677
C   C49       1.0  0.14930  0.14880  0.42060  1.0000 -0.2013349336
C   C50       1.0  0.06400  0.12370  0.46330  1.0000 0.1720869167
C   C51       1.0  0.90100  0.09790  0.44360  1.0000 0.1720869167
C   C52       1.0  0.82530  0.09790  0.38180  1.0000 -0.1922706951
C   C53       1.0  0.29110  0.14730  0.54700  1.0000 -0.2126130265
C   C54       1.0  0.78260  0.10470  0.59780  1.0000 -0.1012160618
C   C55       1.0  0.92560  0.11790  0.63930  1.0000 -0.0905019677
C   C56       1.0  0.93570  0.08200  0.69230  1.0000 -0.0797935099
C   C57       1.0  0.80060  0.03460  0.70380  1.0000 -0.0294460625
C   C58       1.0  0.65830  0.02190  0.66180  1.0000 -0.0905019677
C   C59       1.0  0.64590  0.05530  0.60890  1.0000 -0.0905019677
C   C60       1.0  0.80920  0.99570  0.76000  1.0000 0.6523774587
C   C61       1.0  0.79430  0.25380  0.14420  1.0000 0.6523774587
C   C62       1.0  0.82770  0.34900  0.13080  1.0000 -0.0221466709
C   C63       1.0  0.94630  0.37530  0.10360  1.0000 -0.0905019677
C   C64       1.0  0.98430  0.46120  0.09390  1.0000 -0.0905019677
C   C65       1.0  0.90400  0.52240  0.11250  1.0000 -0.1012160618
C   C66       1.0  0.78270  0.49790  0.14050  1.0000 -0.0905019677
C   C67       1.0  0.74580  0.41020  0.14950  1.0000 -0.0905019677
C   C68       1.0  0.73850  0.66940  0.02100  1.0000 0.1587376494
C   C69       1.0  0.78770  0.73160  0.98970  1.0000 -0.1922706951
C   C70       1.0  0.69450  0.78450  0.96980  1.0000 -0.0364033653
C   C71       1.0  0.55170  0.77270  0.98350  1.0000 -0.0797935099
C   C72       1.0  0.50050  0.70900  0.01510  1.0000 -0.2257502255
C   C73       1.0  0.59210  0.65660  0.03550  1.0000 0.1720869167
C   C74       1.0  0.74820  0.84730  0.93230  1.0000 0.6568252716
C   C75       1.0  0.40120  0.57190  0.07570  1.0000 -0.2126130265
C   C76       1.0  0.29550  0.27030  0.21040  1.0000 0.6141644839
C   C77       1.0  0.24640  0.35590  0.22840  1.0000 -0.013586678
C   C78       1.0  0.32620  0.43560  0.21590  1.0000 -0.2013349336
C   C79       1.0  0.28480  0.51480  0.23290  1.0000 0.1587376494
C   C80       1.0  0.16550  0.51580  0.26340  1.0000 0.1587376494
C   C81       1.0  0.08990  0.43590  0.27470  1.0000 -0.2013349336
C   C82       1.0  0.12630  0.35500  0.25810  1.0000 -0.1012160618
C   C83       1.0  0.01510  0.60580  0.30780  1.0000 -0.2013349336
C   C84       1.0  0.55470  0.74860  0.23720  1.0000 -0.1089633581
C   C85       1.0  0.67540  0.76430  0.20770  1.0000 -0.0905019677
C   C86       1.0  0.69450  0.83210  0.17780  1.0000 -0.0905019677
C   C87       1.0  0.59310  0.88640  0.17750  1.0000 -0.013586678
C   C88       1.0  0.47300  0.86790  0.20700  1.0000 -0.0905019677
C   C89       1.0  0.45510  0.80070  0.23800  1.0000 -0.0905019677
C   C90       1.0  0.61000  0.96160  0.14390  1.0000 0.6523774587
S   S1        1.0  0.22880  0.85110  0.46785  1.0000 1.1157686833
S   S2        1.0  0.04930  0.36780  0.90019  1.0000 1.1157686833
S   S3        1.0  0.47500  0.34380  0.72928  1.0000 1.1106047753
S   S4        1.0  0.77120  0.14890  0.53215  1.0000 1.1157686833
S   S5        1.0  0.95070  0.63220  0.09981  1.0000 1.1157686833
S   S6        1.0  0.52500  0.65620  0.27072  1.0000 1.1106047753
O   O1        1.0  0.08810  0.85990  0.76250  1.0000 -0.6674276915
O   O2        1.0  0.31570  0.89350  0.73840  1.0000 -0.6968374229
O   O3        1.0  0.87710  0.87970  0.47590  1.0000 -0.1704891276
O   O4        1.0  0.18570  0.92820  0.51510  1.0000 -0.3088292655
O   O5        1.0  0.10770  0.76480  0.45230  1.0000 -0.5232343552
O   O6        1.0  0.38690  0.85680  0.49550  1.0000 -0.531751844
O   O7        1.0  0.05850  0.00130  0.20900  1.0000 -0.6497790393
O   O8        1.0  0.31640  0.03600  0.22650  1.0000 -0.7160800573
O   O9        1.0  0.12910  0.79490  0.87530  1.0000 -0.6354122039
O   O10       1.0  0.30970  0.76560  0.82650  1.0000 -0.6913418647
O   O11       1.0  0.90090  0.34790  0.91360  1.0000 -0.531751844
O   O12       1.0  0.07980  0.30180  0.85320  1.0000 -0.5232343552
O   O13       1.0  0.17830  0.39180  0.96710  1.0000 -0.318415868
O   O14       1.0  0.49970  0.00320  0.86560  1.0000 -0.6497790393
O   O15       1.0  0.26740  0.01710  0.87340  1.0000 -0.6913418647
O   O16       1.0  0.11750  0.14250  0.07470  1.0000 -0.6674276915
O   O17       1.0  0.34590  0.11360  0.09330  1.0000 -0.6968374229
O   O18       1.0  0.35970  0.39050  0.73610  1.0000 -0.5371640798
O   O19       1.0  0.63820  0.40600  0.78050  1.0000 -0.2901623425
O   O20       1.0  0.57120  0.71920  0.80180  1.0000 -0.655436742
O   O21       1.0  0.44570  0.40920  0.93410  1.0000 -0.1482615646
O   O22       1.0  0.78910  0.80720  0.79160  1.0000 -0.6968374229
O   O23       1.0  0.86820  0.40180  0.72510  1.0000 -0.1833200183
O   O24       1.0  0.50020  0.31700  0.66810  1.0000 -0.5020290491
O   O25       1.0  0.91190  0.14010  0.23750  1.0000 -0.6674276915
O   O26       1.0  0.68430  0.10650  0.26160  1.0000 -0.6968374229
O   O27       1.0  0.12290  0.12030  0.52410  1.0000 -0.1704891276
O   O28       1.0  0.81430  0.07180  0.48490  1.0000 -0.3088292655
O   O29       1.0  0.89230  0.23520  0.54770  1.0000 -0.5232343552
O   O30       1.0  0.61310  0.14320  0.50450  1.0000 -0.531751844
O   O31       1.0  0.94150  0.99870  0.79100  1.0000 -0.6497790393
O   O32       1.0  0.68360  0.96400  0.77350  1.0000 -0.7160800573
O   O33       1.0  0.87090  0.20510  0.12470  1.0000 -0.6354122039
O   O34       1.0  0.69030  0.23440  0.17350  1.0000 -0.6913418647
O   O35       1.0  0.09910  0.65210  0.08640  1.0000 -0.531751844
O   O36       1.0  0.92020  0.69820  0.14680  1.0000 -0.5232343552
O   O37       1.0  0.82170  0.60820  0.03290  1.0000 -0.318415868
O   O38       1.0  0.50030  0.99680  0.13440  1.0000 -0.6497790393
O   O39       1.0  0.73260  0.98290  0.12660  1.0000 -0.6913418647
O   O40       1.0  0.88250  0.85750  0.92530  1.0000 -0.6674276915
O   O41       1.0  0.65410  0.88640  0.90670  1.0000 -0.6968374229
O   O42       1.0  0.64030  0.60950  0.26390  1.0000 -0.5371640798
O   O43       1.0  0.36180  0.59400  0.21950  1.0000 -0.2901623425
O   O44       1.0  0.42880  0.28080  0.19820  1.0000 -0.655436742
O   O45       1.0  0.55430  0.59080  0.06590  1.0000 -0.1482615646
O   O46       1.0  0.21090  0.19280  0.20840  1.0000 -0.6968374229
O   O47       1.0  0.13180  0.59820  0.27490  1.0000 -0.1833200183
O   O48       1.0  0.49980  0.68300  0.33190  1.0000 -0.5020290491
