# DDEC6 charges by PACMAN v1.1 (https://github.com/mtap-research/PACMAN-charge/)
data_2013[Co][nan]3[ASR]5
_chemical_formula_sum              "Co12 H114 C150 N18 O48"
_cell_length_a       15.8831
_cell_length_b       15.8831
_cell_length_c       21.3791
_cell_angle_alpha    90
_cell_angle_beta     90
_cell_angle_gamma    120

_symmetry_space_group_name_H-M    "P 1"
_symmetry_Int_Tables_number       1

loop_
  _symmetry_equiv_pos_as_xyz
  'x, y, z'

loop_
  _atom_site_type_symbol
  _atom_site_label
  _atom_site_symmetry_multiplicity
  _atom_site_fract_x
  _atom_site_fract_y
  _atom_site_fract_z
  _atom_site_occupancy
  _atom_site_charge
Co  Co1       1.0  0.29525  0.85161  0.03697  1.0000 0.960372926
Co  Co2       1.0  0.14839  0.44364  0.37030  1.0000 0.960372926
Co  Co3       1.0  0.55636  0.70475  0.70364  1.0000 0.960372926
Co  Co4       1.0  0.70475  0.14839  0.53697  1.0000 0.960372926
Co  Co5       1.0  0.85161  0.55636  0.87030  1.0000 0.960372926
Co  Co6       1.0  0.44364  0.29525  0.20364  1.0000 0.960372926
Co  Co7       1.0  0.48236  0.97205  0.14158  1.0000 0.8325493248
Co  Co8       1.0  0.02795  0.51031  0.47491  1.0000 0.8325493248
Co  Co9       1.0  0.48969  0.51764  0.80825  1.0000 0.8325493248
Co  Co10      1.0  0.51764  0.02795  0.64158  1.0000 0.8325493248
Co  Co11      1.0  0.97205  0.48969  0.97491  1.0000 0.8325493248
Co  Co12      1.0  0.51031  0.48236  0.30825  1.0000 0.8325493248
H   H1        1.0  0.33380  0.80370  0.50330  1.0000 0.1293018562
H   H2        1.0  0.19630  0.53010  0.83663  1.0000 0.1293018562
H   H3        1.0  0.46990  0.66620  0.16997  1.0000 0.1293018562
H   H4        1.0  0.66620  0.19630  0.00330  1.0000 0.1293018562
H   H5        1.0  0.80370  0.46990  0.33663  1.0000 0.1293018562
H   H6        1.0  0.53010  0.33380  0.66997  1.0000 0.1293018562
H   H7        1.0  0.53770  0.98800  0.38340  1.0000 0.1210149039
H   H8        1.0  0.01200  0.54970  0.71673  1.0000 0.1210149039
H   H9        1.0  0.45030  0.46230  0.05007  1.0000 0.1210149039
H   H10       1.0  0.46230  0.01200  0.88340  1.0000 0.1210149039
H   H11       1.0  0.98800  0.45030  0.21673  1.0000 0.1210149039
H   H12       1.0  0.54970  0.53770  0.55007  1.0000 0.1210149039
H   H13       1.0  0.32680  0.73160  0.32260  1.0000 0.1293018562
H   H14       1.0  0.26840  0.59520  0.65593  1.0000 0.1293018562
H   H15       1.0  0.40480  0.67320  0.98927  1.0000 0.1293018562
H   H16       1.0  0.67320  0.26840  0.82260  1.0000 0.1293018562
H   H17       1.0  0.73160  0.40480  0.15593  1.0000 0.1293018562
H   H18       1.0  0.59520  0.32680  0.48927  1.0000 0.1293018562
H   H19       1.0  0.54180  0.93580  0.27660  1.0000 0.1093734382
H   H20       1.0  0.06420  0.60600  0.60993  1.0000 0.1093734382
H   H21       1.0  0.39400  0.45820  0.94327  1.0000 0.1093734382
H   H22       1.0  0.45820  0.06420  0.77660  1.0000 0.1093734382
H   H23       1.0  0.93580  0.39400  0.10993  1.0000 0.1093734382
H   H24       1.0  0.60600  0.54180  0.44327  1.0000 0.1093734382
H   H25       1.0  0.45910  0.83450  0.25320  1.0000 0.1210149039
H   H26       1.0  0.16550  0.62460  0.58653  1.0000 0.1210149039
H   H27       1.0  0.37540  0.54090  0.91987  1.0000 0.1210149039
H   H28       1.0  0.54090  0.16550  0.75320  1.0000 0.1210149039
H   H29       1.0  0.83450  0.37540  0.08653  1.0000 0.1210149039
H   H30       1.0  0.62460  0.45910  0.41987  1.0000 0.1210149039
H   H31       1.0  0.29010  0.88840  0.26780  1.0000 0.1408806948
H   H32       1.0  0.11160  0.40170  0.60113  1.0000 0.1408806948
H   H33       1.0  0.59830  0.70990  0.93447  1.0000 0.1408806948
H   H34       1.0  0.70990  0.11160  0.76780  1.0000 0.1408806948
H   H35       1.0  0.88840  0.59830  0.10113  1.0000 0.1408806948
H   H36       1.0  0.40170  0.29010  0.43447  1.0000 0.1408806948
H   H37       1.0  0.30570  0.81250  0.23030  1.0000 0.1408806948
H   H38       1.0  0.18750  0.49320  0.56363  1.0000 0.1408806948
H   H39       1.0  0.50680  0.69430  0.89697  1.0000 0.1408806948
H   H40       1.0  0.69430  0.18750  0.73030  1.0000 0.1408806948
H   H41       1.0  0.81250  0.50680  0.06363  1.0000 0.1408806948
H   H42       1.0  0.49320  0.30570  0.39697  1.0000 0.1408806948
H   H43       1.0  0.51450  0.06200  0.28980  1.0000 0.1293018562
H   H44       1.0  0.93800  0.45250  0.62313  1.0000 0.1293018562
H   H45       1.0  0.54750  0.48550  0.95647  1.0000 0.1293018562
H   H46       1.0  0.48550  0.93800  0.78980  1.0000 0.1293018562
H   H47       1.0  0.06200  0.54750  0.12313  1.0000 0.1293018562
H   H48       1.0  0.45250  0.51450  0.45647  1.0000 0.1293018562
H   H49       1.0  0.40350  0.02440  0.30000  1.0000 0.1408806948
H   H50       1.0  0.97560  0.37910  0.63333  1.0000 0.1408806948
H   H51       1.0  0.62090  0.59650  0.96667  1.0000 0.1408806948
H   H52       1.0  0.59650  0.97560  0.80000  1.0000 0.1408806948
H   H53       1.0  0.02440  0.62090  0.13333  1.0000 0.1408806948
H   H54       1.0  0.37910  0.40350  0.46667  1.0000 0.1408806948
H   H55       1.0  0.34480  0.05540  0.03280  1.0000 0.1093734382
H   H56       1.0  0.94460  0.28940  0.36613  1.0000 0.1093734382
H   H57       1.0  0.71060  0.65520  0.69947  1.0000 0.1093734382
H   H58       1.0  0.65520  0.94460  0.53280  1.0000 0.1093734382
H   H59       1.0  0.05540  0.71060  0.86613  1.0000 0.1093734382
H   H60       1.0  0.28940  0.34480  0.19947  1.0000 0.1093734382
H   H61       1.0  0.28120  0.15550  0.02500  1.0000 0.1293018562
H   H62       1.0  0.84450  0.12570  0.35833  1.0000 0.1293018562
H   H63       1.0  0.87430  0.71880  0.69167  1.0000 0.1293018562
H   H64       1.0  0.71880  0.84450  0.52500  1.0000 0.1293018562
H   H65       1.0  0.15550  0.87430  0.85833  1.0000 0.1293018562
H   H66       1.0  0.12570  0.28120  0.19167  1.0000 0.1293018562
H   H67       1.0  0.01910  0.92090  0.00160  1.0000 0.1408806948
H   H68       1.0  0.07910  0.09820  0.33493  1.0000 0.1408806948
H   H69       1.0  0.90180  0.98090  0.66827  1.0000 0.1408806948
H   H70       1.0  0.98090  0.07910  0.50160  1.0000 0.1408806948
H   H71       1.0  0.92090  0.90180  0.83493  1.0000 0.1408806948
H   H72       1.0  0.09820  0.01910  0.16827  1.0000 0.1408806948
H   H73       1.0  0.09050  0.82640  0.00980  1.0000 0.1093734382
H   H74       1.0  0.17360  0.26410  0.34313  1.0000 0.1093734382
H   H75       1.0  0.73590  0.90950  0.67647  1.0000 0.1093734382
H   H76       1.0  0.90950  0.17360  0.50980  1.0000 0.1093734382
H   H77       1.0  0.82640  0.73590  0.84313  1.0000 0.1093734382
H   H78       1.0  0.26410  0.09050  0.17647  1.0000 0.1093734382
H   H79       1.0  0.03140  0.08110  0.99710  1.0000 0.1210149039
H   H80       1.0  0.91890  0.95030  0.33043  1.0000 0.1210149039
H   H81       1.0  0.04970  0.96860  0.66377  1.0000 0.1210149039
H   H82       1.0  0.96860  0.91890  0.49710  1.0000 0.1210149039
H   H83       1.0  0.08110  0.04970  0.83043  1.0000 0.1210149039
H   H84       1.0  0.95030  0.03140  0.16377  1.0000 0.1210149039
H   H85       1.0  0.20770  0.23510  0.02590  1.0000 0.1210149039
H   H86       1.0  0.76490  0.97260  0.35923  1.0000 0.1210149039
H   H87       1.0  0.02740  0.79230  0.69257  1.0000 0.1210149039
H   H88       1.0  0.79230  0.76490  0.52590  1.0000 0.1210149039
H   H89       1.0  0.23510  0.02740  0.85923  1.0000 0.1210149039
H   H90       1.0  0.97260  0.20770  0.19257  1.0000 0.1210149039
H   H91       1.0  0.22460  0.39490  0.02310  1.0000 0.1408806948
H   H92       1.0  0.60510  0.82970  0.35643  1.0000 0.1408806948
H   H93       1.0  0.17030  0.77540  0.68977  1.0000 0.1408806948
H   H94       1.0  0.77540  0.60510  0.52310  1.0000 0.1408806948
H   H95       1.0  0.39490  0.17030  0.85643  1.0000 0.1408806948
H   H96       1.0  0.82970  0.22460  0.18977  1.0000 0.1408806948
H   H97       1.0  0.15960  0.49400  0.01110  1.0000 0.1093734382
H   H98       1.0  0.50600  0.66560  0.34443  1.0000 0.1093734382
H   H99       1.0  0.33440  0.84040  0.67777  1.0000 0.1093734382
H   H100      1.0  0.84040  0.50600  0.51110  1.0000 0.1093734382
H   H101      1.0  0.49400  0.33440  0.84443  1.0000 0.1093734382
H   H102      1.0  0.66560  0.15960  0.17777  1.0000 0.1093734382
H   H103      1.0  0.90250  0.27320  0.99100  1.0000 0.1093734382
H   H104      1.0  0.72680  0.62930  0.32433  1.0000 0.1093734382
H   H105      1.0  0.37070  0.09750  0.65767  1.0000 0.1093734382
H   H106      1.0  0.09750  0.72680  0.49100  1.0000 0.1093734382
H   H107      1.0  0.27320  0.37070  0.82433  1.0000 0.1093734382
H   H108      1.0  0.62930  0.90250  0.15767  1.0000 0.1093734382
H   H109      1.0  0.95920  0.16790  0.00180  1.0000 0.1293018562
H   H110      1.0  0.83210  0.79130  0.33513  1.0000 0.1293018562
H   H111      1.0  0.20870  0.04080  0.66847  1.0000 0.1293018562
H   H112      1.0  0.04080  0.83210  0.50180  1.0000 0.1293018562
H   H113      1.0  0.16790  0.20870  0.83513  1.0000 0.1293018562
H   H114      1.0  0.79130  0.95920  0.16847  1.0000 0.1293018562
C   C1        1.0  0.31540  0.75120  0.41472  1.0000 -0.0058038311
C   C2        1.0  0.24880  0.56420  0.74805  1.0000 -0.0058038311
C   C3        1.0  0.43580  0.68460  0.08139  1.0000 -0.0058038311
C   C4        1.0  0.68460  0.24880  0.91472  1.0000 -0.0058038311
C   C5        1.0  0.75120  0.43580  0.24805  1.0000 -0.0058038311
C   C6        1.0  0.56420  0.31540  0.58139  1.0000 -0.0058038311
C   C7        1.0  0.36020  0.81800  0.46331  1.0000 -0.1473616764
C   C8        1.0  0.18200  0.54220  0.79664  1.0000 -0.1473616764
C   C9        1.0  0.45780  0.63980  0.12998  1.0000 -0.1473616764
C   C10       1.0  0.63980  0.18200  0.96331  1.0000 -0.1473616764
C   C11       1.0  0.81800  0.45780  0.29664  1.0000 -0.1473616764
C   C12       1.0  0.54220  0.36020  0.62998  1.0000 -0.1473616764
C   C13       1.0  0.44500  0.90650  0.45152  1.0000 -0.0058038311
C   C14       1.0  0.09350  0.53850  0.78485  1.0000 -0.0058038311
C   C15       1.0  0.46150  0.55500  0.11819  1.0000 -0.0058038311
C   C16       1.0  0.55500  0.09350  0.95152  1.0000 -0.0058038311
C   C17       1.0  0.90650  0.46150  0.28485  1.0000 -0.0058038311
C   C18       1.0  0.53850  0.44500  0.61819  1.0000 -0.0058038311
C   C19       1.0  0.48140  0.92920  0.39099  1.0000 -0.1894205598
C   C20       1.0  0.07080  0.55220  0.72432  1.0000 -0.1894205598
C   C21       1.0  0.44780  0.51860  0.05766  1.0000 -0.1894205598
C   C22       1.0  0.51860  0.07080  0.89099  1.0000 -0.1894205598
C   C23       1.0  0.92920  0.44780  0.22432  1.0000 -0.1894205598
C   C24       1.0  0.55220  0.48140  0.55766  1.0000 -0.1894205598
C   C25       1.0  0.43520  0.86570  0.34165  1.0000 0.0950105252
C   C26       1.0  0.13430  0.56950  0.67498  1.0000 0.0950105252
C   C27       1.0  0.43050  0.56480  0.00832  1.0000 0.0902204698
C   C28       1.0  0.56480  0.13430  0.84165  1.0000 0.0902204698
C   C29       1.0  0.86570  0.43050  0.17498  1.0000 0.0902204698
C   C30       1.0  0.56950  0.43520  0.50832  1.0000 0.0902204698
C   C31       1.0  0.35520  0.77650  0.35485  1.0000 -0.1730935711
C   C32       1.0  0.22350  0.57870  0.68818  1.0000 -0.1730935711
C   C33       1.0  0.42130  0.64480  0.02152  1.0000 -0.1730935711
C   C34       1.0  0.64480  0.22350  0.85485  1.0000 -0.1730935711
C   C35       1.0  0.77650  0.42130  0.18818  1.0000 -0.1730935711
C   C36       1.0  0.57870  0.35520  0.52152  1.0000 -0.1730935711
C   C37       1.0  0.47180  0.89300  0.27536  1.0000 -0.1894205598
C   C38       1.0  0.10700  0.57880  0.60869  1.0000 -0.1894205598
C   C39       1.0  0.42120  0.52820  0.94203  1.0000 -0.1894205598
C   C40       1.0  0.52820  0.10700  0.77536  1.0000 -0.1894205598
C   C41       1.0  0.89300  0.42120  0.10869  1.0000 -0.1894205598
C   C42       1.0  0.57880  0.47180  0.44203  1.0000 -0.1894205598
C   C43       1.0  0.32220  0.88010  0.23164  1.0000 -0.2811706873
C   C44       1.0  0.11990  0.44210  0.56497  1.0000 -0.2811706873
C   C45       1.0  0.55790  0.67780  0.89831  1.0000 -0.2811706873
C   C46       1.0  0.67780  0.11990  0.73164  1.0000 -0.2811706873
C   C47       1.0  0.88010  0.55790  0.06497  1.0000 -0.2811706873
C   C48       1.0  0.44210  0.32220  0.39831  1.0000 -0.2811706873
C   C49       1.0  0.28360  0.90310  0.17270  1.0000 0.612103985
C   C50       1.0  0.09690  0.38050  0.50603  1.0000 0.612103985
C   C51       1.0  0.61950  0.71640  0.83937  1.0000 0.612103985
C   C52       1.0  0.71640  0.09690  0.67270  1.0000 0.612103985
C   C53       1.0  0.90310  0.61950  0.00603  1.0000 0.612103985
C   C54       1.0  0.38050  0.28360  0.33937  1.0000 0.612103985
C   C55       1.0  0.45230  0.03550  0.26874  1.0000 -0.2811706873
C   C56       1.0  0.96450  0.41680  0.60207  1.0000 -0.2811706873
C   C57       1.0  0.58320  0.54770  0.93541  1.0000 -0.2811706873
C   C58       1.0  0.54770  0.96450  0.76874  1.0000 -0.2811706873
C   C59       1.0  0.03550  0.58320  0.10207  1.0000 -0.2811706873
C   C60       1.0  0.41680  0.45230  0.43541  1.0000 -0.2811706873
C   C61       1.0  0.45710  0.10900  0.22116  1.0000 0.612103985
C   C62       1.0  0.89100  0.34810  0.55449  1.0000 0.612103985
C   C63       1.0  0.65190  0.54290  0.88783  1.0000 0.612103985
C   C64       1.0  0.54290  0.89100  0.72116  1.0000 0.612103985
C   C65       1.0  0.10900  0.65190  0.05449  1.0000 0.612103985
C   C66       1.0  0.34810  0.45710  0.38783  1.0000 0.612103985
C   C67       1.0  0.22940  0.65010  0.42271  1.0000 0.5783658238
C   C68       1.0  0.34990  0.57930  0.75604  1.0000 0.5783658238
C   C69       1.0  0.42070  0.77060  0.08938  1.0000 0.5783658238
C   C70       1.0  0.77060  0.34990  0.92271  1.0000 0.5783658238
C   C71       1.0  0.65010  0.42070  0.25604  1.0000 0.5783658238
C   C72       1.0  0.57930  0.22940  0.58938  1.0000 0.5783658238
C   C73       1.0  0.50110  0.97730  0.50360  1.0000 0.5783658238
C   C74       1.0  0.02270  0.52380  0.83693  1.0000 0.5783658238
C   C75       1.0  0.47620  0.49890  0.17027  1.0000 0.5783658238
C   C76       1.0  0.49890  0.02270  0.00360  1.0000 0.5783658238
C   C77       1.0  0.97730  0.47620  0.33693  1.0000 0.5783658238
C   C78       1.0  0.52380  0.50110  0.67027  1.0000 0.5783658238
C   C79       1.0  0.27840  0.02810  0.02595  1.0000 0.0902204698
C   C80       1.0  0.97190  0.25030  0.35928  1.0000 0.0902204698
C   C81       1.0  0.74970  0.72160  0.69262  1.0000 0.0902204698
C   C82       1.0  0.72160  0.97190  0.52595  1.0000 0.0902204698
C   C83       1.0  0.02810  0.74970  0.85928  1.0000 0.0902204698
C   C84       1.0  0.25030  0.27840  0.19262  1.0000 0.0902204698
C   C85       1.0  0.24060  0.08860  0.02160  1.0000 -0.1971204542
C   C86       1.0  0.91140  0.15200  0.35493  1.0000 -0.1971204542
C   C87       1.0  0.84800  0.75940  0.68827  1.0000 -0.1971204542
C   C88       1.0  0.75940  0.91140  0.52160  1.0000 -0.1971204542
C   C89       1.0  0.08860  0.84800  0.85493  1.0000 -0.1971204542
C   C90       1.0  0.15200  0.24060  0.18827  1.0000 -0.1971204542
C   C91       1.0  0.14120  0.04980  0.01213  1.0000 0.1408806948
C   C92       1.0  0.95020  0.09140  0.34546  1.0000 0.1408806948
C   C93       1.0  0.90860  0.85880  0.67880  1.0000 0.1408806948
C   C94       1.0  0.85880  0.95020  0.51213  1.0000 0.1408806948
C   C95       1.0  0.04980  0.90860  0.84546  1.0000 0.1408806948
C   C96       1.0  0.09140  0.14120  0.17880  1.0000 0.1408806948
C   C97       1.0  0.08590  0.95020  0.00770  1.0000 -0.1971204542
C   C98       1.0  0.04980  0.13570  0.34103  1.0000 -0.1971204542
C   C99       1.0  0.86430  0.91410  0.67437  1.0000 -0.1971204542
C   C100      1.0  0.91410  0.04980  0.50770  1.0000 -0.1971204542
C   C101      1.0  0.95020  0.86430  0.84103  1.0000 -0.1971204542
C   C102      1.0  0.13570  0.08590  0.17437  1.0000 -0.1971204542
C   C103      1.0  0.12930  0.89360  0.01250  1.0000 0.1093734382
C   C104      1.0  0.10640  0.23570  0.34583  1.0000 0.1093734382
C   C105      1.0  0.76430  0.87070  0.67917  1.0000 0.1093734382
C   C106      1.0  0.87070  0.10640  0.51250  1.0000 0.1093734382
C   C107      1.0  0.89360  0.76430  0.84583  1.0000 0.1093734382
C   C108      1.0  0.23570  0.12930  0.17917  1.0000 0.1093734382
C   C109      1.0  0.09720  0.11150  0.00710  1.0000 -0.1473616764
C   C110      1.0  0.88850  0.98570  0.34043  1.0000 -0.1473616764
C   C111      1.0  0.01430  0.90280  0.67377  1.0000 -0.1473616764
C   C112      1.0  0.90280  0.88850  0.50710  1.0000 -0.1473616764
C   C113      1.0  0.11150  0.01430  0.84043  1.0000 -0.1473616764
C   C114      1.0  0.98570  0.09720  0.17377  1.0000 -0.1473616764
C   C115      1.0  0.14210  0.20550  0.01550  1.0000 -0.1473616764
C   C116      1.0  0.79450  0.93660  0.34883  1.0000 -0.1473616764
C   C117      1.0  0.06340  0.85790  0.68217  1.0000 -0.1473616764
C   C118      1.0  0.85790  0.79450  0.51550  1.0000 -0.1473616764
C   C119      1.0  0.20550  0.06340  0.84883  1.0000 -0.1473616764
C   C120      1.0  0.93660  0.14210  0.18217  1.0000 -0.1473616764
C   C121      1.0  0.10110  0.26930  0.01050  1.0000 0.1477551423
C   C122      1.0  0.73070  0.83180  0.34383  1.0000 0.1477551423
C   C123      1.0  0.16820  0.89890  0.67717  1.0000 0.1477551423
C   C124      1.0  0.89890  0.73070  0.51050  1.0000 0.1477551423
C   C125      1.0  0.26930  0.16820  0.84383  1.0000 0.1477551423
C   C126      1.0  0.83180  0.10110  0.17717  1.0000 0.1477551423
C   C127      1.0  0.15840  0.36770  0.01520  1.0000 -0.2077038723
C   C128      1.0  0.63230  0.79070  0.34853  1.0000 -0.2077038723
C   C129      1.0  0.20930  0.84160  0.68187  1.0000 -0.2077038723
C   C130      1.0  0.84160  0.63230  0.51520  1.0000 -0.2077038723
C   C131      1.0  0.36770  0.20930  0.84853  1.0000 -0.2077038723
C   C132      1.0  0.79070  0.15840  0.18187  1.0000 -0.2077038723
C   C133      1.0  0.11850  0.42710  0.00840  1.0000 0.0902204698
C   C134      1.0  0.57290  0.69140  0.34173  1.0000 0.0902204698
C   C135      1.0  0.30860  0.88150  0.67507  1.0000 0.0902204698
C   C136      1.0  0.88150  0.57290  0.50840  1.0000 0.0902204698
C   C137      1.0  0.42710  0.30860  0.84173  1.0000 0.0902204698
C   C138      1.0  0.69140  0.11850  0.17507  1.0000 0.0902204698
C   C139      1.0  0.96890  0.29860  0.99660  1.0000 0.0902204698
C   C140      1.0  0.70140  0.67030  0.32993  1.0000 0.0902204698
C   C141      1.0  0.32970  0.03110  0.66327  1.0000 0.0902204698
C   C142      1.0  0.03110  0.70140  0.49660  1.0000 0.0846325221
C   C143      1.0  0.29860  0.32970  0.82993  1.0000 0.0902204698
C   C144      1.0  0.67030  0.96890  0.16327  1.0000 0.0846325221
C   C145      1.0  0.00240  0.23450  0.00280  1.0000 -0.2077038723
C   C146      1.0  0.76550  0.76790  0.33613  1.0000 -0.2077038723
C   C147      1.0  0.23210  0.99760  0.66947  1.0000 -0.2077038723
C   C148      1.0  0.99760  0.76550  0.50280  1.0000 -0.2077038723
C   C149      1.0  0.23450  0.23210  0.83613  1.0000 -0.2077038723
C   C150      1.0  0.76790  0.00240  0.16947  1.0000 -0.2077038723
N   N1        1.0  0.42818  0.94171  0.23934  1.0000 -0.043453989
N   N2        1.0  0.05829  0.48647  0.57267  1.0000 -0.043453989
N   N3        1.0  0.51353  0.57182  0.90601  1.0000 -0.043453989
N   N4        1.0  0.57182  0.05829  0.73934  1.0000 -0.043453989
N   N5        1.0  0.94171  0.51353  0.07267  1.0000 -0.043453989
N   N6        1.0  0.48647  0.42818  0.40601  1.0000 -0.043453989
N   N7        1.0  0.22430  0.93165  0.02075  1.0000 -0.2523901351
N   N8        1.0  0.06835  0.29265  0.35408  1.0000 -0.2523901351
N   N9        1.0  0.70735  0.77570  0.68742  1.0000 -0.2523901351
N   N10       1.0  0.77570  0.06835  0.52075  1.0000 -0.2523901351
N   N11       1.0  0.93165  0.70735  0.85408  1.0000 -0.2523901351
N   N12       1.0  0.29265  0.22430  0.18742  1.0000 -0.2523901351
N   N13       1.0  0.02520  0.39412  0.99829  1.0000 -0.2298376797
N   N14       1.0  0.60588  0.63108  0.33162  1.0000 -0.2298376797
N   N15       1.0  0.36892  0.97480  0.66496  1.0000 -0.2298376797
N   N16       1.0  0.97480  0.60588  0.49829  1.0000 -0.2298376797
N   N17       1.0  0.39412  0.36892  0.83162  1.0000 -0.2298376797
N   N18       1.0  0.63108  0.02520  0.16496  1.0000 -0.2298376797
O   O1        1.0  0.33781  0.91753  0.12389  1.0000 -0.6029452769
O   O2        1.0  0.08247  0.42028  0.45722  1.0000 -0.6029452769
O   O3        1.0  0.57972  0.66219  0.79056  1.0000 -0.6029452769
O   O4        1.0  0.66219  0.08247  0.62389  1.0000 -0.6029452769
O   O5        1.0  0.91753  0.57972  0.95722  1.0000 -0.6029452769
O   O6        1.0  0.42028  0.33781  0.29056  1.0000 -0.6029452769
O   O7        1.0  0.20831  0.90490  0.17358  1.0000 -0.4888561306
O   O8        1.0  0.09510  0.30341  0.50691  1.0000 -0.4888561306
O   O9        1.0  0.69659  0.79169  0.84025  1.0000 -0.4888561306
O   O10       1.0  0.79169  0.09510  0.67358  1.0000 -0.4888561306
O   O11       1.0  0.90490  0.69659  0.00691  1.0000 -0.4888561306
O   O12       1.0  0.30341  0.20831  0.34025  1.0000 -0.4888561306
O   O13       1.0  0.48567  0.10523  0.16691  1.0000 -0.5436645486
O   O14       1.0  0.89477  0.38044  0.50024  1.0000 -0.5436645486
O   O15       1.0  0.61956  0.51433  0.83358  1.0000 -0.5436645486
O   O16       1.0  0.51433  0.89477  0.66691  1.0000 -0.5436645486
O   O17       1.0  0.10523  0.61956  0.00024  1.0000 -0.5436645486
O   O18       1.0  0.38044  0.48567  0.33358  1.0000 -0.5436645486
O   O19       1.0  0.43587  0.16950  0.24094  1.0000 -0.5498970834
O   O20       1.0  0.83050  0.26637  0.57427  1.0000 -0.5498970834
O   O21       1.0  0.73363  0.56413  0.90761  1.0000 -0.5498970834
O   O22       1.0  0.56413  0.83050  0.74094  1.0000 -0.5498970834
O   O23       1.0  0.16950  0.73363  0.07427  1.0000 -0.5498970834
O   O24       1.0  0.26637  0.43587  0.40761  1.0000 -0.5498970834
O   O25       1.0  0.22467  0.58969  0.38368  1.0000 -0.5436645486
O   O26       1.0  0.41031  0.63498  0.71701  1.0000 -0.5436645486
O   O27       1.0  0.36502  0.77533  0.05035  1.0000 -0.5436645486
O   O28       1.0  0.77533  0.41031  0.88368  1.0000 -0.5436645486
O   O29       1.0  0.58969  0.36502  0.21701  1.0000 -0.5436645486
O   O30       1.0  0.63498  0.22467  0.55035  1.0000 -0.5436645486
O   O31       1.0  0.16973  0.63473  0.46578  1.0000 -0.5709407417
O   O32       1.0  0.36527  0.53500  0.79911  1.0000 -0.5709407417
O   O33       1.0  0.46500  0.83027  0.13245  1.0000 -0.5709407417
O   O34       1.0  0.83027  0.36527  0.96578  1.0000 -0.5709407417
O   O35       1.0  0.63473  0.46500  0.29911  1.0000 -0.5709407417
O   O36       1.0  0.53500  0.16973  0.63245  1.0000 -0.5709407417
O   O37       1.0  0.46243  0.96309  0.55615  1.0000 -0.5279115526
O   O38       1.0  0.03691  0.49934  0.88948  1.0000 -0.5279115526
O   O39       1.0  0.50066  0.53757  0.22282  1.0000 -0.5279115526
O   O40       1.0  0.53757  0.03691  0.05615  1.0000 -0.5279115526
O   O41       1.0  0.96309  0.50066  0.38948  1.0000 -0.5279115526
O   O42       1.0  0.49934  0.46243  0.72282  1.0000 -0.5279115526
O   O43       1.0  0.58429  0.04414  0.48918  1.0000 -0.5831475246
O   O44       1.0  0.95586  0.54015  0.82251  1.0000 -0.5831475246
O   O45       1.0  0.45985  0.41571  0.15585  1.0000 -0.5831475246
O   O46       1.0  0.41571  0.95586  0.98918  1.0000 -0.5831475246
O   O47       1.0  0.04414  0.45985  0.32251  1.0000 -0.5831475246
O   O48       1.0  0.54015  0.58429  0.65585  1.0000 -0.5831475246
