# DDEC6 charges by PACMAN v1.1 (https://github.com/mtap-research/PACMAN-charge/)
data_2013[Zn][pbz]3[ASR]1
_chemical_formula_sum              "Zn48 H624 C1008 N144 O288"
_cell_length_a       50.8198
_cell_length_b       50.8198
_cell_length_c       50.8198
_cell_angle_alpha    60
_cell_angle_beta     60
_cell_angle_gamma    60

_symmetry_space_group_name_H-M    "P 1"
_symmetry_Int_Tables_number       1

loop_
  _symmetry_equiv_pos_as_xyz
  'x, y, z'

loop_
  _atom_site_type_symbol
  _atom_site_label
  _atom_site_symmetry_multiplicity
  _atom_site_fract_x
  _atom_site_fract_y
  _atom_site_fract_z
  _atom_site_occupancy
  _atom_site_charge
Zn  Zn1       1.0  0.52781  0.82601  0.43371  1.0000 0.8094363349
Zn  Zn2       1.0  0.82601  0.52781  0.21247  1.0000 0.8094363349
Zn  Zn3       1.0  0.43371  0.21247  0.52781  1.0000 0.8094363349
Zn  Zn4       1.0  0.21247  0.43371  0.82601  1.0000 0.8094363349
Zn  Zn5       1.0  0.52781  0.21247  0.82601  1.0000 0.8094363349
Zn  Zn6       1.0  0.21247  0.52781  0.43371  1.0000 0.8094363349
Zn  Zn7       1.0  0.82601  0.43371  0.52781  1.0000 0.8094363349
Zn  Zn8       1.0  0.43371  0.82601  0.21247  1.0000 0.8094363349
Zn  Zn9       1.0  0.82601  0.21247  0.43371  1.0000 0.8094363349
Zn  Zn10      1.0  0.52781  0.43371  0.21247  1.0000 0.8094363349
Zn  Zn11      1.0  0.21247  0.82601  0.52781  1.0000 0.8094363349
Zn  Zn12      1.0  0.43371  0.52781  0.82601  1.0000 0.8094363349
Zn  Zn13      1.0  0.93371  0.71247  0.32601  1.0000 0.8094363349
Zn  Zn14      1.0  0.71247  0.93371  0.02781  1.0000 0.8094363349
Zn  Zn15      1.0  0.02781  0.32601  0.71247  1.0000 0.8094363349
Zn  Zn16      1.0  0.32601  0.02781  0.93371  1.0000 0.8094363349
Zn  Zn17      1.0  0.32601  0.93371  0.71247  1.0000 0.8094363349
Zn  Zn18      1.0  0.93371  0.32601  0.02781  1.0000 0.8094363349
Zn  Zn19      1.0  0.02781  0.71247  0.93371  1.0000 0.8094363349
Zn  Zn20      1.0  0.71247  0.02781  0.32601  1.0000 0.8094363349
Zn  Zn21      1.0  0.71247  0.32601  0.93371  1.0000 0.8094363349
Zn  Zn22      1.0  0.02781  0.93371  0.32601  1.0000 0.8094363349
Zn  Zn23      1.0  0.32601  0.71247  0.02781  1.0000 0.8094363349
Zn  Zn24      1.0  0.93371  0.02781  0.71247  1.0000 0.8094363349
Zn  Zn25      1.0  0.81629  0.03753  0.42399  1.0000 0.8094363349
Zn  Zn26      1.0  0.03753  0.81629  0.72219  1.0000 0.8094363349
Zn  Zn27      1.0  0.72219  0.42399  0.03753  1.0000 0.8094363349
Zn  Zn28      1.0  0.42399  0.72219  0.81629  1.0000 0.8094363349
Zn  Zn29      1.0  0.42399  0.81629  0.03753  1.0000 0.8094363349
Zn  Zn30      1.0  0.81629  0.42399  0.72219  1.0000 0.8094363349
Zn  Zn31      1.0  0.72219  0.03753  0.81629  1.0000 0.8094363349
Zn  Zn32      1.0  0.03753  0.72219  0.42399  1.0000 0.8094363349
Zn  Zn33      1.0  0.03753  0.42399  0.81629  1.0000 0.8094363349
Zn  Zn34      1.0  0.72219  0.81629  0.42399  1.0000 0.8094363349
Zn  Zn35      1.0  0.42399  0.03753  0.72219  1.0000 0.8094363349
Zn  Zn36      1.0  0.81629  0.72219  0.03753  1.0000 0.8094363349
Zn  Zn37      1.0  0.22219  0.92399  0.31629  1.0000 0.8094363349
Zn  Zn38      1.0  0.92399  0.22219  0.53753  1.0000 0.8094363349
Zn  Zn39      1.0  0.31629  0.53753  0.22219  1.0000 0.8094363349
Zn  Zn40      1.0  0.53753  0.31629  0.92399  1.0000 0.8094363349
Zn  Zn41      1.0  0.22219  0.53753  0.92399  1.0000 0.8094363349
Zn  Zn42      1.0  0.53753  0.22219  0.31629  1.0000 0.8094363349
Zn  Zn43      1.0  0.92399  0.31629  0.22219  1.0000 0.8094363349
Zn  Zn44      1.0  0.31629  0.92399  0.53753  1.0000 0.8094363349
Zn  Zn45      1.0  0.92399  0.53753  0.31629  1.0000 0.8094363349
Zn  Zn46      1.0  0.22219  0.31629  0.53753  1.0000 0.8094363349
Zn  Zn47      1.0  0.53753  0.92399  0.22219  1.0000 0.8094363349
Zn  Zn48      1.0  0.31629  0.22219  0.92399  1.0000 0.8094363349
H   H1        1.0  0.32690  0.82970  0.56630  1.0000 0.1384764335
H   H2        1.0  0.82970  0.32690  0.27710  1.0000 0.1384764335
H   H3        1.0  0.56630  0.27710  0.32690  1.0000 0.1384764335
H   H4        1.0  0.27710  0.56630  0.82970  1.0000 0.1384764335
H   H5        1.0  0.32690  0.27710  0.82970  1.0000 0.1384764335
H   H6        1.0  0.27710  0.32690  0.56630  1.0000 0.1384764335
H   H7        1.0  0.82970  0.56630  0.32690  1.0000 0.1384764335
H   H8        1.0  0.56630  0.82970  0.27710  1.0000 0.1384764335
H   H9        1.0  0.82970  0.27710  0.56630  1.0000 0.1384764335
H   H10       1.0  0.32690  0.56630  0.27710  1.0000 0.1384764335
H   H11       1.0  0.27710  0.82970  0.32690  1.0000 0.1384764335
H   H12       1.0  0.56630  0.32690  0.82970  1.0000 0.1384764335
H   H13       1.0  0.06630  0.77710  0.32970  1.0000 0.1384764335
H   H14       1.0  0.77710  0.06630  0.82690  1.0000 0.1384764335
H   H15       1.0  0.82690  0.32970  0.77710  1.0000 0.1384764335
H   H16       1.0  0.32970  0.82690  0.06630  1.0000 0.1384764335
H   H17       1.0  0.32970  0.06630  0.77710  1.0000 0.1384764335
H   H18       1.0  0.06630  0.32970  0.82690  1.0000 0.1384764335
H   H19       1.0  0.82690  0.77710  0.06630  1.0000 0.1384764335
H   H20       1.0  0.77710  0.82690  0.32970  1.0000 0.1384764335
H   H21       1.0  0.77710  0.32970  0.06630  1.0000 0.1384764335
H   H22       1.0  0.82690  0.06630  0.32970  1.0000 0.1384764335
H   H23       1.0  0.32970  0.77710  0.82690  1.0000 0.1384764335
H   H24       1.0  0.06630  0.82690  0.77710  1.0000 0.1384764335
H   H25       1.0  0.46030  0.82690  0.45410  1.0000 0.1268562171
H   H26       1.0  0.82690  0.46030  0.25870  1.0000 0.1268562171
H   H27       1.0  0.45410  0.25870  0.46030  1.0000 0.1268562171
H   H28       1.0  0.25870  0.45410  0.82690  1.0000 0.1268562171
H   H29       1.0  0.46030  0.25870  0.82690  1.0000 0.1268562171
H   H30       1.0  0.25870  0.46030  0.45410  1.0000 0.1268562171
H   H31       1.0  0.82690  0.45410  0.46030  1.0000 0.1268562171
H   H32       1.0  0.45410  0.82690  0.25870  1.0000 0.1268562171
H   H33       1.0  0.82690  0.25870  0.45410  1.0000 0.1268562171
H   H34       1.0  0.46030  0.45410  0.25870  1.0000 0.1268562171
H   H35       1.0  0.25870  0.82690  0.46030  1.0000 0.1268562171
H   H36       1.0  0.45410  0.46030  0.82690  1.0000 0.1268562171
H   H37       1.0  0.95410  0.75870  0.32690  1.0000 0.1268562171
H   H38       1.0  0.75870  0.95410  0.96030  1.0000 0.1268562171
H   H39       1.0  0.96030  0.32690  0.75870  1.0000 0.1268562171
H   H40       1.0  0.32690  0.96030  0.95410  1.0000 0.1268562171
H   H41       1.0  0.32690  0.95410  0.75870  1.0000 0.1268562171
H   H42       1.0  0.95410  0.32690  0.96030  1.0000 0.1268562171
H   H43       1.0  0.96030  0.75870  0.95410  1.0000 0.1268562171
H   H44       1.0  0.75870  0.96030  0.32690  1.0000 0.1268562171
H   H45       1.0  0.75870  0.32690  0.95410  1.0000 0.1268562171
H   H46       1.0  0.96030  0.95410  0.32690  1.0000 0.1268562171
H   H47       1.0  0.32690  0.75870  0.96030  1.0000 0.1268562171
H   H48       1.0  0.95410  0.96030  0.75870  1.0000 0.1268562171
H   H49       1.0  0.30760  0.83600  0.48420  1.0000 0.1268562171
H   H50       1.0  0.83600  0.30760  0.37220  1.0000 0.1268562171
H   H51       1.0  0.48420  0.37220  0.30760  1.0000 0.1268562171
H   H52       1.0  0.37220  0.48420  0.83600  1.0000 0.1268562171
H   H53       1.0  0.30760  0.37220  0.83600  1.0000 0.1268562171
H   H54       1.0  0.37220  0.30760  0.48420  1.0000 0.1268562171
H   H55       1.0  0.83600  0.48420  0.30760  1.0000 0.1268562171
H   H56       1.0  0.48420  0.83600  0.37220  1.0000 0.1268562171
H   H57       1.0  0.83600  0.37220  0.48420  1.0000 0.1268562171
H   H58       1.0  0.30760  0.48420  0.37220  1.0000 0.1268562171
H   H59       1.0  0.37220  0.83600  0.30760  1.0000 0.1268562171
H   H60       1.0  0.48420  0.30760  0.83600  1.0000 0.1268562171
H   H61       1.0  0.98420  0.87220  0.33600  1.0000 0.1268562171
H   H62       1.0  0.87220  0.98420  0.80760  1.0000 0.1268562171
H   H63       1.0  0.80760  0.33600  0.87220  1.0000 0.1268562171
H   H64       1.0  0.33600  0.80760  0.98420  1.0000 0.1268562171
H   H65       1.0  0.33600  0.98420  0.87220  1.0000 0.1268562171
H   H66       1.0  0.98420  0.33600  0.80760  1.0000 0.1268562171
H   H67       1.0  0.80760  0.87220  0.98420  1.0000 0.1268562171
H   H68       1.0  0.87220  0.80760  0.33600  1.0000 0.1268562171
H   H69       1.0  0.87220  0.33600  0.98420  1.0000 0.1268562171
H   H70       1.0  0.80760  0.98420  0.33600  1.0000 0.1268562171
H   H71       1.0  0.33600  0.87220  0.80760  1.0000 0.1268562171
H   H72       1.0  0.98420  0.80760  0.87220  1.0000 0.1268562171
H   H73       1.0  0.35160  0.94140  0.61420  1.0000 0.1203770878
H   H74       1.0  0.94140  0.35160  0.09280  1.0000 0.1203770878
H   H75       1.0  0.61420  0.09280  0.35160  1.0000 0.1203770878
H   H76       1.0  0.09280  0.61420  0.94140  1.0000 0.1203770878
H   H77       1.0  0.35160  0.09280  0.94140  1.0000 0.1203770878
H   H78       1.0  0.09280  0.35160  0.61420  1.0000 0.1203770878
H   H79       1.0  0.94140  0.61420  0.35160  1.0000 0.1203770878
H   H80       1.0  0.61420  0.94140  0.09280  1.0000 0.1203770878
H   H81       1.0  0.94140  0.09280  0.61420  1.0000 0.1203770878
H   H82       1.0  0.35160  0.61420  0.09280  1.0000 0.1203770878
H   H83       1.0  0.09280  0.94140  0.35160  1.0000 0.1203770878
H   H84       1.0  0.61420  0.35160  0.94140  1.0000 0.1203770878
H   H85       1.0  0.11420  0.59280  0.44140  1.0000 0.1203770878
H   H86       1.0  0.59280  0.11420  0.85160  1.0000 0.1203770878
H   H87       1.0  0.85160  0.44140  0.59280  1.0000 0.1203770878
H   H88       1.0  0.44140  0.85160  0.11420  1.0000 0.1203770878
H   H89       1.0  0.44140  0.11420  0.59280  1.0000 0.1203770878
H   H90       1.0  0.11420  0.44140  0.85160  1.0000 0.1203770878
H   H91       1.0  0.85160  0.59280  0.11420  1.0000 0.1203770878
H   H92       1.0  0.59280  0.85160  0.44140  1.0000 0.1203770878
H   H93       1.0  0.59280  0.44140  0.11420  1.0000 0.1203770878
H   H94       1.0  0.85160  0.11420  0.44140  1.0000 0.1203770878
H   H95       1.0  0.44140  0.59280  0.85160  1.0000 0.1203770878
H   H96       1.0  0.11420  0.85160  0.59280  1.0000 0.1203770878
H   H97       1.0  0.42710  0.87270  0.64030  1.0000 0.1203770878
H   H98       1.0  0.87270  0.42710  0.05990  1.0000 0.1203770878
H   H99       1.0  0.64030  0.05990  0.42710  1.0000 0.1203770878
H   H100      1.0  0.05990  0.64030  0.87270  1.0000 0.1203770878
H   H101      1.0  0.42710  0.05990  0.87270  1.0000 0.1203770878
H   H102      1.0  0.05990  0.42710  0.64030  1.0000 0.1203770878
H   H103      1.0  0.87270  0.64030  0.42710  1.0000 0.1203770878
H   H104      1.0  0.64030  0.87270  0.05990  1.0000 0.1203770878
H   H105      1.0  0.87270  0.05990  0.64030  1.0000 0.1203770878
H   H106      1.0  0.42710  0.64030  0.05990  1.0000 0.1203770878
H   H107      1.0  0.05990  0.87270  0.42710  1.0000 0.1203770878
H   H108      1.0  0.64030  0.42710  0.87270  1.0000 0.1203770878
H   H109      1.0  0.14030  0.55990  0.37270  1.0000 0.1203770878
H   H110      1.0  0.55990  0.14030  0.92710  1.0000 0.1203770878
H   H111      1.0  0.92710  0.37270  0.55990  1.0000 0.1203770878
H   H112      1.0  0.37270  0.92710  0.14030  1.0000 0.1203770878
H   H113      1.0  0.37270  0.14030  0.55990  1.0000 0.1203770878
H   H114      1.0  0.14030  0.37270  0.92710  1.0000 0.1203770878
H   H115      1.0  0.92710  0.55990  0.14030  1.0000 0.1203770878
H   H116      1.0  0.55990  0.92710  0.37270  1.0000 0.1203770878
H   H117      1.0  0.55990  0.37270  0.14030  1.0000 0.1203770878
H   H118      1.0  0.92710  0.14030  0.37270  1.0000 0.1203770878
H   H119      1.0  0.37270  0.55990  0.92710  1.0000 0.1203770878
H   H120      1.0  0.14030  0.92710  0.55990  1.0000 0.1203770878
H   H121      1.0  0.40410  0.85290  0.53290  1.0000 0.1268562171
H   H122      1.0  0.85290  0.40410  0.21010  1.0000 0.1268562171
H   H123      1.0  0.53290  0.21010  0.40410  1.0000 0.1268562171
H   H124      1.0  0.21010  0.53290  0.85290  1.0000 0.1268562171
H   H125      1.0  0.40410  0.21010  0.85290  1.0000 0.1268562171
H   H126      1.0  0.21010  0.40410  0.53290  1.0000 0.1268562171
H   H127      1.0  0.85290  0.53290  0.40410  1.0000 0.1268562171
H   H128      1.0  0.53290  0.85290  0.21010  1.0000 0.1268562171
H   H129      1.0  0.85290  0.21010  0.53290  1.0000 0.1268562171
H   H130      1.0  0.40410  0.53290  0.21010  1.0000 0.1268562171
H   H131      1.0  0.21010  0.85290  0.40410  1.0000 0.1268562171
H   H132      1.0  0.53290  0.40410  0.85290  1.0000 0.1268562171
H   H133      1.0  0.03290  0.71010  0.35290  1.0000 0.1268562171
H   H134      1.0  0.71010  0.03290  0.90410  1.0000 0.1268562171
H   H135      1.0  0.90410  0.35290  0.71010  1.0000 0.1268562171
H   H136      1.0  0.35290  0.90410  0.03290  1.0000 0.1268562171
H   H137      1.0  0.35290  0.03290  0.71010  1.0000 0.1268562171
H   H138      1.0  0.03290  0.35290  0.90410  1.0000 0.1268562171
H   H139      1.0  0.90410  0.71010  0.03290  1.0000 0.1268562171
H   H140      1.0  0.71010  0.90410  0.35290  1.0000 0.1268562171
H   H141      1.0  0.71010  0.35290  0.03290  1.0000 0.1268562171
H   H142      1.0  0.90410  0.03290  0.35290  1.0000 0.1268562171
H   H143      1.0  0.35290  0.71010  0.90410  1.0000 0.1268562171
H   H144      1.0  0.03290  0.90410  0.71010  1.0000 0.1268562171
H   H145      1.0  0.35540  0.83980  0.47360  1.0000 0.1384764335
H   H146      1.0  0.83980  0.35540  0.33120  1.0000 0.1384764335
H   H147      1.0  0.47360  0.33120  0.35540  1.0000 0.1384764335
H   H148      1.0  0.33120  0.47360  0.83980  1.0000 0.1384764335
H   H149      1.0  0.35540  0.33120  0.83980  1.0000 0.1384764335
H   H150      1.0  0.33120  0.35540  0.47360  1.0000 0.1384764335
H   H151      1.0  0.83980  0.47360  0.35540  1.0000 0.1384764335
H   H152      1.0  0.47360  0.83980  0.33120  1.0000 0.1384764335
H   H153      1.0  0.83980  0.33120  0.47360  1.0000 0.1384764335
H   H154      1.0  0.35540  0.47360  0.33120  1.0000 0.1384764335
H   H155      1.0  0.33120  0.83980  0.35540  1.0000 0.1384764335
H   H156      1.0  0.47360  0.35540  0.83980  1.0000 0.1384764335
H   H157      1.0  0.97360  0.83120  0.33980  1.0000 0.1384764335
H   H158      1.0  0.83120  0.97360  0.85540  1.0000 0.1384764335
H   H159      1.0  0.85540  0.33980  0.83120  1.0000 0.1384764335
H   H160      1.0  0.33980  0.85540  0.97360  1.0000 0.1384764335
H   H161      1.0  0.33980  0.97360  0.83120  1.0000 0.1384764335
H   H162      1.0  0.97360  0.33980  0.85540  1.0000 0.1384764335
H   H163      1.0  0.85540  0.83120  0.97360  1.0000 0.1384764335
H   H164      1.0  0.83120  0.85540  0.33980  1.0000 0.1384764335
H   H165      1.0  0.83120  0.33980  0.97360  1.0000 0.1384764335
H   H166      1.0  0.85540  0.97360  0.33980  1.0000 0.1384764335
H   H167      1.0  0.33980  0.83120  0.85540  1.0000 0.1384764335
H   H168      1.0  0.97360  0.85540  0.83120  1.0000 0.1384764335
H   H169      1.0  0.49710  0.84710  0.49090  1.0000 0.1268562171
H   H170      1.0  0.84710  0.49710  0.16490  1.0000 0.1268562171
H   H171      1.0  0.49090  0.16490  0.49710  1.0000 0.1268562171
H   H172      1.0  0.16490  0.49090  0.84710  1.0000 0.1268562171
H   H173      1.0  0.49710  0.16490  0.84710  1.0000 0.1268562171
H   H174      1.0  0.16490  0.49710  0.49090  1.0000 0.1268562171
H   H175      1.0  0.84710  0.49090  0.49710  1.0000 0.1268562171
H   H176      1.0  0.49090  0.84710  0.16490  1.0000 0.1268562171
H   H177      1.0  0.84710  0.16490  0.49090  1.0000 0.1268562171
H   H178      1.0  0.49710  0.49090  0.16490  1.0000 0.1268562171
H   H179      1.0  0.16490  0.84710  0.49710  1.0000 0.1268562171
H   H180      1.0  0.49090  0.49710  0.84710  1.0000 0.1268562171
H   H181      1.0  0.99090  0.66490  0.34710  1.0000 0.1268562171
H   H182      1.0  0.66490  0.99090  0.99710  1.0000 0.1268562171
H   H183      1.0  0.99710  0.34710  0.66490  1.0000 0.1268562171
H   H184      1.0  0.34710  0.99710  0.99090  1.0000 0.1268562171
H   H185      1.0  0.34710  0.99090  0.66490  1.0000 0.1268562171
H   H186      1.0  0.99090  0.34710  0.99710  1.0000 0.1268562171
H   H187      1.0  0.99710  0.66490  0.99090  1.0000 0.1268562171
H   H188      1.0  0.66490  0.99710  0.34710  1.0000 0.1268562171
H   H189      1.0  0.66490  0.34710  0.99090  1.0000 0.1268562171
H   H190      1.0  0.99710  0.99090  0.34710  1.0000 0.1268562171
H   H191      1.0  0.34710  0.66490  0.99710  1.0000 0.1268562171
H   H192      1.0  0.99090  0.99710  0.66490  1.0000 0.1268562171
H   H193      1.0  0.44820  0.85900  0.59520  1.0000 0.1384764335
H   H194      1.0  0.85900  0.44820  0.09760  1.0000 0.1384764335
H   H195      1.0  0.59520  0.09760  0.44820  1.0000 0.1384764335
H   H196      1.0  0.09760  0.59520  0.85900  1.0000 0.1384764335
H   H197      1.0  0.44820  0.09760  0.85900  1.0000 0.1384764335
H   H198      1.0  0.09760  0.44820  0.59520  1.0000 0.1384764335
H   H199      1.0  0.85900  0.59520  0.44820  1.0000 0.1384764335
H   H200      1.0  0.59520  0.85900  0.09760  1.0000 0.1384764335
H   H201      1.0  0.85900  0.09760  0.59520  1.0000 0.1384764335
H   H202      1.0  0.44820  0.59520  0.09760  1.0000 0.1384764335
H   H203      1.0  0.09760  0.85900  0.44820  1.0000 0.1384764335
H   H204      1.0  0.59520  0.44820  0.85900  1.0000 0.1384764335
H   H205      1.0  0.09520  0.59760  0.35900  1.0000 0.1384764335
H   H206      1.0  0.59760  0.09520  0.94820  1.0000 0.1384764335
H   H207      1.0  0.94820  0.35900  0.59760  1.0000 0.1384764335
H   H208      1.0  0.35900  0.94820  0.09520  1.0000 0.1384764335
H   H209      1.0  0.35900  0.09520  0.59760  1.0000 0.1384764335
H   H210      1.0  0.09520  0.35900  0.94820  1.0000 0.1384764335
H   H211      1.0  0.94820  0.59760  0.09520  1.0000 0.1384764335
H   H212      1.0  0.59760  0.94820  0.35900  1.0000 0.1384764335
H   H213      1.0  0.59760  0.35900  0.09520  1.0000 0.1384764335
H   H214      1.0  0.94820  0.09520  0.35900  1.0000 0.1384764335
H   H215      1.0  0.35900  0.59760  0.94820  1.0000 0.1384764335
H   H216      1.0  0.09520  0.94820  0.59760  1.0000 0.1384764335
H   H217      1.0  0.37390  0.92870  0.56710  1.0000 0.1384764335
H   H218      1.0  0.92870  0.37390  0.13030  1.0000 0.1384764335
H   H219      1.0  0.56710  0.13030  0.37390  1.0000 0.1384764335
H   H220      1.0  0.13030  0.56710  0.92870  1.0000 0.1384764335
H   H221      1.0  0.37390  0.13030  0.92870  1.0000 0.1384764335
H   H222      1.0  0.13030  0.37390  0.56710  1.0000 0.1384764335
H   H223      1.0  0.92870  0.56710  0.37390  1.0000 0.1384764335
H   H224      1.0  0.56710  0.92870  0.13030  1.0000 0.1384764335
H   H225      1.0  0.92870  0.13030  0.56710  1.0000 0.1384764335
H   H226      1.0  0.37390  0.56710  0.13030  1.0000 0.1384764335
H   H227      1.0  0.13030  0.92870  0.37390  1.0000 0.1384764335
H   H228      1.0  0.56710  0.37390  0.92870  1.0000 0.1384764335
H   H229      1.0  0.06710  0.63030  0.42870  1.0000 0.1384764335
H   H230      1.0  0.63030  0.06710  0.87390  1.0000 0.1384764335
H   H231      1.0  0.87390  0.42870  0.63030  1.0000 0.1384764335
H   H232      1.0  0.42870  0.87390  0.06710  1.0000 0.1384764335
H   H233      1.0  0.42870  0.06710  0.63030  1.0000 0.1384764335
H   H234      1.0  0.06710  0.42870  0.87390  1.0000 0.1384764335
H   H235      1.0  0.87390  0.63030  0.06710  1.0000 0.1384764335
H   H236      1.0  0.63030  0.87390  0.42870  1.0000 0.1384764335
H   H237      1.0  0.63030  0.42870  0.06710  1.0000 0.1384764335
H   H238      1.0  0.87390  0.06710  0.42870  1.0000 0.1384764335
H   H239      1.0  0.42870  0.63030  0.87390  1.0000 0.1384764335
H   H240      1.0  0.06710  0.87390  0.63030  1.0000 0.1384764335
H   H241      1.0  0.28100  0.82340  0.57640  1.0000 0.1203770878
H   H242      1.0  0.82340  0.28100  0.31920  1.0000 0.1203770878
H   H243      1.0  0.57640  0.31920  0.28100  1.0000 0.1203770878
H   H244      1.0  0.31920  0.57640  0.82340  1.0000 0.1203770878
H   H245      1.0  0.28100  0.31920  0.82340  1.0000 0.1203770878
H   H246      1.0  0.31920  0.28100  0.57640  1.0000 0.1203770878
H   H247      1.0  0.82340  0.57640  0.28100  1.0000 0.1203770878
H   H248      1.0  0.57640  0.82340  0.31920  1.0000 0.1203770878
H   H249      1.0  0.82340  0.31920  0.57640  1.0000 0.1203770878
H   H250      1.0  0.28100  0.57640  0.31920  1.0000 0.1203770878
H   H251      1.0  0.31920  0.82340  0.28100  1.0000 0.1203770878
H   H252      1.0  0.57640  0.28100  0.82340  1.0000 0.1203770878
H   H253      1.0  0.07640  0.81920  0.32340  1.0000 0.1203770878
H   H254      1.0  0.81920  0.07640  0.78100  1.0000 0.1203770878
H   H255      1.0  0.78100  0.32340  0.81920  1.0000 0.1203770878
H   H256      1.0  0.32340  0.78100  0.07640  1.0000 0.1203770878
H   H257      1.0  0.32340  0.07640  0.81920  1.0000 0.1203770878
H   H258      1.0  0.07640  0.32340  0.78100  1.0000 0.1203770878
H   H259      1.0  0.78100  0.81920  0.07640  1.0000 0.1203770878
H   H260      1.0  0.81920  0.78100  0.32340  1.0000 0.1203770878
H   H261      1.0  0.81920  0.32340  0.07640  1.0000 0.1203770878
H   H262      1.0  0.78100  0.07640  0.32340  1.0000 0.1203770878
H   H263      1.0  0.32340  0.81920  0.78100  1.0000 0.1203770878
H   H264      1.0  0.07640  0.78100  0.81920  1.0000 0.1203770878
H   H265      1.0  0.37250  0.84330  0.53010  1.0000 0.2923634288
H   H266      1.0  0.84330  0.37250  0.25410  1.0000 0.2923634288
H   H267      1.0  0.53010  0.25410  0.37250  1.0000 0.2923634288
H   H268      1.0  0.25410  0.53010  0.84330  1.0000 0.2923634288
H   H269      1.0  0.37250  0.25410  0.84330  1.0000 0.2923634288
H   H270      1.0  0.25410  0.37250  0.53010  1.0000 0.2923634288
H   H271      1.0  0.84330  0.53010  0.37250  1.0000 0.2923634288
H   H272      1.0  0.53010  0.84330  0.25410  1.0000 0.2923634288
H   H273      1.0  0.84330  0.25410  0.53010  1.0000 0.2923634288
H   H274      1.0  0.37250  0.53010  0.25410  1.0000 0.2923634288
H   H275      1.0  0.25410  0.84330  0.37250  1.0000 0.2923634288
H   H276      1.0  0.53010  0.37250  0.84330  1.0000 0.2923634288
H   H277      1.0  0.03010  0.75410  0.34330  1.0000 0.2923634288
H   H278      1.0  0.75410  0.03010  0.87250  1.0000 0.2923634288
H   H279      1.0  0.87250  0.34330  0.75410  1.0000 0.2923634288
H   H280      1.0  0.34330  0.87250  0.03010  1.0000 0.2923634288
H   H281      1.0  0.34330  0.03010  0.75410  1.0000 0.2923634288
H   H282      1.0  0.03010  0.34330  0.87250  1.0000 0.2923634288
H   H283      1.0  0.87250  0.75410  0.03010  1.0000 0.2923634288
H   H284      1.0  0.75410  0.87250  0.34330  1.0000 0.2923634288
H   H285      1.0  0.75410  0.34330  0.03010  1.0000 0.2923634288
H   H286      1.0  0.87250  0.03010  0.34330  1.0000 0.2923634288
H   H287      1.0  0.34330  0.75410  0.87250  1.0000 0.2923634288
H   H288      1.0  0.03010  0.87250  0.75410  1.0000 0.2923634288
H   H289      1.0  0.40860  0.89180  0.54080  1.0000 0.2923634288
H   H290      1.0  0.89180  0.40860  0.15880  1.0000 0.2923634288
H   H291      1.0  0.54080  0.15880  0.40860  1.0000 0.2923634288
H   H292      1.0  0.15880  0.54080  0.89180  1.0000 0.2923634288
H   H293      1.0  0.40860  0.15880  0.89180  1.0000 0.2923634288
H   H294      1.0  0.15880  0.40860  0.54080  1.0000 0.2923634288
H   H295      1.0  0.89180  0.54080  0.40860  1.0000 0.2923634288
H   H296      1.0  0.54080  0.89180  0.15880  1.0000 0.2923634288
H   H297      1.0  0.89180  0.15880  0.54080  1.0000 0.2923634288
H   H298      1.0  0.40860  0.54080  0.15880  1.0000 0.2923634288
H   H299      1.0  0.15880  0.89180  0.40860  1.0000 0.2923634288
H   H300      1.0  0.54080  0.40860  0.89180  1.0000 0.2923634288
H   H301      1.0  0.04080  0.65880  0.39180  1.0000 0.2923634288
H   H302      1.0  0.65880  0.04080  0.90860  1.0000 0.2923634288
H   H303      1.0  0.90860  0.39180  0.65880  1.0000 0.2923634288
H   H304      1.0  0.39180  0.90860  0.04080  1.0000 0.2923634288
H   H305      1.0  0.39180  0.04080  0.65880  1.0000 0.2923634288
H   H306      1.0  0.04080  0.39180  0.90860  1.0000 0.2923634288
H   H307      1.0  0.90860  0.65880  0.04080  1.0000 0.2923634288
H   H308      1.0  0.65880  0.90860  0.39180  1.0000 0.2923634288
H   H309      1.0  0.65880  0.39180  0.04080  1.0000 0.2923634288
H   H310      1.0  0.90860  0.04080  0.39180  1.0000 0.2923634288
H   H311      1.0  0.39180  0.65880  0.90860  1.0000 0.2923634288
H   H312      1.0  0.04080  0.90860  0.65880  1.0000 0.2923634288
H   H313      1.0  0.68370  0.97290  0.42030  1.0000 0.1384764335
H   H314      1.0  0.97290  0.68370  0.92310  1.0000 0.1384764335
H   H315      1.0  0.92310  0.42030  0.97290  1.0000 0.1384764335
H   H316      1.0  0.42030  0.92310  0.68370  1.0000 0.1384764335
H   H317      1.0  0.42030  0.68370  0.97290  1.0000 0.1384764335
H   H318      1.0  0.68370  0.42030  0.92310  1.0000 0.1384764335
H   H319      1.0  0.92310  0.97290  0.68370  1.0000 0.1384764335
H   H320      1.0  0.97290  0.92310  0.42030  1.0000 0.1384764335
H   H321      1.0  0.97290  0.42030  0.68370  1.0000 0.1384764335
H   H322      1.0  0.92310  0.68370  0.42030  1.0000 0.1384764335
H   H323      1.0  0.42030  0.97290  0.92310  1.0000 0.1384764335
H   H324      1.0  0.68370  0.92310  0.97290  1.0000 0.1384764335
H   H325      1.0  0.42310  0.92030  0.18370  1.0000 0.1384764335
H   H326      1.0  0.92030  0.42310  0.47290  1.0000 0.1384764335
H   H327      1.0  0.18370  0.47290  0.42310  1.0000 0.1384764335
H   H328      1.0  0.47290  0.18370  0.92030  1.0000 0.1384764335
H   H329      1.0  0.42310  0.47290  0.92030  1.0000 0.1384764335
H   H330      1.0  0.47290  0.42310  0.18370  1.0000 0.1384764335
H   H331      1.0  0.92030  0.18370  0.42310  1.0000 0.1384764335
H   H332      1.0  0.18370  0.92030  0.47290  1.0000 0.1384764335
H   H333      1.0  0.92030  0.47290  0.18370  1.0000 0.1384764335
H   H334      1.0  0.42310  0.18370  0.47290  1.0000 0.1384764335
H   H335      1.0  0.47290  0.92030  0.42310  1.0000 0.1384764335
H   H336      1.0  0.18370  0.42310  0.92030  1.0000 0.1384764335
H   H337      1.0  0.79590  0.99130  0.42310  1.0000 0.1268562171
H   H338      1.0  0.99130  0.79590  0.78970  1.0000 0.1268562171
H   H339      1.0  0.78970  0.42310  0.99130  1.0000 0.1268562171
H   H340      1.0  0.42310  0.78970  0.79590  1.0000 0.1268562171
H   H341      1.0  0.42310  0.79590  0.99130  1.0000 0.1268562171
H   H342      1.0  0.79590  0.42310  0.78970  1.0000 0.1268562171
H   H343      1.0  0.78970  0.99130  0.79590  1.0000 0.1268562171
H   H344      1.0  0.99130  0.78970  0.42310  1.0000 0.1268562171
H   H345      1.0  0.99130  0.42310  0.79590  1.0000 0.1268562171
H   H346      1.0  0.78970  0.79590  0.42310  1.0000 0.1268562171
H   H347      1.0  0.42310  0.99130  0.78970  1.0000 0.1268562171
H   H348      1.0  0.79590  0.78970  0.99130  1.0000 0.1268562171
H   H349      1.0  0.28970  0.92310  0.29590  1.0000 0.1268562171
H   H350      1.0  0.92310  0.28970  0.49130  1.0000 0.1268562171
H   H351      1.0  0.29590  0.49130  0.28970  1.0000 0.1268562171
H   H352      1.0  0.49130  0.29590  0.92310  1.0000 0.1268562171
H   H353      1.0  0.28970  0.49130  0.92310  1.0000 0.1268562171
H   H354      1.0  0.49130  0.28970  0.29590  1.0000 0.1268562171
H   H355      1.0  0.92310  0.29590  0.28970  1.0000 0.1268562171
H   H356      1.0  0.29590  0.92310  0.49130  1.0000 0.1268562171
H   H357      1.0  0.92310  0.49130  0.29590  1.0000 0.1268562171
H   H358      1.0  0.28970  0.29590  0.49130  1.0000 0.1268562171
H   H359      1.0  0.49130  0.92310  0.28970  1.0000 0.1268562171
H   H360      1.0  0.29590  0.28970  0.92310  1.0000 0.1268562171
H   H361      1.0  0.76580  0.87780  0.41400  1.0000 0.1268562171
H   H362      1.0  0.87780  0.76580  0.94240  1.0000 0.1268562171
H   H363      1.0  0.94240  0.41400  0.87780  1.0000 0.1268562171
H   H364      1.0  0.41400  0.94240  0.76580  1.0000 0.1268562171
H   H365      1.0  0.41400  0.76580  0.87780  1.0000 0.1268562171
H   H366      1.0  0.76580  0.41400  0.94240  1.0000 0.1268562171
H   H367      1.0  0.94240  0.87780  0.76580  1.0000 0.1268562171
H   H368      1.0  0.87780  0.94240  0.41400  1.0000 0.1268562171
H   H369      1.0  0.87780  0.41400  0.76580  1.0000 0.1268562171
H   H370      1.0  0.94240  0.76580  0.41400  1.0000 0.1268562171
H   H371      1.0  0.41400  0.87780  0.94240  1.0000 0.1268562171
H   H372      1.0  0.76580  0.94240  0.87780  1.0000 0.1268562171
H   H373      1.0  0.44240  0.91400  0.26580  1.0000 0.1268562171
H   H374      1.0  0.91400  0.44240  0.37780  1.0000 0.1268562171
H   H375      1.0  0.26580  0.37780  0.44240  1.0000 0.1268562171
H   H376      1.0  0.37780  0.26580  0.91400  1.0000 0.1268562171
H   H377      1.0  0.44240  0.37780  0.91400  1.0000 0.1268562171
H   H378      1.0  0.37780  0.44240  0.26580  1.0000 0.1268562171
H   H379      1.0  0.91400  0.26580  0.44240  1.0000 0.1268562171
H   H380      1.0  0.26580  0.91400  0.37780  1.0000 0.1268562171
H   H381      1.0  0.91400  0.37780  0.26580  1.0000 0.1268562171
H   H382      1.0  0.44240  0.26580  0.37780  1.0000 0.1268562171
H   H383      1.0  0.37780  0.91400  0.44240  1.0000 0.1268562171
H   H384      1.0  0.26580  0.44240  0.91400  1.0000 0.1268562171
H   H385      1.0  0.63580  0.15720  0.30860  1.0000 0.1203770878
H   H386      1.0  0.15720  0.63580  0.89840  1.0000 0.1203770878
H   H387      1.0  0.89840  0.30860  0.15720  1.0000 0.1203770878
H   H388      1.0  0.30860  0.89840  0.63580  1.0000 0.1203770878
H   H389      1.0  0.30860  0.63580  0.15720  1.0000 0.1203770878
H   H390      1.0  0.63580  0.30860  0.89840  1.0000 0.1203770878
H   H391      1.0  0.89840  0.15720  0.63580  1.0000 0.1203770878
H   H392      1.0  0.15720  0.89840  0.30860  1.0000 0.1203770878
H   H393      1.0  0.15720  0.30860  0.63580  1.0000 0.1203770878
H   H394      1.0  0.89840  0.63580  0.30860  1.0000 0.1203770878
H   H395      1.0  0.30860  0.15720  0.89840  1.0000 0.1203770878
H   H396      1.0  0.63580  0.89840  0.15720  1.0000 0.1203770878
H   H397      1.0  0.39840  0.80860  0.13580  1.0000 0.1203770878
H   H398      1.0  0.80860  0.39840  0.65720  1.0000 0.1203770878
H   H399      1.0  0.13580  0.65720  0.39840  1.0000 0.1203770878
H   H400      1.0  0.65720  0.13580  0.80860  1.0000 0.1203770878
H   H401      1.0  0.39840  0.65720  0.80860  1.0000 0.1203770878
H   H402      1.0  0.65720  0.39840  0.13580  1.0000 0.1203770878
H   H403      1.0  0.80860  0.13580  0.39840  1.0000 0.1203770878
H   H404      1.0  0.13580  0.80860  0.65720  1.0000 0.1203770878
H   H405      1.0  0.80860  0.65720  0.13580  1.0000 0.1203770878
H   H406      1.0  0.39840  0.13580  0.65720  1.0000 0.1203770878
H   H407      1.0  0.65720  0.80860  0.39840  1.0000 0.1203770878
H   H408      1.0  0.13580  0.39840  0.80860  1.0000 0.1203770878
H   H409      1.0  0.60970  0.19010  0.37730  1.0000 0.1203770878
H   H410      1.0  0.19010  0.60970  0.82290  1.0000 0.1203770878
H   H411      1.0  0.82290  0.37730  0.19010  1.0000 0.1203770878
H   H412      1.0  0.37730  0.82290  0.60970  1.0000 0.1203770878
H   H413      1.0  0.37730  0.60970  0.19010  1.0000 0.1203770878
H   H414      1.0  0.60970  0.37730  0.82290  1.0000 0.1203770878
H   H415      1.0  0.82290  0.19010  0.60970  1.0000 0.1203770878
H   H416      1.0  0.19010  0.82290  0.37730  1.0000 0.1203770878
H   H417      1.0  0.19010  0.37730  0.60970  1.0000 0.1203770878
H   H418      1.0  0.82290  0.60970  0.37730  1.0000 0.1203770878
H   H419      1.0  0.37730  0.19010  0.82290  1.0000 0.1203770878
H   H420      1.0  0.60970  0.82290  0.19010  1.0000 0.1203770878
H   H421      1.0  0.32290  0.87730  0.10970  1.0000 0.1203770878
H   H422      1.0  0.87730  0.32290  0.69010  1.0000 0.1203770878
H   H423      1.0  0.10970  0.69010  0.32290  1.0000 0.1203770878
H   H424      1.0  0.69010  0.10970  0.87730  1.0000 0.1203770878
H   H425      1.0  0.32290  0.69010  0.87730  1.0000 0.1203770878
H   H426      1.0  0.69010  0.32290  0.10970  1.0000 0.1203770878
H   H427      1.0  0.87730  0.10970  0.32290  1.0000 0.1203770878
H   H428      1.0  0.10970  0.87730  0.69010  1.0000 0.1203770878
H   H429      1.0  0.87730  0.69010  0.10970  1.0000 0.1203770878
H   H430      1.0  0.32290  0.10970  0.69010  1.0000 0.1203770878
H   H431      1.0  0.69010  0.87730  0.32290  1.0000 0.1203770878
H   H432      1.0  0.10970  0.32290  0.87730  1.0000 0.1203770878
H   H433      1.0  0.71710  0.03990  0.39710  1.0000 0.1268562171
H   H434      1.0  0.03990  0.71710  0.84590  1.0000 0.1268562171
H   H435      1.0  0.84590  0.39710  0.03990  1.0000 0.1268562171
H   H436      1.0  0.39710  0.84590  0.71710  1.0000 0.1268562171
H   H437      1.0  0.39710  0.71710  0.03990  1.0000 0.1268562171
H   H438      1.0  0.71710  0.39710  0.84590  1.0000 0.1268562171
H   H439      1.0  0.84590  0.03990  0.71710  1.0000 0.1268562171
H   H440      1.0  0.03990  0.84590  0.39710  1.0000 0.1268562171
H   H441      1.0  0.03990  0.39710  0.71710  1.0000 0.1268562171
H   H442      1.0  0.84590  0.71710  0.39710  1.0000 0.1268562171
H   H443      1.0  0.39710  0.03990  0.84590  1.0000 0.1268562171
H   H444      1.0  0.71710  0.84590  0.03990  1.0000 0.1268562171
H   H445      1.0  0.34590  0.89710  0.21710  1.0000 0.1268562171
H   H446      1.0  0.89710  0.34590  0.53990  1.0000 0.1268562171
H   H447      1.0  0.21710  0.53990  0.34590  1.0000 0.1268562171
H   H448      1.0  0.53990  0.21710  0.89710  1.0000 0.1268562171
H   H449      1.0  0.34590  0.53990  0.89710  1.0000 0.1268562171
H   H450      1.0  0.53990  0.34590  0.21710  1.0000 0.1268562171
H   H451      1.0  0.89710  0.21710  0.34590  1.0000 0.1268562171
H   H452      1.0  0.21710  0.89710  0.53990  1.0000 0.1268562171
H   H453      1.0  0.89710  0.53990  0.21710  1.0000 0.1268562171
H   H454      1.0  0.34590  0.21710  0.53990  1.0000 0.1268562171
H   H455      1.0  0.53990  0.89710  0.34590  1.0000 0.1268562171
H   H456      1.0  0.21710  0.34590  0.89710  1.0000 0.1268562171
H   H457      1.0  0.77640  0.91880  0.41020  1.0000 0.1384764335
H   H458      1.0  0.91880  0.77640  0.89460  1.0000 0.1384764335
H   H459      1.0  0.89460  0.41020  0.91880  1.0000 0.1384764335
H   H460      1.0  0.41020  0.89460  0.77640  1.0000 0.1384764335
H   H461      1.0  0.41020  0.77640  0.91880  1.0000 0.1384764335
H   H462      1.0  0.77640  0.41020  0.89460  1.0000 0.1384764335
H   H463      1.0  0.89460  0.91880  0.77640  1.0000 0.1384764335
H   H464      1.0  0.91880  0.89460  0.41020  1.0000 0.1384764335
H   H465      1.0  0.91880  0.41020  0.77640  1.0000 0.1384764335
H   H466      1.0  0.89460  0.77640  0.41020  1.0000 0.1384764335
H   H467      1.0  0.41020  0.91880  0.89460  1.0000 0.1384764335
H   H468      1.0  0.77640  0.89460  0.91880  1.0000 0.1384764335
H   H469      1.0  0.39460  0.91020  0.27640  1.0000 0.1384764335
H   H470      1.0  0.91020  0.39460  0.41880  1.0000 0.1384764335
H   H471      1.0  0.27640  0.41880  0.39460  1.0000 0.1384764335
H   H472      1.0  0.41880  0.27640  0.91020  1.0000 0.1384764335
H   H473      1.0  0.39460  0.41880  0.91020  1.0000 0.1384764335
H   H474      1.0  0.41880  0.39460  0.27640  1.0000 0.1384764335
H   H475      1.0  0.91020  0.27640  0.39460  1.0000 0.1384764335
H   H476      1.0  0.27640  0.91020  0.41880  1.0000 0.1384764335
H   H477      1.0  0.91020  0.41880  0.27640  1.0000 0.1384764335
H   H478      1.0  0.39460  0.27640  0.41880  1.0000 0.1384764335
H   H479      1.0  0.41880  0.91020  0.39460  1.0000 0.1384764335
H   H480      1.0  0.27640  0.39460  0.91020  1.0000 0.1384764335
H   H481      1.0  0.75910  0.08510  0.40290  1.0000 0.1268562171
H   H482      1.0  0.08510  0.75910  0.75290  1.0000 0.1268562171
H   H483      1.0  0.75290  0.40290  0.08510  1.0000 0.1268562171
H   H484      1.0  0.40290  0.75290  0.75910  1.0000 0.1268562171
H   H485      1.0  0.40290  0.75910  0.08510  1.0000 0.1268562171
H   H486      1.0  0.75910  0.40290  0.75290  1.0000 0.1268562171
H   H487      1.0  0.75290  0.08510  0.75910  1.0000 0.1268562171
H   H488      1.0  0.08510  0.75290  0.40290  1.0000 0.1268562171
H   H489      1.0  0.08510  0.40290  0.75910  1.0000 0.1268562171
H   H490      1.0  0.75290  0.75910  0.40290  1.0000 0.1268562171
H   H491      1.0  0.40290  0.08510  0.75290  1.0000 0.1268562171
H   H492      1.0  0.75910  0.75290  0.08510  1.0000 0.1268562171
H   H493      1.0  0.25290  0.90290  0.25910  1.0000 0.1268562171
H   H494      1.0  0.90290  0.25290  0.58510  1.0000 0.1268562171
H   H495      1.0  0.25910  0.58510  0.25290  1.0000 0.1268562171
H   H496      1.0  0.58510  0.25910  0.90290  1.0000 0.1268562171
H   H497      1.0  0.25290  0.58510  0.90290  1.0000 0.1268562171
H   H498      1.0  0.58510  0.25290  0.25910  1.0000 0.1268562171
H   H499      1.0  0.90290  0.25910  0.25290  1.0000 0.1268562171
H   H500      1.0  0.25910  0.90290  0.58510  1.0000 0.1268562171
H   H501      1.0  0.90290  0.58510  0.25910  1.0000 0.1268562171
H   H502      1.0  0.25290  0.25910  0.58510  1.0000 0.1268562171
H   H503      1.0  0.58510  0.90290  0.25290  1.0000 0.1268562171
H   H504      1.0  0.25910  0.25290  0.90290  1.0000 0.1268562171
H   H505      1.0  0.65480  0.15240  0.39100  1.0000 0.1384764335
H   H506      1.0  0.15240  0.65480  0.80180  1.0000 0.1384764335
H   H507      1.0  0.80180  0.39100  0.15240  1.0000 0.1384764335
H   H508      1.0  0.39100  0.80180  0.65480  1.0000 0.1384764335
H   H509      1.0  0.39100  0.65480  0.15240  1.0000 0.1384764335
H   H510      1.0  0.65480  0.39100  0.80180  1.0000 0.1384764335
H   H511      1.0  0.80180  0.15240  0.65480  1.0000 0.1384764335
H   H512      1.0  0.15240  0.80180  0.39100  1.0000 0.1384764335
H   H513      1.0  0.15240  0.39100  0.65480  1.0000 0.1384764335
H   H514      1.0  0.80180  0.65480  0.39100  1.0000 0.1384764335
H   H515      1.0  0.39100  0.15240  0.80180  1.0000 0.1384764335
H   H516      1.0  0.65480  0.80180  0.15240  1.0000 0.1384764335
H   H517      1.0  0.30180  0.89100  0.15480  1.0000 0.1384764335
H   H518      1.0  0.89100  0.30180  0.65240  1.0000 0.1384764335
H   H519      1.0  0.15480  0.65240  0.30180  1.0000 0.1384764335
H   H520      1.0  0.65240  0.15480  0.89100  1.0000 0.1384764335
H   H521      1.0  0.30180  0.65240  0.89100  1.0000 0.1384764335
H   H522      1.0  0.65240  0.30180  0.15480  1.0000 0.1384764335
H   H523      1.0  0.89100  0.15480  0.30180  1.0000 0.1384764335
H   H524      1.0  0.15480  0.89100  0.65240  1.0000 0.1384764335
H   H525      1.0  0.89100  0.65240  0.15480  1.0000 0.1384764335
H   H526      1.0  0.30180  0.15480  0.65240  1.0000 0.1384764335
H   H527      1.0  0.65240  0.89100  0.30180  1.0000 0.1384764335
H   H528      1.0  0.15480  0.30180  0.89100  1.0000 0.1384764335
H   H529      1.0  0.68290  0.11970  0.32130  1.0000 0.1384764335
H   H530      1.0  0.11970  0.68290  0.87610  1.0000 0.1384764335
H   H531      1.0  0.87610  0.32130  0.11970  1.0000 0.1384764335
H   H532      1.0  0.32130  0.87610  0.68290  1.0000 0.1384764335
H   H533      1.0  0.32130  0.68290  0.11970  1.0000 0.1384764335
H   H534      1.0  0.68290  0.32130  0.87610  1.0000 0.1384764335
H   H535      1.0  0.87610  0.11970  0.68290  1.0000 0.1384764335
H   H536      1.0  0.11970  0.87610  0.32130  1.0000 0.1384764335
H   H537      1.0  0.11970  0.32130  0.68290  1.0000 0.1384764335
H   H538      1.0  0.87610  0.68290  0.32130  1.0000 0.1384764335
H   H539      1.0  0.32130  0.11970  0.87610  1.0000 0.1384764335
H   H540      1.0  0.68290  0.87610  0.11970  1.0000 0.1384764335
H   H541      1.0  0.37610  0.82130  0.18290  1.0000 0.1384764335
H   H542      1.0  0.82130  0.37610  0.61970  1.0000 0.1384764335
H   H543      1.0  0.18290  0.61970  0.37610  1.0000 0.1384764335
H   H544      1.0  0.61970  0.18290  0.82130  1.0000 0.1384764335
H   H545      1.0  0.37610  0.61970  0.82130  1.0000 0.1384764335
H   H546      1.0  0.61970  0.37610  0.18290  1.0000 0.1384764335
H   H547      1.0  0.82130  0.18290  0.37610  1.0000 0.1384764335
H   H548      1.0  0.18290  0.82130  0.61970  1.0000 0.1384764335
H   H549      1.0  0.82130  0.61970  0.18290  1.0000 0.1384764335
H   H550      1.0  0.37610  0.18290  0.61970  1.0000 0.1384764335
H   H551      1.0  0.61970  0.82130  0.37610  1.0000 0.1384764335
H   H552      1.0  0.18290  0.37610  0.82130  1.0000 0.1384764335
H   H553      1.0  0.67360  0.93080  0.42660  1.0000 0.1203770878
H   H554      1.0  0.93080  0.67360  0.96900  1.0000 0.1203770878
H   H555      1.0  0.96900  0.42660  0.93080  1.0000 0.1203770878
H   H556      1.0  0.42660  0.96900  0.67360  1.0000 0.1203770878
H   H557      1.0  0.42660  0.67360  0.93080  1.0000 0.1203770878
H   H558      1.0  0.67360  0.42660  0.96900  1.0000 0.1203770878
H   H559      1.0  0.96900  0.93080  0.67360  1.0000 0.1203770878
H   H560      1.0  0.93080  0.96900  0.42660  1.0000 0.1203770878
H   H561      1.0  0.93080  0.42660  0.67360  1.0000 0.1203770878
H   H562      1.0  0.96900  0.67360  0.42660  1.0000 0.1203770878
H   H563      1.0  0.42660  0.93080  0.96900  1.0000 0.1203770878
H   H564      1.0  0.67360  0.96900  0.93080  1.0000 0.1203770878
H   H565      1.0  0.46900  0.92660  0.17360  1.0000 0.1203770878
H   H566      1.0  0.92660  0.46900  0.43080  1.0000 0.1203770878
H   H567      1.0  0.17360  0.43080  0.46900  1.0000 0.1203770878
H   H568      1.0  0.43080  0.17360  0.92660  1.0000 0.1203770878
H   H569      1.0  0.46900  0.43080  0.92660  1.0000 0.1203770878
H   H570      1.0  0.43080  0.46900  0.17360  1.0000 0.1203770878
H   H571      1.0  0.92660  0.17360  0.46900  1.0000 0.1203770878
H   H572      1.0  0.17360  0.92660  0.43080  1.0000 0.1203770878
H   H573      1.0  0.92660  0.43080  0.17360  1.0000 0.1203770878
H   H574      1.0  0.46900  0.17360  0.43080  1.0000 0.1203770878
H   H575      1.0  0.43080  0.92660  0.46900  1.0000 0.1203770878
H   H576      1.0  0.17360  0.46900  0.92660  1.0000 0.1203770878
H   H577      1.0  0.71990  0.99590  0.40670  1.0000 0.2923634288
H   H578      1.0  0.99590  0.71990  0.87750  1.0000 0.2923634288
H   H579      1.0  0.87750  0.40670  0.99590  1.0000 0.2923634288
H   H580      1.0  0.40670  0.87750  0.71990  1.0000 0.2923634288
H   H581      1.0  0.40670  0.71990  0.99590  1.0000 0.2923634288
H   H582      1.0  0.71990  0.40670  0.87750  1.0000 0.2923634288
H   H583      1.0  0.87750  0.99590  0.71990  1.0000 0.2923634288
H   H584      1.0  0.99590  0.87750  0.40670  1.0000 0.2923634288
H   H585      1.0  0.99590  0.40670  0.71990  1.0000 0.2923634288
H   H586      1.0  0.87750  0.71990  0.40670  1.0000 0.2923634288
H   H587      1.0  0.40670  0.99590  0.87750  1.0000 0.2923634288
H   H588      1.0  0.71990  0.87750  0.99590  1.0000 0.2923634288
H   H589      1.0  0.37750  0.90670  0.21990  1.0000 0.2923634288
H   H590      1.0  0.90670  0.37750  0.49590  1.0000 0.2923634288
H   H591      1.0  0.21990  0.49590  0.37750  1.0000 0.2923634288
H   H592      1.0  0.49590  0.21990  0.90670  1.0000 0.2923634288
H   H593      1.0  0.37750  0.49590  0.90670  1.0000 0.2923634288
H   H594      1.0  0.49590  0.37750  0.21990  1.0000 0.2923634288
H   H595      1.0  0.90670  0.21990  0.37750  1.0000 0.2923634288
H   H596      1.0  0.21990  0.90670  0.49590  1.0000 0.2923634288
H   H597      1.0  0.90670  0.49590  0.21990  1.0000 0.2923634288
H   H598      1.0  0.37750  0.21990  0.49590  1.0000 0.2923634288
H   H599      1.0  0.49590  0.90670  0.37750  1.0000 0.2923634288
H   H600      1.0  0.21990  0.37750  0.90670  1.0000 0.2923634288
H   H601      1.0  0.70920  0.09120  0.35820  1.0000 0.2923634288
H   H602      1.0  0.09120  0.70920  0.84140  1.0000 0.2923634288
H   H603      1.0  0.84140  0.35820  0.09120  1.0000 0.2923634288
H   H604      1.0  0.35820  0.84140  0.70920  1.0000 0.2923634288
H   H605      1.0  0.35820  0.70920  0.09120  1.0000 0.2923634288
H   H606      1.0  0.70920  0.35820  0.84140  1.0000 0.2923634288
H   H607      1.0  0.84140  0.09120  0.70920  1.0000 0.2923634288
H   H608      1.0  0.09120  0.84140  0.35820  1.0000 0.2923634288
H   H609      1.0  0.09120  0.35820  0.70920  1.0000 0.2923634288
H   H610      1.0  0.84140  0.70920  0.35820  1.0000 0.2923634288
H   H611      1.0  0.35820  0.09120  0.84140  1.0000 0.2923634288
H   H612      1.0  0.70920  0.84140  0.09120  1.0000 0.2923634288
H   H613      1.0  0.34140  0.85820  0.20920  1.0000 0.2923634288
H   H614      1.0  0.85820  0.34140  0.59120  1.0000 0.2923634288
H   H615      1.0  0.20920  0.59120  0.34140  1.0000 0.2923634288
H   H616      1.0  0.59120  0.20920  0.85820  1.0000 0.2923634288
H   H617      1.0  0.34140  0.59120  0.85820  1.0000 0.2923634288
H   H618      1.0  0.59120  0.34140  0.20920  1.0000 0.2923634288
H   H619      1.0  0.85820  0.20920  0.34140  1.0000 0.2923634288
H   H620      1.0  0.20920  0.85820  0.59120  1.0000 0.2923634288
H   H621      1.0  0.85820  0.59120  0.20920  1.0000 0.2923634288
H   H622      1.0  0.34140  0.20920  0.59120  1.0000 0.2923634288
H   H623      1.0  0.59120  0.85820  0.34140  1.0000 0.2923634288
H   H624      1.0  0.20920  0.34140  0.85820  1.0000 0.2923634288
C   C1        1.0  0.32338  0.83046  0.54962  1.0000 -0.1834702705
C   C2        1.0  0.83046  0.32338  0.29654  1.0000 -0.1834702705
C   C3        1.0  0.54962  0.29654  0.32338  1.0000 -0.1834702705
C   C4        1.0  0.29654  0.54962  0.83046  1.0000 -0.1834702705
C   C5        1.0  0.32338  0.29654  0.83046  1.0000 -0.1834702705
C   C6        1.0  0.29654  0.32338  0.54962  1.0000 -0.1834702705
C   C7        1.0  0.83046  0.54962  0.32338  1.0000 -0.1834702705
C   C8        1.0  0.54962  0.83046  0.29654  1.0000 -0.1834702705
C   C9        1.0  0.83046  0.29654  0.54962  1.0000 -0.1834702705
C   C10       1.0  0.32338  0.54962  0.29654  1.0000 -0.1834702705
C   C11       1.0  0.29654  0.83046  0.32338  1.0000 -0.1834702705
C   C12       1.0  0.54962  0.32338  0.83046  1.0000 -0.1834702705
C   C13       1.0  0.04962  0.79654  0.33046  1.0000 -0.1834702705
C   C14       1.0  0.79654  0.04962  0.82338  1.0000 -0.1834702705
C   C15       1.0  0.82338  0.33046  0.79654  1.0000 -0.1834702705
C   C16       1.0  0.33046  0.82338  0.04962  1.0000 -0.1834702705
C   C17       1.0  0.33046  0.04962  0.79654  1.0000 -0.1834702705
C   C18       1.0  0.04962  0.33046  0.82338  1.0000 -0.1834702705
C   C19       1.0  0.82338  0.79654  0.04962  1.0000 -0.1834702705
C   C20       1.0  0.79654  0.82338  0.33046  1.0000 -0.1834702705
C   C21       1.0  0.79654  0.33046  0.04962  1.0000 -0.1834702705
C   C22       1.0  0.82338  0.04962  0.33046  1.0000 -0.1834702705
C   C23       1.0  0.33046  0.79654  0.82338  1.0000 -0.1834702705
C   C24       1.0  0.04962  0.82338  0.79654  1.0000 -0.1834702705
C   C25       1.0  0.45781  0.83331  0.46963  1.0000 0.0810967173
C   C26       1.0  0.83331  0.45781  0.23925  1.0000 0.0810967173
C   C27       1.0  0.46963  0.23925  0.45781  1.0000 0.0810967173
C   C28       1.0  0.23925  0.46963  0.83331  1.0000 0.0810967173
C   C29       1.0  0.45781  0.23925  0.83331  1.0000 0.0810967173
C   C30       1.0  0.23925  0.45781  0.46963  1.0000 0.0810967173
C   C31       1.0  0.83331  0.46963  0.45781  1.0000 0.0810967173
C   C32       1.0  0.46963  0.83331  0.23925  1.0000 0.0810967173
C   C33       1.0  0.83331  0.23925  0.46963  1.0000 0.0810967173
C   C34       1.0  0.45781  0.46963  0.23925  1.0000 0.0810967173
C   C35       1.0  0.23925  0.83331  0.45781  1.0000 0.0810967173
C   C36       1.0  0.46963  0.45781  0.83331  1.0000 0.0810967173
C   C37       1.0  0.96963  0.73925  0.33333  1.0000 0.0810967173
C   C38       1.0  0.73925  0.96963  0.95781  1.0000 0.0810967173
C   C39       1.0  0.95781  0.33333  0.73925  1.0000 0.0810967173
C   C40       1.0  0.33333  0.95781  0.96963  1.0000 0.0810967173
C   C41       1.0  0.33333  0.96963  0.73925  1.0000 0.0810967173
C   C42       1.0  0.96963  0.33333  0.95781  1.0000 0.0810967173
C   C43       1.0  0.95781  0.73925  0.96963  1.0000 0.0810967173
C   C44       1.0  0.73925  0.95781  0.33333  1.0000 0.0810967173
C   C45       1.0  0.73925  0.33333  0.96963  1.0000 0.0810967173
C   C46       1.0  0.95781  0.96963  0.33333  1.0000 0.0810967173
C   C47       1.0  0.33333  0.73925  0.95781  1.0000 0.0810967173
C   C48       1.0  0.96963  0.95781  0.73925  1.0000 0.0810967173
C   C49       1.0  0.38746  0.90800  0.63184  1.0000 -0.0372394289
C   C50       1.0  0.90800  0.38746  0.07270  1.0000 -0.0372394289
C   C51       1.0  0.63184  0.07270  0.38746  1.0000 -0.0372394289
C   C52       1.0  0.07270  0.63184  0.90800  1.0000 -0.0372394289
C   C53       1.0  0.38746  0.07270  0.90800  1.0000 -0.0372394289
C   C54       1.0  0.07270  0.38746  0.63184  1.0000 -0.0372394289
C   C55       1.0  0.90800  0.63184  0.38746  1.0000 -0.0372394289
C   C56       1.0  0.63184  0.90800  0.07270  1.0000 -0.0372394289
C   C57       1.0  0.90800  0.07270  0.63184  1.0000 -0.0372394289
C   C58       1.0  0.38746  0.63184  0.07270  1.0000 -0.0372394289
C   C59       1.0  0.07270  0.90800  0.38746  1.0000 -0.0372394289
C   C60       1.0  0.63184  0.38746  0.90800  1.0000 -0.0372394289
C   C61       1.0  0.13184  0.57270  0.40800  1.0000 -0.0372394289
C   C62       1.0  0.57270  0.13184  0.88746  1.0000 -0.0372394289
C   C63       1.0  0.88746  0.40800  0.57270  1.0000 -0.0372394289
C   C64       1.0  0.40800  0.88746  0.13184  1.0000 -0.0372394289
C   C65       1.0  0.40800  0.13184  0.57270  1.0000 -0.0372394289
C   C66       1.0  0.13184  0.40800  0.88746  1.0000 -0.0372394289
C   C67       1.0  0.88746  0.57270  0.13184  1.0000 -0.0372394289
C   C68       1.0  0.57270  0.88746  0.40800  1.0000 -0.0372394289
C   C69       1.0  0.57270  0.40800  0.13184  1.0000 -0.0372394289
C   C70       1.0  0.88746  0.13184  0.40800  1.0000 -0.0372394289
C   C71       1.0  0.40800  0.57270  0.88746  1.0000 -0.0372394289
C   C72       1.0  0.13184  0.88746  0.57270  1.0000 -0.0372394289
C   C73       1.0  0.28948  0.82912  0.53068  1.0000 -0.0669004842
C   C74       1.0  0.82912  0.28948  0.35072  1.0000 -0.0669004842
C   C75       1.0  0.53068  0.35072  0.28948  1.0000 -0.0669004842
C   C76       1.0  0.35072  0.53068  0.82912  1.0000 -0.0669004842
C   C77       1.0  0.28948  0.35072  0.82912  1.0000 -0.0669004842
C   C78       1.0  0.35072  0.28948  0.53068  1.0000 -0.0669004842
C   C79       1.0  0.82912  0.53068  0.28948  1.0000 -0.0669004842
C   C80       1.0  0.53068  0.82912  0.35072  1.0000 -0.0669004842
C   C81       1.0  0.82912  0.35072  0.53068  1.0000 -0.0669004842
C   C82       1.0  0.28948  0.53068  0.35072  1.0000 -0.0669004842
C   C83       1.0  0.35072  0.82912  0.28948  1.0000 -0.0669004842
C   C84       1.0  0.53068  0.28948  0.82912  1.0000 -0.0669004842
C   C85       1.0  0.03068  0.85072  0.32912  1.0000 -0.0669004842
C   C86       1.0  0.85072  0.03068  0.78948  1.0000 -0.0669004842
C   C87       1.0  0.78948  0.32912  0.85072  1.0000 -0.0669004842
C   C88       1.0  0.32912  0.78948  0.03068  1.0000 -0.0669004842
C   C89       1.0  0.32912  0.03068  0.85072  1.0000 -0.0669004842
C   C90       1.0  0.03068  0.32912  0.78948  1.0000 -0.0669004842
C   C91       1.0  0.78948  0.85072  0.03068  1.0000 -0.0669004842
C   C92       1.0  0.85072  0.78948  0.32912  1.0000 -0.0669004842
C   C93       1.0  0.85072  0.32912  0.03068  1.0000 -0.0669004842
C   C94       1.0  0.78948  0.03068  0.32912  1.0000 -0.0669004842
C   C95       1.0  0.32912  0.85072  0.78948  1.0000 -0.0669004842
C   C96       1.0  0.03068  0.78948  0.85072  1.0000 -0.0669004842
C   C97       1.0  0.42819  0.83915  0.49297  1.0000 -0.0669004842
C   C98       1.0  0.83915  0.42819  0.23969  1.0000 -0.0669004842
C   C99       1.0  0.49297  0.23969  0.42819  1.0000 -0.0669004842
C   C100      1.0  0.23969  0.49297  0.83915  1.0000 -0.0669004842
C   C101      1.0  0.42819  0.23969  0.83915  1.0000 -0.0669004842
C   C102      1.0  0.23969  0.42819  0.49297  1.0000 -0.0669004842
C   C103      1.0  0.83915  0.49297  0.42819  1.0000 -0.0669004842
C   C104      1.0  0.49297  0.83915  0.23969  1.0000 -0.0669004842
C   C105      1.0  0.83915  0.23969  0.49297  1.0000 -0.0669004842
C   C106      1.0  0.42819  0.49297  0.23969  1.0000 -0.0669004842
C   C107      1.0  0.23969  0.83915  0.42819  1.0000 -0.0669004842
C   C108      1.0  0.49297  0.42819  0.83915  1.0000 -0.0669004842
C   C109      1.0  0.99297  0.73969  0.33915  1.0000 -0.0669004842
C   C110      1.0  0.73969  0.99297  0.92819  1.0000 -0.0669004842
C   C111      1.0  0.92819  0.33915  0.73969  1.0000 -0.0669004842
C   C112      1.0  0.33915  0.92819  0.99297  1.0000 -0.0669004842
C   C113      1.0  0.33915  0.99297  0.73969  1.0000 -0.0669004842
C   C114      1.0  0.99297  0.33915  0.92819  1.0000 -0.0669004842
C   C115      1.0  0.92819  0.73969  0.99297  1.0000 -0.0669004842
C   C116      1.0  0.73969  0.92819  0.33915  1.0000 -0.0669004842
C   C117      1.0  0.73969  0.33915  0.99297  1.0000 -0.0669004842
C   C118      1.0  0.92819  0.99297  0.33915  1.0000 -0.0669004842
C   C119      1.0  0.33915  0.73969  0.92819  1.0000 -0.0669004842
C   C120      1.0  0.99297  0.92819  0.73969  1.0000 -0.0669004842
C   C121      1.0  0.40165  0.83561  0.49151  1.0000 0.4629697719
C   C122      1.0  0.83561  0.40165  0.27123  1.0000 0.4629697719
C   C123      1.0  0.49151  0.27123  0.40165  1.0000 0.4629697719
C   C124      1.0  0.27123  0.49151  0.83561  1.0000 0.4629697719
C   C125      1.0  0.40165  0.27123  0.83561  1.0000 0.4629697719
C   C126      1.0  0.27123  0.40165  0.49151  1.0000 0.4629697719
C   C127      1.0  0.83561  0.49151  0.40165  1.0000 0.4629697719
C   C128      1.0  0.49151  0.83561  0.27123  1.0000 0.4629697719
C   C129      1.0  0.83561  0.27123  0.49151  1.0000 0.4629697719
C   C130      1.0  0.40165  0.49151  0.27123  1.0000 0.4629697719
C   C131      1.0  0.27123  0.83561  0.40165  1.0000 0.4629697719
C   C132      1.0  0.49151  0.40165  0.83561  1.0000 0.4629697719
C   C133      1.0  0.99151  0.77123  0.33561  1.0000 0.4629697719
C   C134      1.0  0.77123  0.99151  0.90165  1.0000 0.4629697719
C   C135      1.0  0.90165  0.33561  0.77123  1.0000 0.4629697719
C   C136      1.0  0.33561  0.90165  0.99151  1.0000 0.4629697719
C   C137      1.0  0.33561  0.99151  0.77123  1.0000 0.4629697719
C   C138      1.0  0.99151  0.33561  0.90165  1.0000 0.4629697719
C   C139      1.0  0.90165  0.77123  0.99151  1.0000 0.4629697719
C   C140      1.0  0.77123  0.90165  0.33561  1.0000 0.4629697719
C   C141      1.0  0.77123  0.33561  0.99151  1.0000 0.4629697719
C   C142      1.0  0.90165  0.99151  0.33561  1.0000 0.4629697719
C   C143      1.0  0.33561  0.77123  0.90165  1.0000 0.4629697719
C   C144      1.0  0.99151  0.90165  0.77123  1.0000 0.4629697719
C   C145      1.0  0.34622  0.83504  0.51936  1.0000 0.232250284
C   C146      1.0  0.83504  0.34622  0.29938  1.0000 0.232250284
C   C147      1.0  0.51936  0.29938  0.34622  1.0000 0.232250284
C   C148      1.0  0.29938  0.51936  0.83504  1.0000 0.232250284
C   C149      1.0  0.34622  0.29938  0.83504  1.0000 0.232250284
C   C150      1.0  0.29938  0.34622  0.51936  1.0000 0.232250284
C   C151      1.0  0.83504  0.51936  0.34622  1.0000 0.232250284
C   C152      1.0  0.51936  0.83504  0.29938  1.0000 0.232250284
C   C153      1.0  0.83504  0.29938  0.51936  1.0000 0.232250284
C   C154      1.0  0.34622  0.51936  0.29938  1.0000 0.232250284
C   C155      1.0  0.29938  0.83504  0.34622  1.0000 0.232250284
C   C156      1.0  0.51936  0.34622  0.83504  1.0000 0.232250284
C   C157      1.0  0.01936  0.79938  0.33504  1.0000 0.232250284
C   C158      1.0  0.79938  0.01936  0.84622  1.0000 0.232250284
C   C159      1.0  0.84622  0.33504  0.79938  1.0000 0.232250284
C   C160      1.0  0.33504  0.84622  0.01936  1.0000 0.232250284
C   C161      1.0  0.33504  0.01936  0.79938  1.0000 0.232250284
C   C162      1.0  0.01936  0.33504  0.84622  1.0000 0.232250284
C   C163      1.0  0.84622  0.79938  0.01936  1.0000 0.232250284
C   C164      1.0  0.79938  0.84622  0.33504  1.0000 0.232250284
C   C165      1.0  0.79938  0.33504  0.01936  1.0000 0.232250284
C   C166      1.0  0.84622  0.01936  0.33504  1.0000 0.232250284
C   C167      1.0  0.33504  0.79938  0.84622  1.0000 0.232250284
C   C168      1.0  0.01936  0.84622  0.79938  1.0000 0.232250284
C   C169      1.0  0.45010  0.85236  0.51558  1.0000 -0.0610963457
C   C170      1.0  0.85236  0.45010  0.18196  1.0000 -0.0610963457
C   C171      1.0  0.51558  0.18196  0.45010  1.0000 -0.0610963457
C   C172      1.0  0.18196  0.51558  0.85236  1.0000 -0.0610963457
C   C173      1.0  0.45010  0.18196  0.85236  1.0000 -0.0610963457
C   C174      1.0  0.18196  0.45010  0.51558  1.0000 -0.0610963457
C   C175      1.0  0.85236  0.51558  0.45010  1.0000 -0.0610963457
C   C176      1.0  0.51558  0.85236  0.18196  1.0000 -0.0610963457
C   C177      1.0  0.85236  0.18196  0.51558  1.0000 -0.0610963457
C   C178      1.0  0.45010  0.51558  0.18196  1.0000 -0.0610963457
C   C179      1.0  0.18196  0.85236  0.45010  1.0000 -0.0610963457
C   C180      1.0  0.51558  0.45010  0.85236  1.0000 -0.0610963457
C   C181      1.0  0.01558  0.68196  0.35236  1.0000 -0.0610963457
C   C182      1.0  0.68196  0.01558  0.95010  1.0000 -0.0610963457
C   C183      1.0  0.95010  0.35236  0.68196  1.0000 -0.0610963457
C   C184      1.0  0.35236  0.95010  0.01558  1.0000 -0.0610963457
C   C185      1.0  0.35236  0.01558  0.68196  1.0000 -0.0610963457
C   C186      1.0  0.01558  0.35236  0.95010  1.0000 -0.0610963457
C   C187      1.0  0.95010  0.68196  0.01558  1.0000 -0.0610963457
C   C188      1.0  0.68196  0.95010  0.35236  1.0000 -0.0610963457
C   C189      1.0  0.68196  0.35236  0.01558  1.0000 -0.0610963457
C   C190      1.0  0.95010  0.01558  0.35236  1.0000 -0.0610963457
C   C191      1.0  0.35236  0.68196  0.95010  1.0000 -0.0610963457
C   C192      1.0  0.01558  0.95010  0.68196  1.0000 -0.0610963457
C   C193      1.0  0.41277  0.89123  0.57735  1.0000 0.2200015882
C   C194      1.0  0.89123  0.41277  0.11865  1.0000 0.2200015882
C   C195      1.0  0.57735  0.11865  0.41277  1.0000 0.2200015882
C   C196      1.0  0.11865  0.57735  0.89123  1.0000 0.2200015882
C   C197      1.0  0.41277  0.11865  0.89123  1.0000 0.2200015882
C   C198      1.0  0.11865  0.41277  0.57735  1.0000 0.2200015882
C   C199      1.0  0.89123  0.57735  0.41277  1.0000 0.2200015882
C   C200      1.0  0.57735  0.89123  0.11865  1.0000 0.2200015882
C   C201      1.0  0.89123  0.11865  0.57735  1.0000 0.2200015882
C   C202      1.0  0.41277  0.57735  0.11865  1.0000 0.2200015882
C   C203      1.0  0.11865  0.89123  0.41277  1.0000 0.2200015882
C   C204      1.0  0.57735  0.41277  0.89123  1.0000 0.2200015882
C   C205      1.0  0.07735  0.61865  0.39123  1.0000 0.2200015882
C   C206      1.0  0.61865  0.07735  0.91277  1.0000 0.2200015882
C   C207      1.0  0.91277  0.39123  0.61865  1.0000 0.2200015882
C   C208      1.0  0.39123  0.91277  0.07735  1.0000 0.2200015882
C   C209      1.0  0.39123  0.07735  0.61865  1.0000 0.2200015882
C   C210      1.0  0.07735  0.39123  0.91277  1.0000 0.2200015882
C   C211      1.0  0.91277  0.61865  0.07735  1.0000 0.2200015882
C   C212      1.0  0.61865  0.91277  0.39123  1.0000 0.2200015882
C   C213      1.0  0.61865  0.39123  0.07735  1.0000 0.2200015882
C   C214      1.0  0.91277  0.07735  0.39123  1.0000 0.2200015882
C   C215      1.0  0.39123  0.61865  0.91277  1.0000 0.2200015882
C   C216      1.0  0.07735  0.91277  0.61865  1.0000 0.2200015882
C   C217      1.0  0.31170  0.83420  0.50100  1.0000 -0.0845960127
C   C218      1.0  0.83420  0.31170  0.35310  1.0000 -0.0845960127
C   C219      1.0  0.50100  0.35310  0.31170  1.0000 -0.0845960127
C   C220      1.0  0.35310  0.50100  0.83420  1.0000 -0.0845960127
C   C221      1.0  0.31170  0.35310  0.83420  1.0000 -0.0845960127
C   C222      1.0  0.35310  0.31170  0.50100  1.0000 -0.0845960127
C   C223      1.0  0.83420  0.50100  0.31170  1.0000 -0.0845960127
C   C224      1.0  0.50100  0.83420  0.35310  1.0000 -0.0845960127
C   C225      1.0  0.83420  0.35310  0.50100  1.0000 -0.0845960127
C   C226      1.0  0.31170  0.50100  0.35310  1.0000 -0.0845960127
C   C227      1.0  0.35310  0.83420  0.31170  1.0000 -0.0845960127
C   C228      1.0  0.50100  0.31170  0.83420  1.0000 -0.0845960127
C   C229      1.0  0.00100  0.85310  0.33420  1.0000 -0.0845960127
C   C230      1.0  0.85310  0.00100  0.81170  1.0000 -0.0845960127
C   C231      1.0  0.81170  0.33420  0.85310  1.0000 -0.0845960127
C   C232      1.0  0.33420  0.81170  0.00100  1.0000 -0.0845960127
C   C233      1.0  0.33420  0.00100  0.85310  1.0000 -0.0845960127
C   C234      1.0  0.00100  0.33420  0.81170  1.0000 -0.0845960127
C   C235      1.0  0.81170  0.85310  0.00100  1.0000 -0.0845960127
C   C236      1.0  0.85310  0.81170  0.33420  1.0000 -0.0845960127
C   C237      1.0  0.85310  0.33420  0.00100  1.0000 -0.0845960127
C   C238      1.0  0.81170  0.00100  0.33420  1.0000 -0.0845960127
C   C239      1.0  0.33420  0.85310  0.81170  1.0000 -0.0845960127
C   C240      1.0  0.00100  0.81170  0.85310  1.0000 -0.0845960127
C   C241      1.0  0.37111  0.92491  0.61039  1.0000 -0.089599768
C   C242      1.0  0.92491  0.37111  0.09359  1.0000 -0.089599768
C   C243      1.0  0.61039  0.09359  0.37111  1.0000 -0.089599768
C   C244      1.0  0.09359  0.61039  0.92491  1.0000 -0.089599768
C   C245      1.0  0.37111  0.09359  0.92491  1.0000 -0.089599768
C   C246      1.0  0.09359  0.37111  0.61039  1.0000 -0.089599768
C   C247      1.0  0.92491  0.61039  0.37111  1.0000 -0.089599768
C   C248      1.0  0.61039  0.92491  0.09359  1.0000 -0.089599768
C   C249      1.0  0.92491  0.09359  0.61039  1.0000 -0.089599768
C   C250      1.0  0.37111  0.61039  0.09359  1.0000 -0.089599768
C   C251      1.0  0.09359  0.92491  0.37111  1.0000 -0.089599768
C   C252      1.0  0.61039  0.37111  0.92491  1.0000 -0.089599768
C   C253      1.0  0.11039  0.59359  0.42491  1.0000 -0.089599768
C   C254      1.0  0.59359  0.11039  0.87111  1.0000 -0.089599768
C   C255      1.0  0.87111  0.42491  0.59359  1.0000 -0.089599768
C   C256      1.0  0.42491  0.87111  0.11039  1.0000 -0.089599768
C   C257      1.0  0.42491  0.11039  0.59359  1.0000 -0.089599768
C   C258      1.0  0.11039  0.42491  0.87111  1.0000 -0.089599768
C   C259      1.0  0.87111  0.59359  0.11039  1.0000 -0.089599768
C   C260      1.0  0.59359  0.87111  0.42491  1.0000 -0.089599768
C   C261      1.0  0.59359  0.42491  0.11039  1.0000 -0.089599768
C   C262      1.0  0.87111  0.11039  0.42491  1.0000 -0.089599768
C   C263      1.0  0.42491  0.59359  0.87111  1.0000 -0.089599768
C   C264      1.0  0.11039  0.87111  0.59359  1.0000 -0.089599768
C   C265      1.0  0.41587  0.88387  0.62593  1.0000 -0.1002271456
C   C266      1.0  0.88387  0.41587  0.07433  1.0000 -0.1002271456
C   C267      1.0  0.62593  0.07433  0.41587  1.0000 -0.1002271456
C   C268      1.0  0.07433  0.62593  0.88387  1.0000 -0.1002271456
C   C269      1.0  0.41587  0.07433  0.88387  1.0000 -0.1002271456
C   C270      1.0  0.07433  0.41587  0.62593  1.0000 -0.1002271456
C   C271      1.0  0.88387  0.62593  0.41587  1.0000 -0.1002271456
C   C272      1.0  0.62593  0.88387  0.07433  1.0000 -0.1002271456
C   C273      1.0  0.88387  0.07433  0.62593  1.0000 -0.1002271456
C   C274      1.0  0.41587  0.62593  0.07433  1.0000 -0.1002271456
C   C275      1.0  0.07433  0.88387  0.41587  1.0000 -0.1002271456
C   C276      1.0  0.62593  0.41587  0.88387  1.0000 -0.1002271456
C   C277      1.0  0.12593  0.57433  0.38387  1.0000 -0.1002271456
C   C278      1.0  0.57433  0.12593  0.91587  1.0000 -0.1002271456
C   C279      1.0  0.91587  0.38387  0.57433  1.0000 -0.1002271456
C   C280      1.0  0.38387  0.91587  0.12593  1.0000 -0.1002271456
C   C281      1.0  0.38387  0.12593  0.57433  1.0000 -0.1002271456
C   C282      1.0  0.12593  0.38387  0.91587  1.0000 -0.1002271456
C   C283      1.0  0.91587  0.57433  0.12593  1.0000 -0.1002271456
C   C284      1.0  0.57433  0.91587  0.38387  1.0000 -0.1002271456
C   C285      1.0  0.57433  0.38387  0.12593  1.0000 -0.1002271456
C   C286      1.0  0.91587  0.12593  0.38387  1.0000 -0.1002271456
C   C287      1.0  0.38387  0.57433  0.91587  1.0000 -0.1002271456
C   C288      1.0  0.12593  0.91587  0.57433  1.0000 -0.1002271456
C   C289      1.0  0.37221  0.91445  0.66357  1.0000 0.5624853267
C   C290      1.0  0.91445  0.37221  0.04977  1.0000 0.5624853267
C   C291      1.0  0.66357  0.04977  0.37221  1.0000 0.5624853267
C   C292      1.0  0.04977  0.66357  0.91445  1.0000 0.5624853267
C   C293      1.0  0.37221  0.04977  0.91445  1.0000 0.5624853267
C   C294      1.0  0.04977  0.37221  0.66357  1.0000 0.5624853267
C   C295      1.0  0.91445  0.66357  0.37221  1.0000 0.5624853267
C   C296      1.0  0.66357  0.91445  0.04977  1.0000 0.5624853267
C   C297      1.0  0.91445  0.04977  0.66357  1.0000 0.5624853267
C   C298      1.0  0.37221  0.66357  0.04977  1.0000 0.5624853267
C   C299      1.0  0.04977  0.91445  0.37221  1.0000 0.5624853267
C   C300      1.0  0.66357  0.37221  0.91445  1.0000 0.5624853267
C   C301      1.0  0.16357  0.54977  0.41445  1.0000 0.5624853267
C   C302      1.0  0.54977  0.16357  0.87221  1.0000 0.5624853267
C   C303      1.0  0.87221  0.41445  0.54977  1.0000 0.5624853267
C   C304      1.0  0.41445  0.87221  0.16357  1.0000 0.5624853267
C   C305      1.0  0.41445  0.16357  0.54977  1.0000 0.5624853267
C   C306      1.0  0.16357  0.41445  0.87221  1.0000 0.5624853267
C   C307      1.0  0.87221  0.54977  0.16357  1.0000 0.5624853267
C   C308      1.0  0.54977  0.87221  0.41445  1.0000 0.5624853267
C   C309      1.0  0.54977  0.41445  0.16357  1.0000 0.5624853267
C   C310      1.0  0.87221  0.16357  0.41445  1.0000 0.5624853267
C   C311      1.0  0.41445  0.54977  0.87221  1.0000 0.5624853267
C   C312      1.0  0.16357  0.87221  0.54977  1.0000 0.5624853267
C   C313      1.0  0.42401  0.84887  0.51669  1.0000 -0.1060218473
C   C314      1.0  0.84887  0.42401  0.21043  1.0000 -0.1060218473
C   C315      1.0  0.51669  0.21043  0.42401  1.0000 -0.1060218473
C   C316      1.0  0.21043  0.51669  0.84887  1.0000 -0.1060218473
C   C317      1.0  0.42401  0.21043  0.84887  1.0000 -0.1060218473
C   C318      1.0  0.21043  0.42401  0.51669  1.0000 -0.1060218473
C   C319      1.0  0.84887  0.51669  0.42401  1.0000 -0.1002271456
C   C320      1.0  0.51669  0.84887  0.21043  1.0000 -0.1060218473
C   C321      1.0  0.84887  0.21043  0.51669  1.0000 -0.1060218473
C   C322      1.0  0.42401  0.51669  0.21043  1.0000 -0.1060218473
C   C323      1.0  0.21043  0.84887  0.42401  1.0000 -0.1060218473
C   C324      1.0  0.51669  0.42401  0.84887  1.0000 -0.1060218473
C   C325      1.0  0.01669  0.71043  0.34887  1.0000 -0.1060218473
C   C326      1.0  0.71043  0.01669  0.92401  1.0000 -0.1060218473
C   C327      1.0  0.92401  0.34887  0.71043  1.0000 -0.1002271456
C   C328      1.0  0.34887  0.92401  0.01669  1.0000 -0.1002271456
C   C329      1.0  0.34887  0.01669  0.71043  1.0000 -0.1060218473
C   C330      1.0  0.01669  0.34887  0.92401  1.0000 -0.1060218473
C   C331      1.0  0.92401  0.71043  0.01669  1.0000 -0.1002271456
C   C332      1.0  0.71043  0.92401  0.34887  1.0000 -0.1002271456
C   C333      1.0  0.71043  0.34887  0.01669  1.0000 -0.1002271456
C   C334      1.0  0.92401  0.01669  0.34887  1.0000 -0.1002271456
C   C335      1.0  0.34887  0.71043  0.92401  1.0000 -0.1060218473
C   C336      1.0  0.01669  0.92401  0.71043  1.0000 -0.1060218473
C   C337      1.0  0.44988  0.86010  0.54024  1.0000 0.4629697719
C   C338      1.0  0.86010  0.44988  0.14978  1.0000 0.4629697719
C   C339      1.0  0.54024  0.14978  0.44988  1.0000 0.4629697719
C   C340      1.0  0.14978  0.54024  0.86010  1.0000 0.4629697719
C   C341      1.0  0.44988  0.14978  0.86010  1.0000 0.4629697719
C   C342      1.0  0.14978  0.44988  0.54024  1.0000 0.4629697719
C   C343      1.0  0.86010  0.54024  0.44988  1.0000 0.4629697719
C   C344      1.0  0.54024  0.86010  0.14978  1.0000 0.4629697719
C   C345      1.0  0.86010  0.14978  0.54024  1.0000 0.4629697719
C   C346      1.0  0.44988  0.54024  0.14978  1.0000 0.4629697719
C   C347      1.0  0.14978  0.86010  0.44988  1.0000 0.4629697719
C   C348      1.0  0.54024  0.44988  0.86010  1.0000 0.4629697719
C   C349      1.0  0.04024  0.64978  0.36010  1.0000 0.4629697719
C   C350      1.0  0.64978  0.04024  0.94988  1.0000 0.4629697719
C   C351      1.0  0.94988  0.36010  0.64978  1.0000 0.4629697719
C   C352      1.0  0.36010  0.94988  0.04024  1.0000 0.4629697719
C   C353      1.0  0.36010  0.04024  0.64978  1.0000 0.4629697719
C   C354      1.0  0.04024  0.36010  0.94988  1.0000 0.4629697719
C   C355      1.0  0.94988  0.64978  0.04024  1.0000 0.4629697719
C   C356      1.0  0.64978  0.94988  0.36010  1.0000 0.4629697719
C   C357      1.0  0.64978  0.36010  0.04024  1.0000 0.4629697719
C   C358      1.0  0.94988  0.04024  0.36010  1.0000 0.4629697719
C   C359      1.0  0.36010  0.64978  0.94988  1.0000 0.4629697719
C   C360      1.0  0.04024  0.94988  0.64978  1.0000 0.4629697719
C   C361      1.0  0.34036  0.83684  0.49428  1.0000 -0.1691146397
C   C362      1.0  0.83684  0.34036  0.32852  1.0000 -0.1691146397
C   C363      1.0  0.49428  0.32852  0.34036  1.0000 -0.1691146397
C   C364      1.0  0.32852  0.49428  0.83684  1.0000 -0.1691146397
C   C365      1.0  0.34036  0.32852  0.83684  1.0000 -0.1691146397
C   C366      1.0  0.32852  0.34036  0.49428  1.0000 -0.1691146397
C   C367      1.0  0.83684  0.49428  0.34036  1.0000 -0.1691146397
C   C368      1.0  0.49428  0.83684  0.32852  1.0000 -0.1691146397
C   C369      1.0  0.83684  0.32852  0.49428  1.0000 -0.1691146397
C   C370      1.0  0.34036  0.49428  0.32852  1.0000 -0.1691146397
C   C371      1.0  0.32852  0.83684  0.34036  1.0000 -0.1691146397
C   C372      1.0  0.49428  0.34036  0.83684  1.0000 -0.1691146397
C   C373      1.0  0.99428  0.82852  0.33684  1.0000 -0.1691146397
C   C374      1.0  0.82852  0.99428  0.84036  1.0000 -0.1691146397
C   C375      1.0  0.84036  0.33684  0.82852  1.0000 -0.1691146397
C   C376      1.0  0.33684  0.84036  0.99428  1.0000 -0.1691146397
C   C377      1.0  0.33684  0.99428  0.82852  1.0000 -0.1691146397
C   C378      1.0  0.99428  0.33684  0.84036  1.0000 -0.1691146397
C   C379      1.0  0.84036  0.82852  0.99428  1.0000 -0.1691146397
C   C380      1.0  0.82852  0.84036  0.33684  1.0000 -0.1691146397
C   C381      1.0  0.82852  0.33684  0.99428  1.0000 -0.1691146397
C   C382      1.0  0.84036  0.99428  0.33684  1.0000 -0.1691146397
C   C383      1.0  0.33684  0.82852  0.84036  1.0000 -0.1691146397
C   C384      1.0  0.99428  0.84036  0.82852  1.0000 -0.1691146397
C   C385      1.0  0.47940  0.84548  0.49126  1.0000 0.0650961722
C   C386      1.0  0.84548  0.47940  0.18386  1.0000 0.0650961722
C   C387      1.0  0.49126  0.18386  0.47940  1.0000 0.0644916917
C   C388      1.0  0.18386  0.49126  0.84548  1.0000 0.0644916917
C   C389      1.0  0.47940  0.18386  0.84548  1.0000 0.0650961722
C   C390      1.0  0.18386  0.47940  0.49126  1.0000 0.0644916917
C   C391      1.0  0.84548  0.49126  0.47940  1.0000 0.0650961722
C   C392      1.0  0.49126  0.84548  0.18386  1.0000 0.0644916917
C   C393      1.0  0.84548  0.18386  0.49126  1.0000 0.0644916917
C   C394      1.0  0.47940  0.49126  0.18386  1.0000 0.0650961722
C   C395      1.0  0.18386  0.84548  0.47940  1.0000 0.0650961722
C   C396      1.0  0.49126  0.47940  0.84548  1.0000 0.0650961722
C   C397      1.0  0.99126  0.68386  0.34548  1.0000 0.0650961722
C   C398      1.0  0.68386  0.99126  0.97940  1.0000 0.0644916917
C   C399      1.0  0.97940  0.34548  0.68386  1.0000 0.0650961722
C   C400      1.0  0.34548  0.97940  0.99126  1.0000 0.0650961722
C   C401      1.0  0.34548  0.99126  0.68386  1.0000 0.0650961722
C   C402      1.0  0.99126  0.34548  0.97940  1.0000 0.0650961722
C   C403      1.0  0.97940  0.68386  0.99126  1.0000 0.0650961722
C   C404      1.0  0.68386  0.97940  0.34548  1.0000 0.0650961722
C   C405      1.0  0.68386  0.34548  0.99126  1.0000 0.0650961722
C   C406      1.0  0.97940  0.99126  0.34548  1.0000 0.0650961722
C   C407      1.0  0.34548  0.68386  0.97940  1.0000 0.0644916917
C   C408      1.0  0.99126  0.97940  0.68386  1.0000 0.0650961722
C   C409      1.0  0.25898  0.82660  0.53740  1.0000 0.5624853267
C   C410      1.0  0.82660  0.25898  0.37702  1.0000 0.5624853267
C   C411      1.0  0.53740  0.37702  0.25898  1.0000 0.5624853267
C   C412      1.0  0.37702  0.53740  0.82660  1.0000 0.5624853267
C   C413      1.0  0.25898  0.37702  0.82660  1.0000 0.5624853267
C   C414      1.0  0.37702  0.25898  0.53740  1.0000 0.5624853267
C   C415      1.0  0.82660  0.53740  0.25898  1.0000 0.5624853267
C   C416      1.0  0.53740  0.82660  0.37702  1.0000 0.5624853267
C   C417      1.0  0.82660  0.37702  0.53740  1.0000 0.5624853267
C   C418      1.0  0.25898  0.53740  0.37702  1.0000 0.5624853267
C   C419      1.0  0.37702  0.82660  0.25898  1.0000 0.5624853267
C   C420      1.0  0.53740  0.25898  0.82660  1.0000 0.5624853267
C   C421      1.0  0.03740  0.87702  0.32660  1.0000 0.5624853267
C   C422      1.0  0.87702  0.03740  0.75898  1.0000 0.5624853267
C   C423      1.0  0.75898  0.32660  0.87702  1.0000 0.5624853267
C   C424      1.0  0.32660  0.75898  0.03740  1.0000 0.5624853267
C   C425      1.0  0.32660  0.03740  0.87702  1.0000 0.5624853267
C   C426      1.0  0.03740  0.32660  0.75898  1.0000 0.5624853267
C   C427      1.0  0.75898  0.87702  0.03740  1.0000 0.5624853267
C   C428      1.0  0.87702  0.75898  0.32660  1.0000 0.5624853267
C   C429      1.0  0.87702  0.32660  0.03740  1.0000 0.5624853267
C   C430      1.0  0.75898  0.03740  0.32660  1.0000 0.5624853267
C   C431      1.0  0.32660  0.87702  0.75898  1.0000 0.5624853267
C   C432      1.0  0.03740  0.75898  0.87702  1.0000 0.5624853267
C   C433      1.0  0.42853  0.87559  0.59877  1.0000 -0.1691146397
C   C434      1.0  0.87559  0.42853  0.09711  1.0000 -0.1691146397
C   C435      1.0  0.59877  0.09711  0.42853  1.0000 -0.1691146397
C   C436      1.0  0.09711  0.59877  0.87559  1.0000 -0.1691146397
C   C437      1.0  0.42853  0.09711  0.87559  1.0000 -0.1691146397
C   C438      1.0  0.09711  0.42853  0.59877  1.0000 -0.1691146397
C   C439      1.0  0.87559  0.59877  0.42853  1.0000 -0.1691146397
C   C440      1.0  0.59877  0.87559  0.09711  1.0000 -0.1691146397
C   C441      1.0  0.87559  0.09711  0.59877  1.0000 -0.1691146397
C   C442      1.0  0.42853  0.59877  0.09711  1.0000 -0.1691146397
C   C443      1.0  0.09711  0.87559  0.42853  1.0000 -0.1691146397
C   C444      1.0  0.59877  0.42853  0.87559  1.0000 -0.1691146397
C   C445      1.0  0.09877  0.59711  0.37559  1.0000 -0.1691146397
C   C446      1.0  0.59711  0.09877  0.92853  1.0000 -0.1691146397
C   C447      1.0  0.92853  0.37559  0.59711  1.0000 -0.1691146397
C   C448      1.0  0.37559  0.92853  0.09877  1.0000 -0.1691146397
C   C449      1.0  0.37559  0.09877  0.59711  1.0000 -0.1691146397
C   C450      1.0  0.09877  0.37559  0.92853  1.0000 -0.1691146397
C   C451      1.0  0.92853  0.59711  0.09877  1.0000 -0.1691146397
C   C452      1.0  0.59711  0.92853  0.37559  1.0000 -0.1691146397
C   C453      1.0  0.59711  0.37559  0.09877  1.0000 -0.1691146397
C   C454      1.0  0.92853  0.09877  0.37559  1.0000 -0.1691146397
C   C455      1.0  0.37559  0.59711  0.92853  1.0000 -0.1691146397
C   C456      1.0  0.09877  0.92853  0.59711  1.0000 -0.1691146397
C   C457      1.0  0.38437  0.91681  0.58223  1.0000 -0.1834702705
C   C458      1.0  0.91681  0.38437  0.11659  1.0000 -0.1834702705
C   C459      1.0  0.58223  0.11659  0.38437  1.0000 -0.1834702705
C   C460      1.0  0.11659  0.58223  0.91681  1.0000 -0.1834702705
C   C461      1.0  0.38437  0.11659  0.91681  1.0000 -0.1834702705
C   C462      1.0  0.11659  0.38437  0.58223  1.0000 -0.1834702705
C   C463      1.0  0.91681  0.58223  0.38437  1.0000 -0.1834702705
C   C464      1.0  0.58223  0.91681  0.11659  1.0000 -0.1834702705
C   C465      1.0  0.91681  0.11659  0.58223  1.0000 -0.1834702705
C   C466      1.0  0.38437  0.58223  0.11659  1.0000 -0.1834702705
C   C467      1.0  0.11659  0.91681  0.38437  1.0000 -0.1834702705
C   C468      1.0  0.58223  0.38437  0.91681  1.0000 -0.1834702705
C   C469      1.0  0.08223  0.61659  0.41681  1.0000 -0.1834702705
C   C470      1.0  0.61659  0.08223  0.88437  1.0000 -0.1834702705
C   C471      1.0  0.88437  0.41681  0.61659  1.0000 -0.1834702705
C   C472      1.0  0.41681  0.88437  0.08223  1.0000 -0.1834702705
C   C473      1.0  0.41681  0.08223  0.61659  1.0000 -0.1834702705
C   C474      1.0  0.08223  0.41681  0.88437  1.0000 -0.1834702705
C   C475      1.0  0.88437  0.61659  0.08223  1.0000 -0.1834702705
C   C476      1.0  0.61659  0.88437  0.41681  1.0000 -0.1834702705
C   C477      1.0  0.61659  0.41681  0.08223  1.0000 -0.1834702705
C   C478      1.0  0.88437  0.08223  0.41681  1.0000 -0.1834702705
C   C479      1.0  0.41681  0.61659  0.88437  1.0000 -0.1834702705
C   C480      1.0  0.08223  0.88437  0.61659  1.0000 -0.1834702705
C   C481      1.0  0.29572  0.82712  0.55564  1.0000 -0.089599768
C   C482      1.0  0.82712  0.29572  0.32152  1.0000 -0.089599768
C   C483      1.0  0.55564  0.32152  0.29572  1.0000 -0.089599768
C   C484      1.0  0.32152  0.55564  0.82712  1.0000 -0.089599768
C   C485      1.0  0.29572  0.32152  0.82712  1.0000 -0.089599768
C   C486      1.0  0.32152  0.29572  0.55564  1.0000 -0.089599768
C   C487      1.0  0.82712  0.55564  0.29572  1.0000 -0.089599768
C   C488      1.0  0.55564  0.82712  0.32152  1.0000 -0.089599768
C   C489      1.0  0.82712  0.32152  0.55564  1.0000 -0.089599768
C   C490      1.0  0.29572  0.55564  0.32152  1.0000 -0.089599768
C   C491      1.0  0.32152  0.82712  0.29572  1.0000 -0.089599768
C   C492      1.0  0.55564  0.29572  0.82712  1.0000 -0.089599768
C   C493      1.0  0.05564  0.82152  0.32712  1.0000 -0.089599768
C   C494      1.0  0.82152  0.05564  0.79572  1.0000 -0.089599768
C   C495      1.0  0.79572  0.32712  0.82152  1.0000 -0.089599768
C   C496      1.0  0.32712  0.79572  0.05564  1.0000 -0.089599768
C   C497      1.0  0.32712  0.05564  0.82152  1.0000 -0.089599768
C   C498      1.0  0.05564  0.32712  0.79572  1.0000 -0.089599768
C   C499      1.0  0.79572  0.82152  0.05564  1.0000 -0.089599768
C   C500      1.0  0.82152  0.79572  0.32712  1.0000 -0.089599768
C   C501      1.0  0.82152  0.32712  0.05564  1.0000 -0.089599768
C   C502      1.0  0.79572  0.05564  0.32712  1.0000 -0.089599768
C   C503      1.0  0.32712  0.82152  0.79572  1.0000 -0.089599768
C   C504      1.0  0.05564  0.79572  0.82152  1.0000 -0.089599768
C   C505      1.0  0.70038  0.95346  0.41954  1.0000 -0.1834702705
C   C506      1.0  0.95346  0.70038  0.92662  1.0000 -0.1834702705
C   C507      1.0  0.92662  0.41954  0.95346  1.0000 -0.1834702705
C   C508      1.0  0.41954  0.92662  0.70038  1.0000 -0.1834702705
C   C509      1.0  0.41954  0.70038  0.95346  1.0000 -0.1834702705
C   C510      1.0  0.70038  0.41954  0.92662  1.0000 -0.1834702705
C   C511      1.0  0.92662  0.95346  0.70038  1.0000 -0.1834702705
C   C512      1.0  0.95346  0.92662  0.41954  1.0000 -0.1834702705
C   C513      1.0  0.95346  0.41954  0.70038  1.0000 -0.1834702705
C   C514      1.0  0.92662  0.70038  0.41954  1.0000 -0.1834702705
C   C515      1.0  0.41954  0.95346  0.92662  1.0000 -0.1834702705
C   C516      1.0  0.70038  0.92662  0.95346  1.0000 -0.1834702705
C   C517      1.0  0.42662  0.91954  0.20038  1.0000 -0.1834702705
C   C518      1.0  0.91954  0.42662  0.45346  1.0000 -0.1834702705
C   C519      1.0  0.20038  0.45346  0.42662  1.0000 -0.1834702705
C   C520      1.0  0.45346  0.20038  0.91954  1.0000 -0.1834702705
C   C521      1.0  0.42662  0.45346  0.91954  1.0000 -0.1834702705
C   C522      1.0  0.45346  0.42662  0.20038  1.0000 -0.1834702705
C   C523      1.0  0.91954  0.20038  0.42662  1.0000 -0.1834702705
C   C524      1.0  0.20038  0.91954  0.45346  1.0000 -0.1834702705
C   C525      1.0  0.91954  0.45346  0.20038  1.0000 -0.1834702705
C   C526      1.0  0.42662  0.20038  0.45346  1.0000 -0.1834702705
C   C527      1.0  0.45346  0.91954  0.42662  1.0000 -0.1834702705
C   C528      1.0  0.20038  0.42662  0.91954  1.0000 -0.1834702705
C   C529      1.0  0.78037  0.01075  0.41669  1.0000 0.0810967173
C   C530      1.0  0.01075  0.78037  0.79219  1.0000 0.0810967173
C   C531      1.0  0.79219  0.41669  0.01075  1.0000 0.0810967173
C   C532      1.0  0.41669  0.79219  0.78037  1.0000 0.0810967173
C   C533      1.0  0.41669  0.78037  0.01075  1.0000 0.0810967173
C   C534      1.0  0.78037  0.41669  0.79219  1.0000 0.0810967173
C   C535      1.0  0.79219  0.01075  0.78037  1.0000 0.0810967173
C   C536      1.0  0.01075  0.79219  0.41669  1.0000 0.0810967173
C   C537      1.0  0.01075  0.41669  0.78037  1.0000 0.0810967173
C   C538      1.0  0.79219  0.78037  0.41669  1.0000 0.0810967173
C   C539      1.0  0.41669  0.01075  0.79219  1.0000 0.0810967173
C   C540      1.0  0.78037  0.79219  0.01075  1.0000 0.0810967173
C   C541      1.0  0.29219  0.91669  0.28037  1.0000 0.0810967173
C   C542      1.0  0.91669  0.29219  0.51075  1.0000 0.0810967173
C   C543      1.0  0.28037  0.51075  0.29219  1.0000 0.0810967173
C   C544      1.0  0.51075  0.28037  0.91669  1.0000 0.0810967173
C   C545      1.0  0.29219  0.51075  0.91669  1.0000 0.0810967173
C   C546      1.0  0.51075  0.29219  0.28037  1.0000 0.0810967173
C   C547      1.0  0.91669  0.28037  0.29219  1.0000 0.0810967173
C   C548      1.0  0.28037  0.91669  0.51075  1.0000 0.0810967173
C   C549      1.0  0.91669  0.51075  0.28037  1.0000 0.0810967173
C   C550      1.0  0.29219  0.28037  0.51075  1.0000 0.0810967173
C   C551      1.0  0.51075  0.91669  0.29219  1.0000 0.0810967173
C   C552      1.0  0.28037  0.29219  0.91669  1.0000 0.0810967173
C   C553      1.0  0.61816  0.17730  0.34200  1.0000 -0.0372394289
C   C554      1.0  0.17730  0.61816  0.86254  1.0000 -0.0372394289
C   C555      1.0  0.86254  0.34200  0.17730  1.0000 -0.0372394289
C   C556      1.0  0.34200  0.86254  0.61816  1.0000 -0.0372394289
C   C557      1.0  0.34200  0.61816  0.17730  1.0000 -0.0372394289
C   C558      1.0  0.61816  0.34200  0.86254  1.0000 -0.0372394289
C   C559      1.0  0.86254  0.17730  0.61816  1.0000 -0.0372394289
C   C560      1.0  0.17730  0.86254  0.34200  1.0000 -0.0372394289
C   C561      1.0  0.17730  0.34200  0.61816  1.0000 -0.0372394289
C   C562      1.0  0.86254  0.61816  0.34200  1.0000 -0.0372394289
C   C563      1.0  0.34200  0.17730  0.86254  1.0000 -0.0372394289
C   C564      1.0  0.61816  0.86254  0.17730  1.0000 -0.0372394289
C   C565      1.0  0.36254  0.84200  0.11816  1.0000 -0.0372394289
C   C566      1.0  0.84200  0.36254  0.67730  1.0000 -0.0372394289
C   C567      1.0  0.11816  0.67730  0.36254  1.0000 -0.0372394289
C   C568      1.0  0.67730  0.11816  0.84200  1.0000 -0.0372394289
C   C569      1.0  0.36254  0.67730  0.84200  1.0000 -0.0372394289
C   C570      1.0  0.67730  0.36254  0.11816  1.0000 -0.0372394289
C   C571      1.0  0.84200  0.11816  0.36254  1.0000 -0.0372394289
C   C572      1.0  0.11816  0.84200  0.67730  1.0000 -0.0372394289
C   C573      1.0  0.84200  0.67730  0.11816  1.0000 -0.0372394289
C   C574      1.0  0.36254  0.11816  0.67730  1.0000 -0.0372394289
C   C575      1.0  0.67730  0.84200  0.36254  1.0000 -0.0372394289
C   C576      1.0  0.11816  0.36254  0.84200  1.0000 -0.0372394289
C   C577      1.0  0.71932  0.89928  0.42088  1.0000 -0.0669004842
C   C578      1.0  0.89928  0.71932  0.96052  1.0000 -0.0669004842
C   C579      1.0  0.96052  0.42088  0.89928  1.0000 -0.0669004842
C   C580      1.0  0.42088  0.96052  0.71932  1.0000 -0.0669004842
C   C581      1.0  0.42088  0.71932  0.89928  1.0000 -0.0669004842
C   C582      1.0  0.71932  0.42088  0.96052  1.0000 -0.0669004842
C   C583      1.0  0.96052  0.89928  0.71932  1.0000 -0.0669004842
C   C584      1.0  0.89928  0.96052  0.42088  1.0000 -0.0669004842
C   C585      1.0  0.89928  0.42088  0.71932  1.0000 -0.0669004842
C   C586      1.0  0.96052  0.71932  0.42088  1.0000 -0.0669004842
C   C587      1.0  0.42088  0.89928  0.96052  1.0000 -0.0669004842
C   C588      1.0  0.71932  0.96052  0.89928  1.0000 -0.0669004842
C   C589      1.0  0.46052  0.92088  0.21932  1.0000 -0.0669004842
C   C590      1.0  0.92088  0.46052  0.39928  1.0000 -0.0669004842
C   C591      1.0  0.21932  0.39928  0.46052  1.0000 -0.0669004842
C   C592      1.0  0.39928  0.21932  0.92088  1.0000 -0.0669004842
C   C593      1.0  0.46052  0.39928  0.92088  1.0000 -0.0669004842
C   C594      1.0  0.39928  0.46052  0.21932  1.0000 -0.0669004842
C   C595      1.0  0.92088  0.21932  0.46052  1.0000 -0.0669004842
C   C596      1.0  0.21932  0.92088  0.39928  1.0000 -0.0669004842
C   C597      1.0  0.92088  0.39928  0.21932  1.0000 -0.0669004842
C   C598      1.0  0.46052  0.21932  0.39928  1.0000 -0.0669004842
C   C599      1.0  0.39928  0.92088  0.46052  1.0000 -0.0669004842
C   C600      1.0  0.21932  0.46052  0.92088  1.0000 -0.0669004842
C   C601      1.0  0.75703  0.01031  0.41085  1.0000 -0.0669004842
C   C602      1.0  0.01031  0.75703  0.82181  1.0000 -0.0669004842
C   C603      1.0  0.82181  0.41085  0.01031  1.0000 -0.0669004842
C   C604      1.0  0.41085  0.82181  0.75703  1.0000 -0.0669004842
C   C605      1.0  0.41085  0.75703  0.01031  1.0000 -0.0669004842
C   C606      1.0  0.75703  0.41085  0.82181  1.0000 -0.0669004842
C   C607      1.0  0.82181  0.01031  0.75703  1.0000 -0.0669004842
C   C608      1.0  0.01031  0.82181  0.41085  1.0000 -0.0669004842
C   C609      1.0  0.01031  0.41085  0.75703  1.0000 -0.0669004842
C   C610      1.0  0.82181  0.75703  0.41085  1.0000 -0.0669004842
C   C611      1.0  0.41085  0.01031  0.82181  1.0000 -0.0669004842
C   C612      1.0  0.75703  0.82181  0.01031  1.0000 -0.0669004842
C   C613      1.0  0.32181  0.91085  0.25703  1.0000 -0.0669004842
C   C614      1.0  0.91085  0.32181  0.51031  1.0000 -0.0669004842
C   C615      1.0  0.25703  0.51031  0.32181  1.0000 -0.0669004842
C   C616      1.0  0.51031  0.25703  0.91085  1.0000 -0.0669004842
C   C617      1.0  0.32181  0.51031  0.91085  1.0000 -0.0669004842
C   C618      1.0  0.51031  0.32181  0.25703  1.0000 -0.0669004842
C   C619      1.0  0.91085  0.25703  0.32181  1.0000 -0.0669004842
C   C620      1.0  0.25703  0.91085  0.51031  1.0000 -0.0669004842
C   C621      1.0  0.91085  0.51031  0.25703  1.0000 -0.0669004842
C   C622      1.0  0.32181  0.25703  0.51031  1.0000 -0.0669004842
C   C623      1.0  0.51031  0.91085  0.32181  1.0000 -0.0669004842
C   C624      1.0  0.25703  0.32181  0.91085  1.0000 -0.0669004842
C   C625      1.0  0.75849  0.97877  0.41439  1.0000 0.4629697719
C   C626      1.0  0.97877  0.75849  0.84835  1.0000 0.4629697719
C   C627      1.0  0.84835  0.41439  0.97877  1.0000 0.4629697719
C   C628      1.0  0.41439  0.84835  0.75849  1.0000 0.4629697719
C   C629      1.0  0.41439  0.75849  0.97877  1.0000 0.4629697719
C   C630      1.0  0.75849  0.41439  0.84835  1.0000 0.4629697719
C   C631      1.0  0.84835  0.97877  0.75849  1.0000 0.4629697719
C   C632      1.0  0.97877  0.84835  0.41439  1.0000 0.4629697719
C   C633      1.0  0.97877  0.41439  0.75849  1.0000 0.4629697719
C   C634      1.0  0.84835  0.75849  0.41439  1.0000 0.4629697719
C   C635      1.0  0.41439  0.97877  0.84835  1.0000 0.4629697719
C   C636      1.0  0.75849  0.84835  0.97877  1.0000 0.4629697719
C   C637      1.0  0.34835  0.91439  0.25849  1.0000 0.4629697719
C   C638      1.0  0.91439  0.34835  0.47877  1.0000 0.4629697719
C   C639      1.0  0.25849  0.47877  0.34835  1.0000 0.4629697719
C   C640      1.0  0.47877  0.25849  0.91439  1.0000 0.4629697719
C   C641      1.0  0.34835  0.47877  0.91439  1.0000 0.4629697719
C   C642      1.0  0.47877  0.34835  0.25849  1.0000 0.4629697719
C   C643      1.0  0.91439  0.25849  0.34835  1.0000 0.4629697719
C   C644      1.0  0.25849  0.91439  0.47877  1.0000 0.4629697719
C   C645      1.0  0.91439  0.47877  0.25849  1.0000 0.4629697719
C   C646      1.0  0.34835  0.25849  0.47877  1.0000 0.4629697719
C   C647      1.0  0.47877  0.91439  0.34835  1.0000 0.4629697719
C   C648      1.0  0.25849  0.34835  0.91439  1.0000 0.4629697719
C   C649      1.0  0.73064  0.95062  0.41496  1.0000 0.232250284
C   C650      1.0  0.95062  0.73064  0.90378  1.0000 0.232250284
C   C651      1.0  0.90378  0.41496  0.95062  1.0000 0.232250284
C   C652      1.0  0.41496  0.90378  0.73064  1.0000 0.232250284
C   C653      1.0  0.41496  0.73064  0.95062  1.0000 0.232250284
C   C654      1.0  0.73064  0.41496  0.90378  1.0000 0.232250284
C   C655      1.0  0.90378  0.95062  0.73064  1.0000 0.232250284
C   C656      1.0  0.95062  0.90378  0.41496  1.0000 0.232250284
C   C657      1.0  0.95062  0.41496  0.73064  1.0000 0.232250284
C   C658      1.0  0.90378  0.73064  0.41496  1.0000 0.232250284
C   C659      1.0  0.41496  0.95062  0.90378  1.0000 0.232250284
C   C660      1.0  0.73064  0.90378  0.95062  1.0000 0.232250284
C   C661      1.0  0.40378  0.91496  0.23064  1.0000 0.232250284
C   C662      1.0  0.91496  0.40378  0.45062  1.0000 0.232250284
C   C663      1.0  0.23064  0.45062  0.40378  1.0000 0.232250284
C   C664      1.0  0.45062  0.23064  0.91496  1.0000 0.232250284
C   C665      1.0  0.40378  0.45062  0.91496  1.0000 0.232250284
C   C666      1.0  0.45062  0.40378  0.23064  1.0000 0.232250284
C   C667      1.0  0.91496  0.23064  0.40378  1.0000 0.232250284
C   C668      1.0  0.23064  0.91496  0.45062  1.0000 0.232250284
C   C669      1.0  0.91496  0.45062  0.23064  1.0000 0.232250284
C   C670      1.0  0.40378  0.23064  0.45062  1.0000 0.232250284
C   C671      1.0  0.45062  0.91496  0.40378  1.0000 0.232250284
C   C672      1.0  0.23064  0.40378  0.91496  1.0000 0.232250284
C   C673      1.0  0.73442  0.06804  0.39764  1.0000 -0.0610963457
C   C674      1.0  0.06804  0.73442  0.79990  1.0000 -0.0610963457
C   C675      1.0  0.79990  0.39764  0.06804  1.0000 -0.0610963457
C   C676      1.0  0.39764  0.79990  0.73442  1.0000 -0.0610963457
C   C677      1.0  0.39764  0.73442  0.06804  1.0000 -0.0610963457
C   C678      1.0  0.73442  0.39764  0.79990  1.0000 -0.0610963457
C   C679      1.0  0.79990  0.06804  0.73442  1.0000 -0.0610963457
C   C680      1.0  0.06804  0.79990  0.39764  1.0000 -0.0610963457
C   C681      1.0  0.06804  0.39764  0.73442  1.0000 -0.0610963457
C   C682      1.0  0.79990  0.73442  0.39764  1.0000 -0.0610963457
C   C683      1.0  0.39764  0.06804  0.79990  1.0000 -0.0610963457
C   C684      1.0  0.73442  0.79990  0.06804  1.0000 -0.0610963457
C   C685      1.0  0.29990  0.89764  0.23442  1.0000 -0.0610963457
C   C686      1.0  0.89764  0.29990  0.56804  1.0000 -0.0610963457
C   C687      1.0  0.23442  0.56804  0.29990  1.0000 -0.0610963457
C   C688      1.0  0.56804  0.23442  0.89764  1.0000 -0.0610963457
C   C689      1.0  0.29990  0.56804  0.89764  1.0000 -0.0610963457
C   C690      1.0  0.56804  0.29990  0.23442  1.0000 -0.0610963457
C   C691      1.0  0.89764  0.23442  0.29990  1.0000 -0.0610963457
C   C692      1.0  0.23442  0.89764  0.56804  1.0000 -0.0610963457
C   C693      1.0  0.89764  0.56804  0.23442  1.0000 -0.0610963457
C   C694      1.0  0.29990  0.23442  0.56804  1.0000 -0.0610963457
C   C695      1.0  0.56804  0.89764  0.29990  1.0000 -0.0610963457
C   C696      1.0  0.23442  0.29990  0.89764  1.0000 -0.0610963457
C   C697      1.0  0.67265  0.13135  0.35877  1.0000 0.2200015882
C   C698      1.0  0.13135  0.67265  0.83723  1.0000 0.2200015882
C   C699      1.0  0.83723  0.35877  0.13135  1.0000 0.2200015882
C   C700      1.0  0.35877  0.83723  0.67265  1.0000 0.2200015882
C   C701      1.0  0.35877  0.67265  0.13135  1.0000 0.2200015882
C   C702      1.0  0.67265  0.35877  0.83723  1.0000 0.2200015882
C   C703      1.0  0.83723  0.13135  0.67265  1.0000 0.2200015882
C   C704      1.0  0.13135  0.83723  0.35877  1.0000 0.2200015882
C   C705      1.0  0.13135  0.35877  0.67265  1.0000 0.2200015882
C   C706      1.0  0.83723  0.67265  0.35877  1.0000 0.2200015882
C   C707      1.0  0.35877  0.13135  0.83723  1.0000 0.2200015882
C   C708      1.0  0.67265  0.83723  0.13135  1.0000 0.2200015882
C   C709      1.0  0.33723  0.85877  0.17265  1.0000 0.2200015882
C   C710      1.0  0.85877  0.33723  0.63135  1.0000 0.2200015882
C   C711      1.0  0.17265  0.63135  0.33723  1.0000 0.2200015882
C   C712      1.0  0.63135  0.17265  0.85877  1.0000 0.2200015882
C   C713      1.0  0.33723  0.63135  0.85877  1.0000 0.2200015882
C   C714      1.0  0.63135  0.33723  0.17265  1.0000 0.2200015882
C   C715      1.0  0.85877  0.17265  0.33723  1.0000 0.2200015882
C   C716      1.0  0.17265  0.85877  0.63135  1.0000 0.2200015882
C   C717      1.0  0.85877  0.63135  0.17265  1.0000 0.2200015882
C   C718      1.0  0.33723  0.17265  0.63135  1.0000 0.2200015882
C   C719      1.0  0.63135  0.85877  0.33723  1.0000 0.2200015882
C   C720      1.0  0.17265  0.33723  0.85877  1.0000 0.2200015882
C   C721      1.0  0.74900  0.89690  0.41580  1.0000 -0.0845960127
C   C722      1.0  0.89690  0.74900  0.93830  1.0000 -0.0845960127
C   C723      1.0  0.93830  0.41580  0.89690  1.0000 -0.0845960127
C   C724      1.0  0.41580  0.93830  0.74900  1.0000 -0.0845960127
C   C725      1.0  0.41580  0.74900  0.89690  1.0000 -0.0845960127
C   C726      1.0  0.74900  0.41580  0.93830  1.0000 -0.0845960127
C   C727      1.0  0.93830  0.89690  0.74900  1.0000 -0.0845960127
C   C728      1.0  0.89690  0.93830  0.41580  1.0000 -0.0845960127
C   C729      1.0  0.89690  0.41580  0.74900  1.0000 -0.0845960127
C   C730      1.0  0.93830  0.74900  0.41580  1.0000 -0.0845960127
C   C731      1.0  0.41580  0.89690  0.93830  1.0000 -0.0845960127
C   C732      1.0  0.74900  0.93830  0.89690  1.0000 -0.0845960127
C   C733      1.0  0.43830  0.91580  0.24900  1.0000 -0.0845960127
C   C734      1.0  0.91580  0.43830  0.39690  1.0000 -0.0845960127
C   C735      1.0  0.24900  0.39690  0.43830  1.0000 -0.0845960127
C   C736      1.0  0.39690  0.24900  0.91580  1.0000 -0.0845960127
C   C737      1.0  0.43830  0.39690  0.91580  1.0000 -0.0845960127
C   C738      1.0  0.39690  0.43830  0.24900  1.0000 -0.0845960127
C   C739      1.0  0.91580  0.24900  0.43830  1.0000 -0.0845960127
C   C740      1.0  0.24900  0.91580  0.39690  1.0000 -0.089599768
C   C741      1.0  0.91580  0.39690  0.24900  1.0000 -0.0845960127
C   C742      1.0  0.43830  0.24900  0.39690  1.0000 -0.0845960127
C   C743      1.0  0.39690  0.91580  0.43830  1.0000 -0.0845960127
C   C744      1.0  0.24900  0.43830  0.91580  1.0000 -0.0845960127
C   C745      1.0  0.63961  0.15641  0.32509  1.0000 -0.089599768
C   C746      1.0  0.15641  0.63961  0.87889  1.0000 -0.089599768
C   C747      1.0  0.87889  0.32509  0.15641  1.0000 -0.089599768
C   C748      1.0  0.32509  0.87889  0.63961  1.0000 -0.089599768
C   C749      1.0  0.32509  0.63961  0.15641  1.0000 -0.089599768
C   C750      1.0  0.63961  0.32509  0.87889  1.0000 -0.089599768
C   C751      1.0  0.87889  0.15641  0.63961  1.0000 -0.089599768
C   C752      1.0  0.15641  0.87889  0.32509  1.0000 -0.089599768
C   C753      1.0  0.15641  0.32509  0.63961  1.0000 -0.089599768
C   C754      1.0  0.87889  0.63961  0.32509  1.0000 -0.089599768
C   C755      1.0  0.32509  0.15641  0.87889  1.0000 -0.089599768
C   C756      1.0  0.63961  0.87889  0.15641  1.0000 -0.089599768
C   C757      1.0  0.37889  0.82509  0.13961  1.0000 -0.089599768
C   C758      1.0  0.82509  0.37889  0.65641  1.0000 -0.089599768
C   C759      1.0  0.13961  0.65641  0.37889  1.0000 -0.089599768
C   C760      1.0  0.65641  0.13961  0.82509  1.0000 -0.089599768
C   C761      1.0  0.37889  0.65641  0.82509  1.0000 -0.089599768
C   C762      1.0  0.65641  0.37889  0.13961  1.0000 -0.089599768
C   C763      1.0  0.82509  0.13961  0.37889  1.0000 -0.089599768
C   C764      1.0  0.13961  0.82509  0.65641  1.0000 -0.089599768
C   C765      1.0  0.82509  0.65641  0.13961  1.0000 -0.089599768
C   C766      1.0  0.37889  0.13961  0.65641  1.0000 -0.089599768
C   C767      1.0  0.65641  0.82509  0.37889  1.0000 -0.089599768
C   C768      1.0  0.13961  0.37889  0.82509  1.0000 -0.089599768
C   C769      1.0  0.62407  0.17567  0.36613  1.0000 -0.1002271456
C   C770      1.0  0.17567  0.62407  0.83413  1.0000 -0.1002271456
C   C771      1.0  0.83413  0.36613  0.17567  1.0000 -0.1002271456
C   C772      1.0  0.36613  0.83413  0.62407  1.0000 -0.1002271456
C   C773      1.0  0.36613  0.62407  0.17567  1.0000 -0.1002271456
C   C774      1.0  0.62407  0.36613  0.83413  1.0000 -0.1002271456
C   C775      1.0  0.83413  0.17567  0.62407  1.0000 -0.1002271456
C   C776      1.0  0.17567  0.83413  0.36613  1.0000 -0.1002271456
C   C777      1.0  0.17567  0.36613  0.62407  1.0000 -0.1002271456
C   C778      1.0  0.83413  0.62407  0.36613  1.0000 -0.1002271456
C   C779      1.0  0.36613  0.17567  0.83413  1.0000 -0.1002271456
C   C780      1.0  0.62407  0.83413  0.17567  1.0000 -0.1002271456
C   C781      1.0  0.33413  0.86613  0.12407  1.0000 -0.1002271456
C   C782      1.0  0.86613  0.33413  0.67567  1.0000 -0.1002271456
C   C783      1.0  0.12407  0.67567  0.33413  1.0000 -0.1002271456
C   C784      1.0  0.67567  0.12407  0.86613  1.0000 -0.1002271456
C   C785      1.0  0.33413  0.67567  0.86613  1.0000 -0.1002271456
C   C786      1.0  0.67567  0.33413  0.12407  1.0000 -0.1002271456
C   C787      1.0  0.86613  0.12407  0.33413  1.0000 -0.1002271456
C   C788      1.0  0.12407  0.86613  0.67567  1.0000 -0.1002271456
C   C789      1.0  0.86613  0.67567  0.12407  1.0000 -0.1002271456
C   C790      1.0  0.33413  0.12407  0.67567  1.0000 -0.1002271456
C   C791      1.0  0.67567  0.86613  0.33413  1.0000 -0.1002271456
C   C792      1.0  0.12407  0.33413  0.86613  1.0000 -0.1002271456
C   C793      1.0  0.58643  0.20023  0.33555  1.0000 0.5624853267
C   C794      1.0  0.20023  0.58643  0.87779  1.0000 0.5624853267
C   C795      1.0  0.87779  0.33555  0.20023  1.0000 0.5624853267
C   C796      1.0  0.33555  0.87779  0.58643  1.0000 0.5624853267
C   C797      1.0  0.33555  0.58643  0.20023  1.0000 0.5624853267
C   C798      1.0  0.58643  0.33555  0.87779  1.0000 0.5624853267
C   C799      1.0  0.87779  0.20023  0.58643  1.0000 0.5624853267
C   C800      1.0  0.20023  0.87779  0.33555  1.0000 0.5624853267
C   C801      1.0  0.20023  0.33555  0.58643  1.0000 0.5624853267
C   C802      1.0  0.87779  0.58643  0.33555  1.0000 0.5624853267
C   C803      1.0  0.33555  0.20023  0.87779  1.0000 0.5624853267
C   C804      1.0  0.58643  0.87779  0.20023  1.0000 0.5624853267
C   C805      1.0  0.37779  0.83555  0.08643  1.0000 0.5624853267
C   C806      1.0  0.83555  0.37779  0.70023  1.0000 0.5624853267
C   C807      1.0  0.08643  0.70023  0.37779  1.0000 0.5624853267
C   C808      1.0  0.70023  0.08643  0.83555  1.0000 0.5624853267
C   C809      1.0  0.37779  0.70023  0.83555  1.0000 0.5624853267
C   C810      1.0  0.70023  0.37779  0.08643  1.0000 0.5624853267
C   C811      1.0  0.83555  0.08643  0.37779  1.0000 0.5624853267
C   C812      1.0  0.08643  0.83555  0.70023  1.0000 0.5624853267
C   C813      1.0  0.83555  0.70023  0.08643  1.0000 0.5624853267
C   C814      1.0  0.37779  0.08643  0.70023  1.0000 0.5624853267
C   C815      1.0  0.70023  0.83555  0.37779  1.0000 0.5624853267
C   C816      1.0  0.08643  0.37779  0.83555  1.0000 0.5624853267
C   C817      1.0  0.73331  0.03957  0.40113  1.0000 -0.1060218473
C   C818      1.0  0.03957  0.73331  0.82599  1.0000 -0.1002271456
C   C819      1.0  0.82599  0.40113  0.03957  1.0000 -0.1002271456
C   C820      1.0  0.40113  0.82599  0.73331  1.0000 -0.1060218473
C   C821      1.0  0.40113  0.73331  0.03957  1.0000 -0.1002271456
C   C822      1.0  0.73331  0.40113  0.82599  1.0000 -0.1002271456
C   C823      1.0  0.82599  0.03957  0.73331  1.0000 -0.1060218473
C   C824      1.0  0.03957  0.82599  0.40113  1.0000 -0.1060218473
C   C825      1.0  0.03957  0.40113  0.73331  1.0000 -0.1060218473
C   C826      1.0  0.82599  0.73331  0.40113  1.0000 -0.1002271456
C   C827      1.0  0.40113  0.03957  0.82599  1.0000 -0.1002271456
C   C828      1.0  0.73331  0.82599  0.03957  1.0000 -0.1060218473
C   C829      1.0  0.32599  0.90113  0.23331  1.0000 -0.1002271456
C   C830      1.0  0.90113  0.32599  0.53957  1.0000 -0.1060218473
C   C831      1.0  0.23331  0.53957  0.32599  1.0000 -0.1060218473
C   C832      1.0  0.53957  0.23331  0.90113  1.0000 -0.1002271456
C   C833      1.0  0.32599  0.53957  0.90113  1.0000 -0.1060218473
C   C834      1.0  0.53957  0.32599  0.23331  1.0000 -0.1002271456
C   C835      1.0  0.90113  0.23331  0.32599  1.0000 -0.1060218473
C   C836      1.0  0.23331  0.90113  0.53957  1.0000 -0.1002271456
C   C837      1.0  0.90113  0.53957  0.23331  1.0000 -0.1060218473
C   C838      1.0  0.32599  0.23331  0.53957  1.0000 -0.1060218473
C   C839      1.0  0.53957  0.90113  0.32599  1.0000 -0.1002271456
C   C840      1.0  0.23331  0.32599  0.90113  1.0000 -0.1060218473
C   C841      1.0  0.70976  0.10022  0.38990  1.0000 0.4629697719
C   C842      1.0  0.10022  0.70976  0.80012  1.0000 0.4629697719
C   C843      1.0  0.80012  0.38990  0.10022  1.0000 0.4629697719
C   C844      1.0  0.38990  0.80012  0.70976  1.0000 0.4629697719
C   C845      1.0  0.38990  0.70976  0.10022  1.0000 0.4629697719
C   C846      1.0  0.70976  0.38990  0.80012  1.0000 0.4629697719
C   C847      1.0  0.80012  0.10022  0.70976  1.0000 0.4629697719
C   C848      1.0  0.10022  0.80012  0.38990  1.0000 0.4629697719
C   C849      1.0  0.10022  0.38990  0.70976  1.0000 0.4629697719
C   C850      1.0  0.80012  0.70976  0.38990  1.0000 0.4629697719
C   C851      1.0  0.38990  0.10022  0.80012  1.0000 0.4629697719
C   C852      1.0  0.70976  0.80012  0.10022  1.0000 0.4629697719
C   C853      1.0  0.30012  0.88990  0.20976  1.0000 0.4629697719
C   C854      1.0  0.88990  0.30012  0.60022  1.0000 0.4629697719
C   C855      1.0  0.20976  0.60022  0.30012  1.0000 0.4629697719
C   C856      1.0  0.60022  0.20976  0.88990  1.0000 0.4629697719
C   C857      1.0  0.30012  0.60022  0.88990  1.0000 0.4629697719
C   C858      1.0  0.60022  0.30012  0.20976  1.0000 0.4629697719
C   C859      1.0  0.88990  0.20976  0.30012  1.0000 0.4629697719
C   C860      1.0  0.20976  0.88990  0.60022  1.0000 0.4629697719
C   C861      1.0  0.88990  0.60022  0.20976  1.0000 0.4629697719
C   C862      1.0  0.30012  0.20976  0.60022  1.0000 0.4629697719
C   C863      1.0  0.60022  0.88990  0.30012  1.0000 0.4629697719
C   C864      1.0  0.20976  0.30012  0.88990  1.0000 0.4629697719
C   C865      1.0  0.75572  0.92148  0.41316  1.0000 -0.1691146397
C   C866      1.0  0.92148  0.75572  0.90964  1.0000 -0.1691146397
C   C867      1.0  0.90964  0.41316  0.92148  1.0000 -0.1691146397
C   C868      1.0  0.41316  0.90964  0.75572  1.0000 -0.1691146397
C   C869      1.0  0.41316  0.75572  0.92148  1.0000 -0.1691146397
C   C870      1.0  0.75572  0.41316  0.90964  1.0000 -0.1691146397
C   C871      1.0  0.90964  0.92148  0.75572  1.0000 -0.1691146397
C   C872      1.0  0.92148  0.90964  0.41316  1.0000 -0.1691146397
C   C873      1.0  0.92148  0.41316  0.75572  1.0000 -0.1691146397
C   C874      1.0  0.90964  0.75572  0.41316  1.0000 -0.1691146397
C   C875      1.0  0.41316  0.92148  0.90964  1.0000 -0.1691146397
C   C876      1.0  0.75572  0.90964  0.92148  1.0000 -0.1691146397
C   C877      1.0  0.40964  0.91316  0.25572  1.0000 -0.1691146397
C   C878      1.0  0.91316  0.40964  0.42148  1.0000 -0.1691146397
C   C879      1.0  0.25572  0.42148  0.40964  1.0000 -0.1691146397
C   C880      1.0  0.42148  0.25572  0.91316  1.0000 -0.1691146397
C   C881      1.0  0.40964  0.42148  0.91316  1.0000 -0.1691146397
C   C882      1.0  0.42148  0.40964  0.25572  1.0000 -0.1691146397
C   C883      1.0  0.91316  0.25572  0.40964  1.0000 -0.1691146397
C   C884      1.0  0.25572  0.91316  0.42148  1.0000 -0.1691146397
C   C885      1.0  0.91316  0.42148  0.25572  1.0000 -0.1691146397
C   C886      1.0  0.40964  0.25572  0.42148  1.0000 -0.1691146397
C   C887      1.0  0.42148  0.91316  0.40964  1.0000 -0.1691146397
C   C888      1.0  0.25572  0.40964  0.91316  1.0000 -0.1691146397
C   C889      1.0  0.75874  0.06614  0.40452  1.0000 0.0650961722
C   C890      1.0  0.06614  0.75874  0.77060  1.0000 0.0650961722
C   C891      1.0  0.77060  0.40452  0.06614  1.0000 0.0650961722
C   C892      1.0  0.40452  0.77060  0.75874  1.0000 0.0650961722
C   C893      1.0  0.40452  0.75874  0.06614  1.0000 0.0644916917
C   C894      1.0  0.75874  0.40452  0.77060  1.0000 0.0650961722
C   C895      1.0  0.77060  0.06614  0.75874  1.0000 0.0650961722
C   C896      1.0  0.06614  0.77060  0.40452  1.0000 0.0650961722
C   C897      1.0  0.06614  0.40452  0.75874  1.0000 0.0650961722
C   C898      1.0  0.77060  0.75874  0.40452  1.0000 0.0650961722
C   C899      1.0  0.40452  0.06614  0.77060  1.0000 0.0644916917
C   C900      1.0  0.75874  0.77060  0.06614  1.0000 0.0650961722
C   C901      1.0  0.27060  0.90452  0.25874  1.0000 0.0644916917
C   C902      1.0  0.90452  0.27060  0.56614  1.0000 0.0650961722
C   C903      1.0  0.25874  0.56614  0.27060  1.0000 0.0644916917
C   C904      1.0  0.56614  0.25874  0.90452  1.0000 0.0644916917
C   C905      1.0  0.27060  0.56614  0.90452  1.0000 0.0650961722
C   C906      1.0  0.56614  0.27060  0.25874  1.0000 0.0644916917
C   C907      1.0  0.90452  0.25874  0.27060  1.0000 0.0644916917
C   C908      1.0  0.25874  0.90452  0.56614  1.0000 0.0650961722
C   C909      1.0  0.90452  0.56614  0.25874  1.0000 0.0650961722
C   C910      1.0  0.27060  0.25874  0.56614  1.0000 0.0644916917
C   C911      1.0  0.56614  0.90452  0.27060  1.0000 0.0650961722
C   C912      1.0  0.25874  0.27060  0.90452  1.0000 0.0644916917
C   C913      1.0  0.71260  0.87298  0.42340  1.0000 0.5624853267
C   C914      1.0  0.87298  0.71260  0.99102  1.0000 0.5624853267
C   C915      1.0  0.99102  0.42340  0.87298  1.0000 0.5624853267
C   C916      1.0  0.42340  0.99102  0.71260  1.0000 0.5624853267
C   C917      1.0  0.42340  0.71260  0.87298  1.0000 0.5624853267
C   C918      1.0  0.71260  0.42340  0.99102  1.0000 0.5624853267
C   C919      1.0  0.99102  0.87298  0.71260  1.0000 0.5624853267
C   C920      1.0  0.87298  0.99102  0.42340  1.0000 0.5624853267
C   C921      1.0  0.87298  0.42340  0.71260  1.0000 0.5624853267
C   C922      1.0  0.99102  0.71260  0.42340  1.0000 0.5624853267
C   C923      1.0  0.42340  0.87298  0.99102  1.0000 0.5624853267
C   C924      1.0  0.71260  0.99102  0.87298  1.0000 0.5624853267
C   C925      1.0  0.49102  0.92340  0.21260  1.0000 0.5624853267
C   C926      1.0  0.92340  0.49102  0.37298  1.0000 0.5624853267
C   C927      1.0  0.21260  0.37298  0.49102  1.0000 0.5624853267
C   C928      1.0  0.37298  0.21260  0.92340  1.0000 0.5624853267
C   C929      1.0  0.49102  0.37298  0.92340  1.0000 0.5624853267
C   C930      1.0  0.37298  0.49102  0.21260  1.0000 0.5624853267
C   C931      1.0  0.92340  0.21260  0.49102  1.0000 0.5624853267
C   C932      1.0  0.21260  0.92340  0.37298  1.0000 0.5624853267
C   C933      1.0  0.92340  0.37298  0.21260  1.0000 0.5624853267
C   C934      1.0  0.49102  0.21260  0.37298  1.0000 0.5624853267
C   C935      1.0  0.37298  0.92340  0.49102  1.0000 0.5624853267
C   C936      1.0  0.21260  0.49102  0.92340  1.0000 0.5624853267
C   C937      1.0  0.65123  0.15289  0.37441  1.0000 -0.1691146397
C   C938      1.0  0.15289  0.65123  0.82147  1.0000 -0.1691146397
C   C939      1.0  0.82147  0.37441  0.15289  1.0000 -0.1691146397
C   C940      1.0  0.37441  0.82147  0.65123  1.0000 -0.1691146397
C   C941      1.0  0.37441  0.65123  0.15289  1.0000 -0.1691146397
C   C942      1.0  0.65123  0.37441  0.82147  1.0000 -0.1691146397
C   C943      1.0  0.82147  0.15289  0.65123  1.0000 -0.1691146397
C   C944      1.0  0.15289  0.82147  0.37441  1.0000 -0.1691146397
C   C945      1.0  0.15289  0.37441  0.65123  1.0000 -0.1691146397
C   C946      1.0  0.82147  0.65123  0.37441  1.0000 -0.1691146397
C   C947      1.0  0.37441  0.15289  0.82147  1.0000 -0.1691146397
C   C948      1.0  0.65123  0.82147  0.15289  1.0000 -0.1691146397
C   C949      1.0  0.32147  0.87441  0.15123  1.0000 -0.1691146397
C   C950      1.0  0.87441  0.32147  0.65289  1.0000 -0.1691146397
C   C951      1.0  0.15123  0.65289  0.32147  1.0000 -0.1691146397
C   C952      1.0  0.65289  0.15123  0.87441  1.0000 -0.1691146397
C   C953      1.0  0.32147  0.65289  0.87441  1.0000 -0.1691146397
C   C954      1.0  0.65289  0.32147  0.15123  1.0000 -0.1691146397
C   C955      1.0  0.87441  0.15123  0.32147  1.0000 -0.1691146397
C   C956      1.0  0.15123  0.87441  0.65289  1.0000 -0.1691146397
C   C957      1.0  0.87441  0.65289  0.15123  1.0000 -0.1691146397
C   C958      1.0  0.32147  0.15123  0.65289  1.0000 -0.1691146397
C   C959      1.0  0.65289  0.87441  0.32147  1.0000 -0.1691146397
C   C960      1.0  0.15123  0.32147  0.87441  1.0000 -0.1691146397
C   C961      1.0  0.66777  0.13341  0.33319  1.0000 -0.1834702705
C   C962      1.0  0.13341  0.66777  0.86563  1.0000 -0.1834702705
C   C963      1.0  0.86563  0.33319  0.13341  1.0000 -0.1834702705
C   C964      1.0  0.33319  0.86563  0.66777  1.0000 -0.1834702705
C   C965      1.0  0.33319  0.66777  0.13341  1.0000 -0.1834702705
C   C966      1.0  0.66777  0.33319  0.86563  1.0000 -0.1834702705
C   C967      1.0  0.86563  0.13341  0.66777  1.0000 -0.1834702705
C   C968      1.0  0.13341  0.86563  0.33319  1.0000 -0.1834702705
C   C969      1.0  0.13341  0.33319  0.66777  1.0000 -0.1834702705
C   C970      1.0  0.86563  0.66777  0.33319  1.0000 -0.1834702705
C   C971      1.0  0.33319  0.13341  0.86563  1.0000 -0.1834702705
C   C972      1.0  0.66777  0.86563  0.13341  1.0000 -0.1834702705
C   C973      1.0  0.36563  0.83319  0.16777  1.0000 -0.1834702705
C   C974      1.0  0.83319  0.36563  0.63341  1.0000 -0.1834702705
C   C975      1.0  0.16777  0.63341  0.36563  1.0000 -0.1834702705
C   C976      1.0  0.63341  0.16777  0.83319  1.0000 -0.1834702705
C   C977      1.0  0.36563  0.63341  0.83319  1.0000 -0.1834702705
C   C978      1.0  0.63341  0.36563  0.16777  1.0000 -0.1834702705
C   C979      1.0  0.83319  0.16777  0.36563  1.0000 -0.1834702705
C   C980      1.0  0.16777  0.83319  0.63341  1.0000 -0.1834702705
C   C981      1.0  0.83319  0.63341  0.16777  1.0000 -0.1834702705
C   C982      1.0  0.36563  0.16777  0.63341  1.0000 -0.1834702705
C   C983      1.0  0.63341  0.83319  0.36563  1.0000 -0.1834702705
C   C984      1.0  0.16777  0.36563  0.83319  1.0000 -0.1834702705
C   C985      1.0  0.69436  0.92848  0.42288  1.0000 -0.089599768
C   C986      1.0  0.92848  0.69436  0.95428  1.0000 -0.089599768
C   C987      1.0  0.95428  0.42288  0.92848  1.0000 -0.089599768
C   C988      1.0  0.42288  0.95428  0.69436  1.0000 -0.089599768
C   C989      1.0  0.42288  0.69436  0.92848  1.0000 -0.089599768
C   C990      1.0  0.69436  0.42288  0.95428  1.0000 -0.089599768
C   C991      1.0  0.95428  0.92848  0.69436  1.0000 -0.089599768
C   C992      1.0  0.92848  0.95428  0.42288  1.0000 -0.089599768
C   C993      1.0  0.92848  0.42288  0.69436  1.0000 -0.089599768
C   C994      1.0  0.95428  0.69436  0.42288  1.0000 -0.089599768
C   C995      1.0  0.42288  0.92848  0.95428  1.0000 -0.089599768
C   C996      1.0  0.69436  0.95428  0.92848  1.0000 -0.089599768
C   C997      1.0  0.45428  0.92288  0.19436  1.0000 -0.089599768
C   C998      1.0  0.92288  0.45428  0.42848  1.0000 -0.089599768
C   C999      1.0  0.19436  0.42848  0.45428  1.0000 -0.089599768
C   C1000     1.0  0.42848  0.19436  0.92288  1.0000 -0.089599768
C   C1001     1.0  0.45428  0.42848  0.92288  1.0000 -0.089599768
C   C1002     1.0  0.42848  0.45428  0.19436  1.0000 -0.089599768
C   C1003     1.0  0.92288  0.19436  0.45428  1.0000 -0.089599768
C   C1004     1.0  0.19436  0.92288  0.42848  1.0000 -0.089599768
C   C1005     1.0  0.92288  0.42848  0.19436  1.0000 -0.089599768
C   C1006     1.0  0.45428  0.19436  0.42848  1.0000 -0.089599768
C   C1007     1.0  0.42848  0.92288  0.45428  1.0000 -0.089599768
C   C1008     1.0  0.19436  0.45428  0.92288  1.0000 -0.089599768
N   N1        1.0  0.48351  0.83649  0.46793  1.0000 -0.2497947673
N   N2        1.0  0.83649  0.48351  0.21207  1.0000 -0.2497947673
N   N3        1.0  0.46793  0.21207  0.48351  1.0000 -0.2497947673
N   N4        1.0  0.21207  0.46793  0.83649  1.0000 -0.2497947673
N   N5        1.0  0.48351  0.21207  0.83649  1.0000 -0.2497947673
N   N6        1.0  0.21207  0.48351  0.46793  1.0000 -0.2497947673
N   N7        1.0  0.83649  0.46793  0.48351  1.0000 -0.2497947673
N   N8        1.0  0.46793  0.83649  0.21207  1.0000 -0.2497947673
N   N9        1.0  0.83649  0.21207  0.46793  1.0000 -0.2497947673
N   N10       1.0  0.48351  0.46793  0.21207  1.0000 -0.2497947673
N   N11       1.0  0.21207  0.83649  0.48351  1.0000 -0.2497947673
N   N12       1.0  0.46793  0.48351  0.83649  1.0000 -0.2497947673
N   N13       1.0  0.96793  0.71207  0.33649  1.0000 -0.2497947673
N   N14       1.0  0.71207  0.96793  0.98351  1.0000 -0.2497947673
N   N15       1.0  0.98351  0.33649  0.71207  1.0000 -0.2497947673
N   N16       1.0  0.33649  0.98351  0.96793  1.0000 -0.2497947673
N   N17       1.0  0.33649  0.96793  0.71207  1.0000 -0.2497947673
N   N18       1.0  0.96793  0.33649  0.98351  1.0000 -0.2497947673
N   N19       1.0  0.98351  0.71207  0.96793  1.0000 -0.2497947673
N   N20       1.0  0.71207  0.98351  0.33649  1.0000 -0.2497947673
N   N21       1.0  0.71207  0.33649  0.96793  1.0000 -0.2497947673
N   N22       1.0  0.98351  0.96793  0.33649  1.0000 -0.2497947673
N   N23       1.0  0.33649  0.71207  0.98351  1.0000 -0.2497947673
N   N24       1.0  0.96793  0.98351  0.71207  1.0000 -0.2497947673
N   N25       1.0  0.37380  0.83862  0.51534  1.0000 -0.3387599861
N   N26       1.0  0.83862  0.37380  0.27224  1.0000 -0.3387599861
N   N27       1.0  0.51534  0.27224  0.37380  1.0000 -0.3387599861
N   N28       1.0  0.27224  0.51534  0.83862  1.0000 -0.3387599861
N   N29       1.0  0.37380  0.27224  0.83862  1.0000 -0.3387599861
N   N30       1.0  0.27224  0.37380  0.51534  1.0000 -0.3387599861
N   N31       1.0  0.83862  0.51534  0.37380  1.0000 -0.3387599861
N   N32       1.0  0.51534  0.83862  0.27224  1.0000 -0.3387599861
N   N33       1.0  0.83862  0.27224  0.51534  1.0000 -0.3387599861
N   N34       1.0  0.37380  0.51534  0.27224  1.0000 -0.3387599861
N   N35       1.0  0.27224  0.83862  0.37380  1.0000 -0.3387599861
N   N36       1.0  0.51534  0.37380  0.83862  1.0000 -0.3387599861
N   N37       1.0  0.01534  0.77224  0.33862  1.0000 -0.3387599861
N   N38       1.0  0.77224  0.01534  0.87380  1.0000 -0.3387599861
N   N39       1.0  0.87380  0.33862  0.77224  1.0000 -0.3387599861
N   N40       1.0  0.33862  0.87380  0.01534  1.0000 -0.3387599861
N   N41       1.0  0.33862  0.01534  0.77224  1.0000 -0.3387599861
N   N42       1.0  0.01534  0.33862  0.87380  1.0000 -0.3387599861
N   N43       1.0  0.87380  0.77224  0.01534  1.0000 -0.3387599861
N   N44       1.0  0.77224  0.87380  0.33862  1.0000 -0.3387599861
N   N45       1.0  0.77224  0.33862  0.01534  1.0000 -0.3387599861
N   N46       1.0  0.87380  0.01534  0.33862  1.0000 -0.3387599861
N   N47       1.0  0.33862  0.77224  0.87380  1.0000 -0.3387599861
N   N48       1.0  0.01534  0.87380  0.77224  1.0000 -0.3387599861
N   N49       1.0  0.42194  0.88228  0.55100  1.0000 -0.3537507828
N   N50       1.0  0.88228  0.42194  0.14478  1.0000 -0.3537507828
N   N51       1.0  0.55100  0.14478  0.42194  1.0000 -0.3537507828
N   N52       1.0  0.14478  0.55100  0.88228  1.0000 -0.3537507828
N   N53       1.0  0.42194  0.14478  0.88228  1.0000 -0.3537507828
N   N54       1.0  0.14478  0.42194  0.55100  1.0000 -0.3537507828
N   N55       1.0  0.88228  0.55100  0.42194  1.0000 -0.3537507828
N   N56       1.0  0.55100  0.88228  0.14478  1.0000 -0.3537507828
N   N57       1.0  0.88228  0.14478  0.55100  1.0000 -0.3537507828
N   N58       1.0  0.42194  0.55100  0.14478  1.0000 -0.3537507828
N   N59       1.0  0.14478  0.88228  0.42194  1.0000 -0.3537507828
N   N60       1.0  0.55100  0.42194  0.88228  1.0000 -0.3537507828
N   N61       1.0  0.05100  0.64478  0.38228  1.0000 -0.3537507828
N   N62       1.0  0.64478  0.05100  0.92194  1.0000 -0.3537507828
N   N63       1.0  0.92194  0.38228  0.64478  1.0000 -0.3537507828
N   N64       1.0  0.38228  0.92194  0.05100  1.0000 -0.3537507828
N   N65       1.0  0.38228  0.05100  0.64478  1.0000 -0.3537507828
N   N66       1.0  0.05100  0.38228  0.92194  1.0000 -0.3537507828
N   N67       1.0  0.92194  0.64478  0.05100  1.0000 -0.3537507828
N   N68       1.0  0.64478  0.92194  0.38228  1.0000 -0.3537507828
N   N69       1.0  0.64478  0.38228  0.05100  1.0000 -0.3537507828
N   N70       1.0  0.92194  0.05100  0.38228  1.0000 -0.3537507828
N   N71       1.0  0.38228  0.64478  0.92194  1.0000 -0.3537507828
N   N72       1.0  0.05100  0.92194  0.64478  1.0000 -0.3537507828
N   N73       1.0  0.78207  0.03793  0.41351  1.0000 -0.2497947673
N   N74       1.0  0.03793  0.78207  0.76649  1.0000 -0.2497947673
N   N75       1.0  0.76649  0.41351  0.03793  1.0000 -0.2497947673
N   N76       1.0  0.41351  0.76649  0.78207  1.0000 -0.2497947673
N   N77       1.0  0.41351  0.78207  0.03793  1.0000 -0.2497947673
N   N78       1.0  0.78207  0.41351  0.76649  1.0000 -0.2497947673
N   N79       1.0  0.76649  0.03793  0.78207  1.0000 -0.2497947673
N   N80       1.0  0.03793  0.76649  0.41351  1.0000 -0.2497947673
N   N81       1.0  0.03793  0.41351  0.78207  1.0000 -0.2497947673
N   N82       1.0  0.76649  0.78207  0.41351  1.0000 -0.2497947673
N   N83       1.0  0.41351  0.03793  0.76649  1.0000 -0.2497947673
N   N84       1.0  0.78207  0.76649  0.03793  1.0000 -0.2497947673
N   N85       1.0  0.26649  0.91351  0.28207  1.0000 -0.2497947673
N   N86       1.0  0.91351  0.26649  0.53793  1.0000 -0.2497947673
N   N87       1.0  0.28207  0.53793  0.26649  1.0000 -0.2497947673
N   N88       1.0  0.53793  0.28207  0.91351  1.0000 -0.2497947673
N   N89       1.0  0.26649  0.53793  0.91351  1.0000 -0.2497947673
N   N90       1.0  0.53793  0.26649  0.28207  1.0000 -0.2497947673
N   N91       1.0  0.91351  0.28207  0.26649  1.0000 -0.2497947673
N   N92       1.0  0.28207  0.91351  0.53793  1.0000 -0.2497947673
N   N93       1.0  0.91351  0.53793  0.28207  1.0000 -0.2497947673
N   N94       1.0  0.26649  0.28207  0.53793  1.0000 -0.2497947673
N   N95       1.0  0.53793  0.91351  0.26649  1.0000 -0.2497947673
N   N96       1.0  0.28207  0.26649  0.91351  1.0000 -0.2497947673
N   N97       1.0  0.73466  0.97776  0.41138  1.0000 -0.3387599861
N   N98       1.0  0.97776  0.73466  0.87620  1.0000 -0.3387599861
N   N99       1.0  0.87620  0.41138  0.97776  1.0000 -0.3387599861
N   N100      1.0  0.41138  0.87620  0.73466  1.0000 -0.3387599861
N   N101      1.0  0.41138  0.73466  0.97776  1.0000 -0.3387599861
N   N102      1.0  0.73466  0.41138  0.87620  1.0000 -0.3387599861
N   N103      1.0  0.87620  0.97776  0.73466  1.0000 -0.3387599861
N   N104      1.0  0.97776  0.87620  0.41138  1.0000 -0.3387599861
N   N105      1.0  0.97776  0.41138  0.73466  1.0000 -0.3387599861
N   N106      1.0  0.87620  0.73466  0.41138  1.0000 -0.3387599861
N   N107      1.0  0.41138  0.97776  0.87620  1.0000 -0.3387599861
N   N108      1.0  0.73466  0.87620  0.97776  1.0000 -0.3387599861
N   N109      1.0  0.37620  0.91138  0.23466  1.0000 -0.3387599861
N   N110      1.0  0.91138  0.37620  0.47776  1.0000 -0.3387599861
N   N111      1.0  0.23466  0.47776  0.37620  1.0000 -0.3387599861
N   N112      1.0  0.47776  0.23466  0.91138  1.0000 -0.3387599861
N   N113      1.0  0.37620  0.47776  0.91138  1.0000 -0.3387599861
N   N114      1.0  0.47776  0.37620  0.23466  1.0000 -0.3387599861
N   N115      1.0  0.91138  0.23466  0.37620  1.0000 -0.3387599861
N   N116      1.0  0.23466  0.91138  0.47776  1.0000 -0.3387599861
N   N117      1.0  0.91138  0.47776  0.23466  1.0000 -0.3387599861
N   N118      1.0  0.37620  0.23466  0.47776  1.0000 -0.3387599861
N   N119      1.0  0.47776  0.91138  0.37620  1.0000 -0.3387599861
N   N120      1.0  0.23466  0.37620  0.91138  1.0000 -0.3387599861
N   N121      1.0  0.69900  0.10522  0.36772  1.0000 -0.3537507828
N   N122      1.0  0.10522  0.69900  0.82806  1.0000 -0.3537507828
N   N123      1.0  0.82806  0.36772  0.10522  1.0000 -0.3537507828
N   N124      1.0  0.36772  0.82806  0.69900  1.0000 -0.3537507828
N   N125      1.0  0.36772  0.69900  0.10522  1.0000 -0.3537507828
N   N126      1.0  0.69900  0.36772  0.82806  1.0000 -0.3537507828
N   N127      1.0  0.82806  0.10522  0.69900  1.0000 -0.3537507828
N   N128      1.0  0.10522  0.82806  0.36772  1.0000 -0.3537507828
N   N129      1.0  0.10522  0.36772  0.69900  1.0000 -0.3537507828
N   N130      1.0  0.82806  0.69900  0.36772  1.0000 -0.3537507828
N   N131      1.0  0.36772  0.10522  0.82806  1.0000 -0.3537507828
N   N132      1.0  0.69900  0.82806  0.10522  1.0000 -0.3537507828
N   N133      1.0  0.32806  0.86772  0.19900  1.0000 -0.3537507828
N   N134      1.0  0.86772  0.32806  0.60522  1.0000 -0.3537507828
N   N135      1.0  0.19900  0.60522  0.32806  1.0000 -0.3537507828
N   N136      1.0  0.60522  0.19900  0.86772  1.0000 -0.3537507828
N   N137      1.0  0.32806  0.60522  0.86772  1.0000 -0.3537507828
N   N138      1.0  0.60522  0.32806  0.19900  1.0000 -0.3537507828
N   N139      1.0  0.86772  0.19900  0.32806  1.0000 -0.3537507828
N   N140      1.0  0.19900  0.86772  0.60522  1.0000 -0.3537507828
N   N141      1.0  0.86772  0.60522  0.19900  1.0000 -0.3537507828
N   N142      1.0  0.32806  0.19900  0.60522  1.0000 -0.3537507828
N   N143      1.0  0.60522  0.86772  0.32806  1.0000 -0.3537507828
N   N144      1.0  0.19900  0.32806  0.86772  1.0000 -0.3537507828
O   O1        1.0  0.40745  0.82861  0.46909  1.0000 -0.453377394
O   O2        1.0  0.82861  0.40745  0.29485  1.0000 -0.453377394
O   O3        1.0  0.46909  0.29485  0.40745  1.0000 -0.453377394
O   O4        1.0  0.29485  0.46909  0.82861  1.0000 -0.453377394
O   O5        1.0  0.40745  0.29485  0.82861  1.0000 -0.453377394
O   O6        1.0  0.29485  0.40745  0.46909  1.0000 -0.453377394
O   O7        1.0  0.82861  0.46909  0.40745  1.0000 -0.453377394
O   O8        1.0  0.46909  0.82861  0.29485  1.0000 -0.453377394
O   O9        1.0  0.82861  0.29485  0.46909  1.0000 -0.453377394
O   O10       1.0  0.40745  0.46909  0.29485  1.0000 -0.453377394
O   O11       1.0  0.29485  0.82861  0.40745  1.0000 -0.453377394
O   O12       1.0  0.46909  0.40745  0.82861  1.0000 -0.453377394
O   O13       1.0  0.96909  0.79485  0.32861  1.0000 -0.453377394
O   O14       1.0  0.79485  0.96909  0.90745  1.0000 -0.453377394
O   O15       1.0  0.90745  0.32861  0.79485  1.0000 -0.453377394
O   O16       1.0  0.32861  0.90745  0.96909  1.0000 -0.453377394
O   O17       1.0  0.32861  0.96909  0.79485  1.0000 -0.453377394
O   O18       1.0  0.96909  0.32861  0.90745  1.0000 -0.453377394
O   O19       1.0  0.90745  0.79485  0.96909  1.0000 -0.453377394
O   O20       1.0  0.79485  0.90745  0.32861  1.0000 -0.453377394
O   O21       1.0  0.79485  0.32861  0.96909  1.0000 -0.453377394
O   O22       1.0  0.90745  0.96909  0.32861  1.0000 -0.453377394
O   O23       1.0  0.32861  0.79485  0.90745  1.0000 -0.453377394
O   O24       1.0  0.96909  0.90745  0.79485  1.0000 -0.453377394
O   O25       1.0  0.47272  0.84756  0.54916  1.0000 -0.4374138899
O   O26       1.0  0.84756  0.47272  0.13056  1.0000 -0.4374138899
O   O27       1.0  0.54916  0.13056  0.47272  1.0000 -0.4374138899
O   O28       1.0  0.13056  0.54916  0.84756  1.0000 -0.4374138899
O   O29       1.0  0.47272  0.13056  0.84756  1.0000 -0.4374138899
O   O30       1.0  0.13056  0.47272  0.54916  1.0000 -0.4374138899
O   O31       1.0  0.84756  0.54916  0.47272  1.0000 -0.4374138899
O   O32       1.0  0.54916  0.84756  0.13056  1.0000 -0.4374138899
O   O33       1.0  0.84756  0.13056  0.54916  1.0000 -0.4374138899
O   O34       1.0  0.47272  0.54916  0.13056  1.0000 -0.4374138899
O   O35       1.0  0.13056  0.84756  0.47272  1.0000 -0.4374138899
O   O36       1.0  0.54916  0.47272  0.84756  1.0000 -0.4374138899
O   O37       1.0  0.04916  0.63056  0.34756  1.0000 -0.4374138899
O   O38       1.0  0.63056  0.04916  0.97272  1.0000 -0.4374138899
O   O39       1.0  0.97272  0.34756  0.63056  1.0000 -0.4374138899
O   O40       1.0  0.34756  0.97272  0.04916  1.0000 -0.4374138899
O   O41       1.0  0.34756  0.04916  0.63056  1.0000 -0.4374138899
O   O42       1.0  0.04916  0.34756  0.97272  1.0000 -0.4374138899
O   O43       1.0  0.97272  0.63056  0.04916  1.0000 -0.4374138899
O   O44       1.0  0.63056  0.97272  0.34756  1.0000 -0.4374138899
O   O45       1.0  0.63056  0.34756  0.04916  1.0000 -0.4374138899
O   O46       1.0  0.97272  0.04916  0.34756  1.0000 -0.4374138899
O   O47       1.0  0.34756  0.63056  0.97272  1.0000 -0.4374138899
O   O48       1.0  0.04916  0.97272  0.63056  1.0000 -0.4374138899
O   O49       1.0  0.34413  0.93543  0.66825  1.0000 -0.5413589056
O   O50       1.0  0.93543  0.34413  0.05219  1.0000 -0.5413589056
O   O51       1.0  0.66825  0.05219  0.34413  1.0000 -0.5413589056
O   O52       1.0  0.05219  0.66825  0.93543  1.0000 -0.5413589056
O   O53       1.0  0.34413  0.05219  0.93543  1.0000 -0.5413589056
O   O54       1.0  0.05219  0.34413  0.66825  1.0000 -0.5413589056
O   O55       1.0  0.93543  0.66825  0.34413  1.0000 -0.5413589056
O   O56       1.0  0.66825  0.93543  0.05219  1.0000 -0.5413589056
O   O57       1.0  0.93543  0.05219  0.66825  1.0000 -0.5413589056
O   O58       1.0  0.34413  0.66825  0.05219  1.0000 -0.5413589056
O   O59       1.0  0.05219  0.93543  0.34413  1.0000 -0.5413589056
O   O60       1.0  0.66825  0.34413  0.93543  1.0000 -0.5413589056
O   O61       1.0  0.16825  0.55219  0.43543  1.0000 -0.5413589056
O   O62       1.0  0.55219  0.16825  0.84413  1.0000 -0.5413589056
O   O63       1.0  0.84413  0.43543  0.55219  1.0000 -0.5413589056
O   O64       1.0  0.43543  0.84413  0.16825  1.0000 -0.5413589056
O   O65       1.0  0.43543  0.16825  0.55219  1.0000 -0.5413589056
O   O66       1.0  0.16825  0.43543  0.84413  1.0000 -0.5413589056
O   O67       1.0  0.84413  0.55219  0.16825  1.0000 -0.5413589056
O   O68       1.0  0.55219  0.84413  0.43543  1.0000 -0.5413589056
O   O69       1.0  0.55219  0.43543  0.16825  1.0000 -0.5413589056
O   O70       1.0  0.84413  0.16825  0.43543  1.0000 -0.5413589056
O   O71       1.0  0.43543  0.55219  0.84413  1.0000 -0.5413589056
O   O72       1.0  0.16825  0.84413  0.55219  1.0000 -0.5413589056
O   O73       1.0  0.38725  0.89851  0.68295  1.0000 -0.5661241411
O   O74       1.0  0.89851  0.38725  0.03129  1.0000 -0.5661241411
O   O75       1.0  0.68295  0.03129  0.38725  1.0000 -0.5649704238
O   O76       1.0  0.03129  0.68295  0.89851  1.0000 -0.5661241411
O   O77       1.0  0.38725  0.03129  0.89851  1.0000 -0.5661241411
O   O78       1.0  0.03129  0.38725  0.68295  1.0000 -0.5661241411
O   O79       1.0  0.89851  0.68295  0.38725  1.0000 -0.5661241411
O   O80       1.0  0.68295  0.89851  0.03129  1.0000 -0.5661241411
O   O81       1.0  0.89851  0.03129  0.68295  1.0000 -0.5661241411
O   O82       1.0  0.38725  0.68295  0.03129  1.0000 -0.5661241411
O   O83       1.0  0.03129  0.89851  0.38725  1.0000 -0.5661241411
O   O84       1.0  0.68295  0.38725  0.89851  1.0000 -0.5661241411
O   O85       1.0  0.18295  0.53129  0.39851  1.0000 -0.5661241411
O   O86       1.0  0.53129  0.18295  0.88725  1.0000 -0.5661241411
O   O87       1.0  0.88725  0.39851  0.53129  1.0000 -0.5661241411
O   O88       1.0  0.39851  0.88725  0.18295  1.0000 -0.5661241411
O   O89       1.0  0.39851  0.18295  0.53129  1.0000 -0.5649704238
O   O90       1.0  0.18295  0.39851  0.88725  1.0000 -0.5661241411
O   O91       1.0  0.88725  0.53129  0.18295  1.0000 -0.5661241411
O   O92       1.0  0.53129  0.88725  0.39851  1.0000 -0.5661241411
O   O93       1.0  0.53129  0.39851  0.18295  1.0000 -0.5661241411
O   O94       1.0  0.88725  0.18295  0.39851  1.0000 -0.5661241411
O   O95       1.0  0.39851  0.53129  0.88725  1.0000 -0.5661241411
O   O96       1.0  0.18295  0.88725  0.53129  1.0000 -0.5661241411
O   O97       1.0  0.23666  0.82572  0.56452  1.0000 -0.5786775935
O   O98       1.0  0.82572  0.23666  0.37310  1.0000 -0.5786775935
O   O99       1.0  0.56452  0.37310  0.23666  1.0000 -0.5786775935
O   O100      1.0  0.37310  0.56452  0.82572  1.0000 -0.5786775935
O   O101      1.0  0.23666  0.37310  0.82572  1.0000 -0.5786775935
O   O102      1.0  0.37310  0.23666  0.56452  1.0000 -0.5786775935
O   O103      1.0  0.82572  0.56452  0.23666  1.0000 -0.5786775935
O   O104      1.0  0.56452  0.82572  0.37310  1.0000 -0.5786775935
O   O105      1.0  0.82572  0.37310  0.56452  1.0000 -0.5786775935
O   O106      1.0  0.23666  0.56452  0.37310  1.0000 -0.5786775935
O   O107      1.0  0.37310  0.82572  0.23666  1.0000 -0.5786775935
O   O108      1.0  0.56452  0.23666  0.82572  1.0000 -0.5786775935
O   O109      1.0  0.06452  0.87310  0.32572  1.0000 -0.5786775935
O   O110      1.0  0.87310  0.06452  0.73666  1.0000 -0.5786775935
O   O111      1.0  0.73666  0.32572  0.87310  1.0000 -0.5786775935
O   O112      1.0  0.32572  0.73666  0.06452  1.0000 -0.5786775935
O   O113      1.0  0.32572  0.06452  0.87310  1.0000 -0.5786775935
O   O114      1.0  0.06452  0.32572  0.73666  1.0000 -0.5786775935
O   O115      1.0  0.73666  0.87310  0.06452  1.0000 -0.5786775935
O   O116      1.0  0.87310  0.73666  0.32572  1.0000 -0.5786775935
O   O117      1.0  0.87310  0.32572  0.06452  1.0000 -0.5786775935
O   O118      1.0  0.73666  0.06452  0.32572  1.0000 -0.5786775935
O   O119      1.0  0.32572  0.87310  0.73666  1.0000 -0.5786775935
O   O120      1.0  0.06452  0.73666  0.87310  1.0000 -0.5786775935
O   O121      1.0  0.25522  0.82698  0.51442  1.0000 -0.5413589056
O   O122      1.0  0.82698  0.25522  0.40338  1.0000 -0.5413589056
O   O123      1.0  0.51442  0.40338  0.25522  1.0000 -0.5413589056
O   O124      1.0  0.40338  0.51442  0.82698  1.0000 -0.5413589056
O   O125      1.0  0.25522  0.40338  0.82698  1.0000 -0.5413589056
O   O126      1.0  0.40338  0.25522  0.51442  1.0000 -0.5413589056
O   O127      1.0  0.82698  0.51442  0.25522  1.0000 -0.5413589056
O   O128      1.0  0.51442  0.82698  0.40338  1.0000 -0.5413589056
O   O129      1.0  0.82698  0.40338  0.51442  1.0000 -0.5413589056
O   O130      1.0  0.25522  0.51442  0.40338  1.0000 -0.5413589056
O   O131      1.0  0.40338  0.82698  0.25522  1.0000 -0.5413589056
O   O132      1.0  0.51442  0.25522  0.82698  1.0000 -0.5413589056
O   O133      1.0  0.01442  0.90338  0.32698  1.0000 -0.5413589056
O   O134      1.0  0.90338  0.01442  0.75522  1.0000 -0.5413589056
O   O135      1.0  0.75522  0.32698  0.90338  1.0000 -0.5413589056
O   O136      1.0  0.32698  0.75522  0.01442  1.0000 -0.5413589056
O   O137      1.0  0.32698  0.01442  0.90338  1.0000 -0.5413589056
O   O138      1.0  0.01442  0.32698  0.75522  1.0000 -0.5413589056
O   O139      1.0  0.75522  0.90338  0.01442  1.0000 -0.5413589056
O   O140      1.0  0.90338  0.75522  0.32698  1.0000 -0.5413589056
O   O141      1.0  0.90338  0.32698  0.01442  1.0000 -0.5413589056
O   O142      1.0  0.75522  0.01442  0.32698  1.0000 -0.5413589056
O   O143      1.0  0.32698  0.90338  0.75522  1.0000 -0.5413589056
O   O144      1.0  0.01442  0.75522  0.90338  1.0000 -0.5413589056
O   O145      1.0  0.78091  0.95515  0.42139  1.0000 -0.453377394
O   O146      1.0  0.95515  0.78091  0.84255  1.0000 -0.453377394
O   O147      1.0  0.84255  0.42139  0.95515  1.0000 -0.453377394
O   O148      1.0  0.42139  0.84255  0.78091  1.0000 -0.453377394
O   O149      1.0  0.42139  0.78091  0.95515  1.0000 -0.453377394
O   O150      1.0  0.78091  0.42139  0.84255  1.0000 -0.453377394
O   O151      1.0  0.84255  0.95515  0.78091  1.0000 -0.453377394
O   O152      1.0  0.95515  0.84255  0.42139  1.0000 -0.453377394
O   O153      1.0  0.95515  0.42139  0.78091  1.0000 -0.453377394
O   O154      1.0  0.84255  0.78091  0.42139  1.0000 -0.453377394
O   O155      1.0  0.42139  0.95515  0.84255  1.0000 -0.453377394
O   O156      1.0  0.78091  0.84255  0.95515  1.0000 -0.453377394
O   O157      1.0  0.34255  0.92139  0.28091  1.0000 -0.453377394
O   O158      1.0  0.92139  0.34255  0.45515  1.0000 -0.453377394
O   O159      1.0  0.28091  0.45515  0.34255  1.0000 -0.453377394
O   O160      1.0  0.45515  0.28091  0.92139  1.0000 -0.453377394
O   O161      1.0  0.34255  0.45515  0.92139  1.0000 -0.453377394
O   O162      1.0  0.45515  0.34255  0.28091  1.0000 -0.453377394
O   O163      1.0  0.92139  0.28091  0.34255  1.0000 -0.453377394
O   O164      1.0  0.28091  0.92139  0.45515  1.0000 -0.453377394
O   O165      1.0  0.92139  0.45515  0.28091  1.0000 -0.453377394
O   O166      1.0  0.34255  0.28091  0.45515  1.0000 -0.453377394
O   O167      1.0  0.45515  0.92139  0.34255  1.0000 -0.453377394
O   O168      1.0  0.28091  0.34255  0.92139  1.0000 -0.453377394
O   O169      1.0  0.70084  0.11944  0.40244  1.0000 -0.4374138899
O   O170      1.0  0.11944  0.70084  0.77728  1.0000 -0.4374138899
O   O171      1.0  0.77728  0.40244  0.11944  1.0000 -0.4374138899
O   O172      1.0  0.40244  0.77728  0.70084  1.0000 -0.4374138899
O   O173      1.0  0.40244  0.70084  0.11944  1.0000 -0.4374138899
O   O174      1.0  0.70084  0.40244  0.77728  1.0000 -0.4374138899
O   O175      1.0  0.77728  0.11944  0.70084  1.0000 -0.4374138899
O   O176      1.0  0.11944  0.77728  0.40244  1.0000 -0.4374138899
O   O177      1.0  0.11944  0.40244  0.70084  1.0000 -0.4374138899
O   O178      1.0  0.77728  0.70084  0.40244  1.0000 -0.4374138899
O   O179      1.0  0.40244  0.11944  0.77728  1.0000 -0.4374138899
O   O180      1.0  0.70084  0.77728  0.11944  1.0000 -0.4374138899
O   O181      1.0  0.27728  0.90244  0.20084  1.0000 -0.4374138899
O   O182      1.0  0.90244  0.27728  0.61944  1.0000 -0.4374138899
O   O183      1.0  0.20084  0.61944  0.27728  1.0000 -0.4374138899
O   O184      1.0  0.61944  0.20084  0.90244  1.0000 -0.4374138899
O   O185      1.0  0.27728  0.61944  0.90244  1.0000 -0.4374138899
O   O186      1.0  0.61944  0.27728  0.20084  1.0000 -0.4374138899
O   O187      1.0  0.90244  0.20084  0.27728  1.0000 -0.4374138899
O   O188      1.0  0.20084  0.90244  0.61944  1.0000 -0.4374138899
O   O189      1.0  0.90244  0.61944  0.20084  1.0000 -0.4374138899
O   O190      1.0  0.27728  0.20084  0.61944  1.0000 -0.4374138899
O   O191      1.0  0.61944  0.90244  0.27728  1.0000 -0.4374138899
O   O192      1.0  0.20084  0.27728  0.90244  1.0000 -0.4374138899
O   O193      1.0  0.58175  0.19781  0.31457  1.0000 -0.5413589056
O   O194      1.0  0.19781  0.58175  0.90587  1.0000 -0.5413589056
O   O195      1.0  0.90587  0.31457  0.19781  1.0000 -0.5413589056
O   O196      1.0  0.31457  0.90587  0.58175  1.0000 -0.5413589056
O   O197      1.0  0.31457  0.58175  0.19781  1.0000 -0.5413589056
O   O198      1.0  0.58175  0.31457  0.90587  1.0000 -0.5413589056
O   O199      1.0  0.90587  0.19781  0.58175  1.0000 -0.5413589056
O   O200      1.0  0.19781  0.90587  0.31457  1.0000 -0.5413589056
O   O201      1.0  0.19781  0.31457  0.58175  1.0000 -0.5413589056
O   O202      1.0  0.90587  0.58175  0.31457  1.0000 -0.5413589056
O   O203      1.0  0.31457  0.19781  0.90587  1.0000 -0.5413589056
O   O204      1.0  0.58175  0.90587  0.19781  1.0000 -0.5413589056
O   O205      1.0  0.40587  0.81457  0.08175  1.0000 -0.5413589056
O   O206      1.0  0.81457  0.40587  0.69781  1.0000 -0.5413589056
O   O207      1.0  0.08175  0.69781  0.40587  1.0000 -0.5413589056
O   O208      1.0  0.69781  0.08175  0.81457  1.0000 -0.5413589056
O   O209      1.0  0.40587  0.69781  0.81457  1.0000 -0.5413589056
O   O210      1.0  0.69781  0.40587  0.08175  1.0000 -0.5413589056
O   O211      1.0  0.81457  0.08175  0.40587  1.0000 -0.5413589056
O   O212      1.0  0.08175  0.81457  0.69781  1.0000 -0.5413589056
O   O213      1.0  0.81457  0.69781  0.08175  1.0000 -0.5413589056
O   O214      1.0  0.40587  0.08175  0.69781  1.0000 -0.5413589056
O   O215      1.0  0.69781  0.81457  0.40587  1.0000 -0.5413589056
O   O216      1.0  0.08175  0.40587  0.81457  1.0000 -0.5413589056
O   O217      1.0  0.56705  0.21871  0.35149  1.0000 -0.5661241411
O   O218      1.0  0.21871  0.56705  0.86275  1.0000 -0.5661241411
O   O219      1.0  0.86275  0.35149  0.21871  1.0000 -0.5649704238
O   O220      1.0  0.35149  0.86275  0.56705  1.0000 -0.5661241411
O   O221      1.0  0.35149  0.56705  0.21871  1.0000 -0.5661241411
O   O222      1.0  0.56705  0.35149  0.86275  1.0000 -0.5661241411
O   O223      1.0  0.86275  0.21871  0.56705  1.0000 -0.5661241411
O   O224      1.0  0.21871  0.86275  0.35149  1.0000 -0.5661241411
O   O225      1.0  0.21871  0.35149  0.56705  1.0000 -0.5649704238
O   O226      1.0  0.86275  0.56705  0.35149  1.0000 -0.5661241411
O   O227      1.0  0.35149  0.21871  0.86275  1.0000 -0.5661241411
O   O228      1.0  0.56705  0.86275  0.21871  1.0000 -0.5661241411
O   O229      1.0  0.36275  0.85149  0.06705  1.0000 -0.5661241411
O   O230      1.0  0.85149  0.36275  0.71871  1.0000 -0.5661241411
O   O231      1.0  0.06705  0.71871  0.36275  1.0000 -0.5661241411
O   O232      1.0  0.71871  0.06705  0.85149  1.0000 -0.5661241411
O   O233      1.0  0.36275  0.71871  0.85149  1.0000 -0.5661241411
O   O234      1.0  0.71871  0.36275  0.06705  1.0000 -0.5661241411
O   O235      1.0  0.85149  0.06705  0.36275  1.0000 -0.5649704238
O   O236      1.0  0.06705  0.85149  0.71871  1.0000 -0.5661241411
O   O237      1.0  0.85149  0.71871  0.06705  1.0000 -0.5661241411
O   O238      1.0  0.36275  0.06705  0.71871  1.0000 -0.5661241411
O   O239      1.0  0.71871  0.85149  0.36275  1.0000 -0.5661241411
O   O240      1.0  0.06705  0.36275  0.85149  1.0000 -0.5661241411
O   O241      1.0  0.68548  0.87690  0.42428  1.0000 -0.5786775935
O   O242      1.0  0.87690  0.68548  0.01334  1.0000 -0.5786775935
O   O243      1.0  0.01334  0.42428  0.87690  1.0000 -0.5786775935
O   O244      1.0  0.42428  0.01334  0.68548  1.0000 -0.5786775935
O   O245      1.0  0.42428  0.68548  0.87690  1.0000 -0.5786775935
O   O246      1.0  0.68548  0.42428  0.01334  1.0000 -0.5786775935
O   O247      1.0  0.01334  0.87690  0.68548  1.0000 -0.5786775935
O   O248      1.0  0.87690  0.01334  0.42428  1.0000 -0.5786775935
O   O249      1.0  0.87690  0.42428  0.68548  1.0000 -0.5786775935
O   O250      1.0  0.01334  0.68548  0.42428  1.0000 -0.5786775935
O   O251      1.0  0.42428  0.87690  0.01334  1.0000 -0.5786775935
O   O252      1.0  0.68548  0.01334  0.87690  1.0000 -0.5786775935
O   O253      1.0  0.51334  0.92428  0.18548  1.0000 -0.5786775935
O   O254      1.0  0.92428  0.51334  0.37690  1.0000 -0.5786775935
O   O255      1.0  0.18548  0.37690  0.51334  1.0000 -0.5786775935
O   O256      1.0  0.37690  0.18548  0.92428  1.0000 -0.5786775935
O   O257      1.0  0.51334  0.37690  0.92428  1.0000 -0.5786775935
O   O258      1.0  0.37690  0.51334  0.18548  1.0000 -0.5786775935
O   O259      1.0  0.92428  0.18548  0.51334  1.0000 -0.5786775935
O   O260      1.0  0.18548  0.92428  0.37690  1.0000 -0.5786775935
O   O261      1.0  0.92428  0.37690  0.18548  1.0000 -0.5786775935
O   O262      1.0  0.51334  0.18548  0.37690  1.0000 -0.5786775935
O   O263      1.0  0.37690  0.92428  0.51334  1.0000 -0.5786775935
O   O264      1.0  0.18548  0.51334  0.92428  1.0000 -0.5786775935
O   O265      1.0  0.73558  0.84662  0.42302  1.0000 -0.5413589056
O   O266      1.0  0.84662  0.73558  0.99478  1.0000 -0.5413589056
O   O267      1.0  0.99478  0.42302  0.84662  1.0000 -0.5413589056
O   O268      1.0  0.42302  0.99478  0.73558  1.0000 -0.5413589056
O   O269      1.0  0.42302  0.73558  0.84662  1.0000 -0.5413589056
O   O270      1.0  0.73558  0.42302  0.99478  1.0000 -0.5413589056
O   O271      1.0  0.99478  0.84662  0.73558  1.0000 -0.5413589056
O   O272      1.0  0.84662  0.99478  0.42302  1.0000 -0.5413589056
O   O273      1.0  0.84662  0.42302  0.73558  1.0000 -0.5413589056
O   O274      1.0  0.99478  0.73558  0.42302  1.0000 -0.5413589056
O   O275      1.0  0.42302  0.84662  0.99478  1.0000 -0.5413589056
O   O276      1.0  0.73558  0.99478  0.84662  1.0000 -0.5413589056
O   O277      1.0  0.49478  0.92302  0.23558  1.0000 -0.5413589056
O   O278      1.0  0.92302  0.49478  0.34662  1.0000 -0.5413589056
O   O279      1.0  0.23558  0.34662  0.49478  1.0000 -0.5413589056
O   O280      1.0  0.34662  0.23558  0.92302  1.0000 -0.5413589056
O   O281      1.0  0.49478  0.34662  0.92302  1.0000 -0.5413589056
O   O282      1.0  0.34662  0.49478  0.23558  1.0000 -0.5413589056
O   O283      1.0  0.92302  0.23558  0.49478  1.0000 -0.5413589056
O   O284      1.0  0.23558  0.92302  0.34662  1.0000 -0.5413589056
O   O285      1.0  0.92302  0.34662  0.23558  1.0000 -0.5413589056
O   O286      1.0  0.49478  0.23558  0.34662  1.0000 -0.5413589056
O   O287      1.0  0.34662  0.92302  0.49478  1.0000 -0.5413589056
O   O288      1.0  0.23558  0.49478  0.92302  1.0000 -0.5413589056
