# DDEC6 charges by PACMAN v1.1 (https://github.com/mtap-research/PACMAN-charge/)
data_2013[Ni][nan]3[ASR]5
_chemical_formula_sum              "Ni3 H42 C78 N18 O12 F6"
_cell_length_a       15.688
_cell_length_b       15.688
_cell_length_c       18.678
_cell_angle_alpha    90
_cell_angle_beta     90
_cell_angle_gamma    120

_symmetry_space_group_name_H-M    "P 1"
_symmetry_Int_Tables_number       1

loop_
  _symmetry_equiv_pos_as_xyz
  'x, y, z'

loop_
  _atom_site_type_symbol
  _atom_site_label
  _atom_site_symmetry_multiplicity
  _atom_site_fract_x
  _atom_site_fract_y
  _atom_site_fract_z
  _atom_site_occupancy
  _atom_site_charge
Ni  Ni1       1.0  0.00000  0.82365  0.83333  1.0000 0.64614068
Ni  Ni2       1.0  0.17635  0.17635  0.50000  1.0000 0.64614068
Ni  Ni3       1.0  0.82365  0.00000  0.16667  1.0000 0.64614068
H   H1        1.0  0.80500  0.65640  0.78030  1.0000 0.1048504365
H   H2        1.0  0.34360  0.14860  0.44697  1.0000 0.1048504365
H   H3        1.0  0.85140  0.19500  0.11363  1.0000 0.105198468
H   H4        1.0  0.65640  0.80500  0.21970  1.0000 0.105198468
H   H5        1.0  0.19500  0.85140  0.88637  1.0000 0.1048504365
H   H6        1.0  0.14860  0.34360  0.55303  1.0000 0.105198468
H   H7        1.0  0.70090  0.60450  0.68200  1.0000 0.1355370087
H   H8        1.0  0.39550  0.09640  0.34867  1.0000 0.1328048659
H   H9        1.0  0.90360  0.29910  0.01533  1.0000 0.1355370087
H   H10       1.0  0.60450  0.70090  0.31800  1.0000 0.1328048659
H   H11       1.0  0.29910  0.90360  0.98467  1.0000 0.1328048659
H   H12       1.0  0.09640  0.39550  0.65133  1.0000 0.1328048659
H   H13       1.0  0.89740  0.85040  0.58190  1.0000 0.1474854899
H   H14       1.0  0.14960  0.04700  0.24857  1.0000 0.1474854899
H   H15       1.0  0.95300  0.10260  0.91523  1.0000 0.1474854899
H   H16       1.0  0.85040  0.89740  0.41810  1.0000 0.1474854899
H   H17       1.0  0.10260  0.95300  0.08477  1.0000 0.1474854899
H   H18       1.0  0.04700  0.14960  0.75143  1.0000 0.1474854899
H   H19       1.0  0.99590  0.89330  0.68180  1.0000 0.1171503107
H   H20       1.0  0.10670  0.10260  0.34847  1.0000 0.1171503107
H   H21       1.0  0.89740  0.00410  0.01513  1.0000 0.1171503107
H   H22       1.0  0.89330  0.99590  0.31820  1.0000 0.1171503107
H   H23       1.0  0.00410  0.89740  0.98487  1.0000 0.1171503107
H   H24       1.0  0.10260  0.10670  0.65153  1.0000 0.1171503107
H   H25       1.0  0.35560  0.29450  0.59260  1.0000 0.1171503107
H   H26       1.0  0.70550  0.06110  0.25927  1.0000 0.1171503107
H   H27       1.0  0.93890  0.64440  0.92593  1.0000 0.1171503107
H   H28       1.0  0.29450  0.35560  0.40740  1.0000 0.1171503107
H   H29       1.0  0.64440  0.93890  0.07407  1.0000 0.1171503107
H   H30       1.0  0.06110  0.70550  0.74073  1.0000 0.1171503107
H   H31       1.0  0.50480  0.43790  0.59650  1.0000 0.1355370087
H   H32       1.0  0.56210  0.06690  0.26317  1.0000 0.1355370087
H   H33       1.0  0.93310  0.49520  0.92983  1.0000 0.1355370087
H   H34       1.0  0.43790  0.50480  0.40350  1.0000 0.1355370087
H   H35       1.0  0.49520  0.93310  0.07017  1.0000 0.1355370087
H   H36       1.0  0.06690  0.56210  0.73683  1.0000 0.1328048659
H   H37       1.0  0.68180  0.61550  0.88210  1.0000 0.1328048659
H   H38       1.0  0.38450  0.06630  0.54877  1.0000 0.1328048659
H   H39       1.0  0.93370  0.31820  0.21543  1.0000 0.1328048659
H   H40       1.0  0.61550  0.68180  0.11790  1.0000 0.1328048659
H   H41       1.0  0.31820  0.93370  0.78457  1.0000 0.1328048659
H   H42       1.0  0.06630  0.38450  0.45123  1.0000 0.1328048659
C   C1        1.0  0.82380  0.69580  0.73960  1.0000 0.0824239654
C   C2        1.0  0.30420  0.12800  0.40627  1.0000 0.0824239654
C   C3        1.0  0.87200  0.17620  0.07293  1.0000 0.0824239654
C   C4        1.0  0.69580  0.82380  0.26040  1.0000 0.0824239654
C   C5        1.0  0.17620  0.87200  0.92707  1.0000 0.0824239654
C   C6        1.0  0.12800  0.30420  0.59373  1.0000 0.0824239654
C   C7        1.0  0.76020  0.66370  0.68078  1.0000 -0.1621679115
C   C8        1.0  0.33630  0.09650  0.34745  1.0000 -0.1621679115
C   C9        1.0  0.90350  0.23980  0.01411  1.0000 -0.1621679115
C   C10       1.0  0.66370  0.76020  0.31922  1.0000 -0.1621679115
C   C11       1.0  0.23980  0.90350  0.98589  1.0000 -0.1621679115
C   C12       1.0  0.09650  0.33630  0.65255  1.0000 -0.1621679115
C   C13       1.0  0.78820  0.72280  0.62104  1.0000 0.0590086184
C   C14       1.0  0.27720  0.06540  0.28771  1.0000 0.0590086184
C   C15       1.0  0.93460  0.21180  0.95437  1.0000 0.0590086184
C   C16       1.0  0.72280  0.78820  0.37896  1.0000 0.0590086184
C   C17       1.0  0.21180  0.93460  0.04563  1.0000 0.0590086184
C   C18       1.0  0.06540  0.27720  0.71229  1.0000 0.0590086184
C   C19       1.0  0.87710  0.80940  0.62180  1.0000 -0.1360889522
C   C20       1.0  0.19060  0.06770  0.28847  1.0000 -0.1360889522
C   C21       1.0  0.93230  0.12290  0.95513  1.0000 -0.1360889522
C   C22       1.0  0.80940  0.87710  0.37820  1.0000 -0.1360889522
C   C23       1.0  0.12290  0.93230  0.04487  1.0000 -0.1360889522
C   C24       1.0  0.06770  0.19060  0.71153  1.0000 -0.1360889522
C   C25       1.0  0.93570  0.83500  0.68204  1.0000 0.0908738551
C   C26       1.0  0.16500  0.10070  0.34871  1.0000 0.0908738551
C   C27       1.0  0.89930  0.06430  0.01537  1.0000 0.0908738551
C   C28       1.0  0.83500  0.93570  0.31796  1.0000 0.0908738551
C   C29       1.0  0.06430  0.89930  0.98463  1.0000 0.0908738551
C   C30       1.0  0.10070  0.16500  0.65129  1.0000 0.0908738551
C   C31       1.0  0.72370  0.69100  0.55625  1.0000 0.3893516265
C   C32       1.0  0.30900  0.03270  0.22292  1.0000 0.3893516265
C   C33       1.0  0.96730  0.27630  0.88958  1.0000 0.3893516265
C   C34       1.0  0.69100  0.72370  0.44375  1.0000 0.3893516265
C   C35       1.0  0.27630  0.96730  0.11042  1.0000 0.3893516265
C   C36       1.0  0.03270  0.30900  0.77708  1.0000 0.3893516265
C   C37       1.0  0.58390  0.58390  0.50000  1.0000 0.3713441047
C   C38       1.0  0.41610  0.00000  0.16667  1.0000 0.3713441047
C   C39       1.0  0.00000  0.41610  0.83333  1.0000 0.3713441047
C   C40       1.0  0.37310  0.33720  0.55380  1.0000 0.0824239654
C   C41       1.0  0.66280  0.03590  0.22047  1.0000 0.0824239654
C   C42       1.0  0.96410  0.62690  0.88713  1.0000 0.0824239654
C   C43       1.0  0.33720  0.37310  0.44620  1.0000 0.0824239654
C   C44       1.0  0.62690  0.96410  0.11287  1.0000 0.0824239654
C   C45       1.0  0.03590  0.66280  0.77953  1.0000 0.0824239654
C   C46       1.0  0.46330  0.42400  0.55730  1.0000 -0.1689079848
C   C47       1.0  0.57600  0.03930  0.22397  1.0000 -0.1689079848
C   C48       1.0  0.96070  0.53670  0.89063  1.0000 -0.1689079848
C   C49       1.0  0.42400  0.46330  0.44270  1.0000 -0.1689079848
C   C50       1.0  0.53670  0.96070  0.10937  1.0000 -0.1689079848
C   C51       1.0  0.03930  0.57600  0.77603  1.0000 -0.1689079848
C   C52       1.0  0.48970  0.48970  0.50000  1.0000 0.0676913214
C   C53       1.0  0.51030  0.00000  0.16667  1.0000 0.0676913214
C   C54       1.0  0.00000  0.51030  0.83333  1.0000 0.0676913214
C   C55       1.0  0.82460  0.78880  0.92300  1.0000 0.5524252904
C   C56       1.0  0.21120  0.03580  0.58967  1.0000 0.5524252904
C   C57       1.0  0.96420  0.17540  0.25633  1.0000 0.5524252904
C   C58       1.0  0.78880  0.82460  0.07700  1.0000 0.5524252904
C   C59       1.0  0.17540  0.96420  0.74367  1.0000 0.5524252904
C   C60       1.0  0.03580  0.21120  0.41033  1.0000 0.5524252904
C   C61       1.0  0.73590  0.71420  0.96530  1.0000 -0.0089521472
C   C62       1.0  0.28580  0.02170  0.63197  1.0000 -0.0089521472
C   C63       1.0  0.97830  0.26410  0.29863  1.0000 -0.0089521472
C   C64       1.0  0.71420  0.73590  0.03470  1.0000 -0.0089521472
C   C65       1.0  0.26410  0.97830  0.70137  1.0000 -0.0089521472
C   C66       1.0  0.02170  0.28580  0.36803  1.0000 -0.0089521472
C   C67       1.0  0.66820  0.62850  0.92800  1.0000 -0.2469684305
C   C68       1.0  0.37150  0.03970  0.59467  1.0000 -0.2469684305
C   C69       1.0  0.96030  0.33180  0.26133  1.0000 -0.2469684305
C   C70       1.0  0.62850  0.66820  0.07200  1.0000 -0.2469684305
C   C71       1.0  0.33180  0.96030  0.73867  1.0000 -0.2469684305
C   C72       1.0  0.03970  0.37150  0.40533  1.0000 -0.2469684305
C   C73       1.0  0.58030  0.56410  0.96250  1.0000 0.2086643032
C   C74       1.0  0.43590  0.01620  0.62917  1.0000 0.2086643032
C   C75       1.0  0.98380  0.41970  0.29583  1.0000 0.2086643032
C   C76       1.0  0.56410  0.58030  0.03750  1.0000 0.2086643032
C   C77       1.0  0.41970  0.98380  0.70417  1.0000 0.2086643032
C   C78       1.0  0.01620  0.43590  0.37083  1.0000 0.2086643032
N   N1        1.0  0.90900  0.77880  0.74059  1.0000 -0.200849133
N   N2        1.0  0.22120  0.13020  0.40726  1.0000 -0.200849133
N   N3        1.0  0.86980  0.09100  0.07392  1.0000 -0.200849133
N   N4        1.0  0.77880  0.90900  0.25941  1.0000 -0.200849133
N   N5        1.0  0.09100  0.86980  0.92608  1.0000 -0.200849133
N   N6        1.0  0.13020  0.22120  0.59274  1.0000 -0.200849133
N   N7        1.0  0.63880  0.60540  0.55917  1.0000 -0.4214805776
N   N8        1.0  0.39460  0.03340  0.22584  1.0000 -0.4214805776
N   N9        1.0  0.96660  0.36120  0.89250  1.0000 -0.4214805776
N   N10       1.0  0.60540  0.63880  0.44083  1.0000 -0.4214805776
N   N11       1.0  0.36120  0.96660  0.10750  1.0000 -0.4214805776
N   N12       1.0  0.03340  0.39460  0.77416  1.0000 -0.4214805776
N   N13       1.0  0.75370  0.75370  0.50000  1.0000 -0.4214805776
N   N14       1.0  0.24630  0.00000  0.16667  1.0000 -0.4214805776
N   N15       1.0  0.00000  0.24630  0.83333  1.0000 -0.4214805776
N   N16       1.0  0.31020  0.31020  0.50000  1.0000 -0.2066788273
N   N17       1.0  0.68980  0.00000  0.16667  1.0000 -0.2066788273
N   N18       1.0  0.00000  0.68980  0.83333  1.0000 -0.2066788273
O   O1        1.0  0.87462  0.75544  0.89647  1.0000 -0.5461864519
O   O2        1.0  0.24456  0.11918  0.56314  1.0000 -0.5461864519
O   O3        1.0  0.88082  0.12538  0.22980  1.0000 -0.5461864519
O   O4        1.0  0.75544  0.87462  0.10353  1.0000 -0.5461864519
O   O5        1.0  0.12538  0.88082  0.77020  1.0000 -0.5461864519
O   O6        1.0  0.11918  0.24456  0.43686  1.0000 -0.5461864519
O   O7        1.0  0.84120  0.87400  0.91830  1.0000 -0.5405000694
O   O8        1.0  0.12600  0.96720  0.58497  1.0000 -0.5405000694
O   O9        1.0  0.03280  0.15880  0.25163  1.0000 -0.5405000694
O   O10       1.0  0.87400  0.84120  0.08170  1.0000 -0.5405000694
O   O11       1.0  0.15880  0.03280  0.74837  1.0000 -0.5405000694
O   O12       1.0  0.96720  0.12600  0.41503  1.0000 -0.5405000694
F   F1        1.0  0.51670  0.47750  0.93450  1.0000 -0.1499909781
F   F2        1.0  0.52250  0.03920  0.60117  1.0000 -0.1499909781
F   F3        1.0  0.96080  0.48330  0.26783  1.0000 -0.1499909781
F   F4        1.0  0.47750  0.51670  0.06550  1.0000 -0.1499909781
F   F5        1.0  0.48330  0.96080  0.73217  1.0000 -0.1499909781
F   F6        1.0  0.03920  0.52250  0.39883  1.0000 -0.1499909781
