# DDEC6 charges by PACMAN v1.1 (https://github.com/mtap-research/PACMAN-charge/)
data_2013[Cu][ubt]3[ASR]2
_chemical_formula_sum              "Cu24 H144 C252 N12 O120"
_cell_length_a       32.6492
_cell_length_b       32.6492
_cell_length_c       32.6492
_cell_angle_alpha    60
_cell_angle_beta     60
_cell_angle_gamma    60

_symmetry_space_group_name_H-M    "P 1"
_symmetry_Int_Tables_number       1

loop_
  _symmetry_equiv_pos_as_xyz
  'x, y, z'

loop_
  _atom_site_type_symbol
  _atom_site_label
  _atom_site_symmetry_multiplicity
  _atom_site_fract_x
  _atom_site_fract_y
  _atom_site_fract_z
  _atom_site_occupancy
  _atom_site_charge
Cu  Cu1       1.0  0.00000  0.00000  0.24476  1.0000 0.8508942115
Cu  Cu2       1.0  0.00000  0.00000  0.75524  1.0000 0.8508942115
Cu  Cu3       1.0  0.75524  0.24476  0.00000  1.0000 0.8508942115
Cu  Cu4       1.0  0.24476  0.75524  0.00000  1.0000 0.8508942115
Cu  Cu5       1.0  0.24476  0.00000  0.00000  1.0000 0.8508942115
Cu  Cu6       1.0  0.00000  0.24476  0.00000  1.0000 0.8508942115
Cu  Cu7       1.0  0.00000  0.24476  0.75524  1.0000 0.8508942115
Cu  Cu8       1.0  0.00000  0.75524  0.00000  1.0000 0.8508942115
Cu  Cu9       1.0  0.75524  0.00000  0.00000  1.0000 0.8508942115
Cu  Cu10      1.0  0.24476  0.00000  0.75524  1.0000 0.8508942115
Cu  Cu11      1.0  0.00000  0.75524  0.24476  1.0000 0.8508942115
Cu  Cu12      1.0  0.75524  0.00000  0.24476  1.0000 0.8508942115
Cu  Cu13      1.0  0.00000  0.00000  0.32610  1.0000 0.7454561083
Cu  Cu14      1.0  0.00000  0.00000  0.67390  1.0000 0.7454561083
Cu  Cu15      1.0  0.67390  0.32610  0.00000  1.0000 0.7454561083
Cu  Cu16      1.0  0.32610  0.67390  0.00000  1.0000 0.7454561083
Cu  Cu17      1.0  0.32610  0.00000  0.00000  1.0000 0.7454561083
Cu  Cu18      1.0  0.00000  0.32610  0.00000  1.0000 0.7454561083
Cu  Cu19      1.0  0.00000  0.32610  0.67390  1.0000 0.7454561083
Cu  Cu20      1.0  1.00000  0.67390  0.00000  1.0000 0.7454561083
Cu  Cu21      1.0  0.67390  0.00000  0.00000  1.0000 0.7454561083
Cu  Cu22      1.0  0.32610  0.00000  0.67390  1.0000 0.7454561083
Cu  Cu23      1.0  1.00000  0.67390  0.32610  1.0000 0.7454561083
Cu  Cu24      1.0  0.67390  0.00000  0.32610  1.0000 0.7454561083
H   H1        1.0  0.94370  0.05630  0.39910  1.0000 0.1138059575
H   H2        1.0  0.05630  0.94370  0.60090  1.0000 0.1138059575
H   H3        1.0  0.60090  0.39910  0.05630  1.0000 0.1138059575
H   H4        1.0  0.39910  0.60090  0.94370  1.0000 0.1138059575
H   H5        1.0  0.39910  0.94370  0.05630  1.0000 0.1138059575
H   H6        1.0  0.05630  0.39910  0.94370  1.0000 0.1138059575
H   H7        1.0  0.94370  0.39910  0.60090  1.0000 0.1138059575
H   H8        1.0  0.94370  0.60090  0.05630  1.0000 0.1138059575
H   H9        1.0  0.60090  0.05630  0.94370  1.0000 0.1138059575
H   H10       1.0  0.39910  0.05630  0.60090  1.0000 0.1138059575
H   H11       1.0  0.05630  0.60090  0.39910  1.0000 0.1138059575
H   H12       1.0  0.60090  0.94370  0.39910  1.0000 0.1138059575
H   H13       1.0  0.94370  0.05630  0.60090  1.0000 0.1138059575
H   H14       1.0  0.05630  0.94370  0.39910  1.0000 0.1138059575
H   H15       1.0  0.60090  0.39910  0.94370  1.0000 0.1138059575
H   H16       1.0  0.39910  0.60090  0.05630  1.0000 0.1138059575
H   H17       1.0  0.05630  0.60090  0.94370  1.0000 0.1138059575
H   H18       1.0  0.60090  0.94370  0.05630  1.0000 0.1138059575
H   H19       1.0  0.60090  0.05630  0.39910  1.0000 0.1138059575
H   H20       1.0  0.39910  0.05630  0.94370  1.0000 0.1138059575
H   H21       1.0  0.94370  0.39910  0.05630  1.0000 0.1138059575
H   H22       1.0  0.94370  0.60090  0.39910  1.0000 0.1138059575
H   H23       1.0  0.39910  0.94370  0.60090  1.0000 0.1138059575
H   H24       1.0  0.05630  0.39910  0.60090  1.0000 0.1138059575
H   H25       1.0  0.94170  0.05830  0.47250  1.0000 0.1283296142
H   H26       1.0  0.05830  0.94170  0.52750  1.0000 0.1283296142
H   H27       1.0  0.52750  0.47250  0.05830  1.0000 0.1283296142
H   H28       1.0  0.47250  0.52750  0.94170  1.0000 0.1283296142
H   H29       1.0  0.47250  0.94170  0.05830  1.0000 0.1283296142
H   H30       1.0  0.05830  0.47250  0.94170  1.0000 0.1283296142
H   H31       1.0  0.94170  0.47250  0.52750  1.0000 0.1283296142
H   H32       1.0  0.94170  0.52750  0.05830  1.0000 0.1283296142
H   H33       1.0  0.52750  0.05830  0.94170  1.0000 0.1283296142
H   H34       1.0  0.47250  0.05830  0.52750  1.0000 0.1283296142
H   H35       1.0  0.05830  0.52750  0.47250  1.0000 0.1283296142
H   H36       1.0  0.52750  0.94170  0.47250  1.0000 0.1283296142
H   H37       1.0  0.94170  0.05830  0.52750  1.0000 0.1283296142
H   H38       1.0  0.05830  0.94170  0.47250  1.0000 0.1283296142
H   H39       1.0  0.52750  0.47250  0.94170  1.0000 0.1283296142
H   H40       1.0  0.47250  0.52750  0.05830  1.0000 0.1283296142
H   H41       1.0  0.05830  0.52750  0.94170  1.0000 0.1283296142
H   H42       1.0  0.52750  0.94170  0.05830  1.0000 0.1283296142
H   H43       1.0  0.52750  0.05830  0.47250  1.0000 0.1283296142
H   H44       1.0  0.47250  0.05830  0.94170  1.0000 0.1283296142
H   H45       1.0  0.94170  0.47250  0.05830  1.0000 0.1283296142
H   H46       1.0  0.94170  0.52750  0.47250  1.0000 0.1283296142
H   H47       1.0  0.47250  0.94170  0.52750  1.0000 0.1283296142
H   H48       1.0  0.05830  0.47250  0.52750  1.0000 0.1283296142
H   H49       1.0  0.15340  0.98700  0.15340  1.0000 0.1385488823
H   H50       1.0  0.98700  0.15340  0.70620  1.0000 0.1385488823
H   H51       1.0  0.70620  0.15340  0.98700  1.0000 0.1385488823
H   H52       1.0  0.15340  0.70620  0.15340  1.0000 0.1385488823
H   H53       1.0  0.15340  0.15340  0.98700  1.0000 0.1385488823
H   H54       1.0  0.98700  0.15340  0.15340  1.0000 0.1385488823
H   H55       1.0  0.15340  0.15340  0.70620  1.0000 0.1385488823
H   H56       1.0  0.15340  0.70620  0.98700  1.0000 0.1385488823
H   H57       1.0  0.70620  0.98700  0.15340  1.0000 0.1385488823
H   H58       1.0  0.15340  0.98700  0.70620  1.0000 0.1385488823
H   H59       1.0  0.98700  0.70620  0.15340  1.0000 0.1385488823
H   H60       1.0  0.70620  0.15340  0.15340  1.0000 0.1385488823
H   H61       1.0  0.01300  0.84660  0.84660  1.0000 0.1385488823
H   H62       1.0  0.84660  0.01300  0.29380  1.0000 0.1385488823
H   H63       1.0  0.84660  0.29380  0.01300  1.0000 0.1385488823
H   H64       1.0  0.29380  0.84660  0.84660  1.0000 0.1385488823
H   H65       1.0  0.84660  0.84660  0.01300  1.0000 0.1385488823
H   H66       1.0  0.84660  0.01300  0.84660  1.0000 0.1385488823
H   H67       1.0  0.84660  0.84660  0.29380  1.0000 0.1385488823
H   H68       1.0  0.29380  0.84660  0.01300  1.0000 0.1385488823
H   H69       1.0  0.01300  0.29380  0.84660  1.0000 0.1385488823
H   H70       1.0  0.01300  0.84660  0.29380  1.0000 0.1385488823
H   H71       1.0  0.29380  0.01300  0.84660  1.0000 0.1385488823
H   H72       1.0  0.84660  0.29380  0.84660  1.0000 0.1385488823
H   H73       1.0  0.16060  0.96640  0.28200  1.0000 0.1385488823
H   H74       1.0  0.96640  0.16060  0.59100  1.0000 0.1385488823
H   H75       1.0  0.59100  0.28200  0.96640  1.0000 0.1385488823
H   H76       1.0  0.28200  0.59100  0.16060  1.0000 0.1385488823
H   H77       1.0  0.28200  0.16060  0.96640  1.0000 0.1385488823
H   H78       1.0  0.96640  0.28200  0.16060  1.0000 0.1385488823
H   H79       1.0  0.16060  0.28200  0.59100  1.0000 0.1385488823
H   H80       1.0  0.16060  0.59100  0.96640  1.0000 0.1385488823
H   H81       1.0  0.59100  0.96640  0.16060  1.0000 0.1385488823
H   H82       1.0  0.28200  0.96640  0.59100  1.0000 0.1385488823
H   H83       1.0  0.96640  0.59100  0.28200  1.0000 0.1385488823
H   H84       1.0  0.59100  0.16060  0.28200  1.0000 0.1385488823
H   H85       1.0  0.03360  0.83940  0.71800  1.0000 0.1385488823
H   H86       1.0  0.83940  0.03360  0.40900  1.0000 0.1385488823
H   H87       1.0  0.71800  0.40900  0.03360  1.0000 0.1385488823
H   H88       1.0  0.40900  0.71800  0.83940  1.0000 0.1385488823
H   H89       1.0  0.83940  0.71800  0.03360  1.0000 0.1385488823
H   H90       1.0  0.71800  0.03360  0.83940  1.0000 0.1385488823
H   H91       1.0  0.71800  0.83940  0.40900  1.0000 0.1385488823
H   H92       1.0  0.40900  0.83940  0.03360  1.0000 0.1385488823
H   H93       1.0  0.03360  0.40900  0.83940  1.0000 0.1385488823
H   H94       1.0  0.03360  0.71800  0.40900  1.0000 0.1385488823
H   H95       1.0  0.40900  0.03360  0.71800  1.0000 0.1385488823
H   H96       1.0  0.83940  0.40900  0.71800  1.0000 0.1385488823
H   H97       1.0  0.83940  0.03360  0.71800  1.0000 0.1385488823
H   H98       1.0  0.03360  0.83940  0.40900  1.0000 0.1385488823
H   H99       1.0  0.40900  0.71800  0.03360  1.0000 0.1385488823
H   H100      1.0  0.71800  0.40900  0.83940  1.0000 0.1385488823
H   H101      1.0  0.71800  0.83940  0.03360  1.0000 0.1385488823
H   H102      1.0  0.03360  0.71800  0.83940  1.0000 0.1385488823
H   H103      1.0  0.83940  0.71800  0.40900  1.0000 0.1385488823
H   H104      1.0  0.83940  0.40900  0.03360  1.0000 0.1385488823
H   H105      1.0  0.40900  0.03360  0.83940  1.0000 0.1385488823
H   H106      1.0  0.71800  0.03360  0.40900  1.0000 0.1385488823
H   H107      1.0  0.03360  0.40900  0.71800  1.0000 0.1385488823
H   H108      1.0  0.40900  0.83940  0.71800  1.0000 0.1385488823
H   H109      1.0  0.96640  0.16060  0.28200  1.0000 0.1385488823
H   H110      1.0  0.16060  0.96640  0.59100  1.0000 0.1385488823
H   H111      1.0  0.28200  0.59100  0.96640  1.0000 0.1385488823
H   H112      1.0  0.59100  0.28200  0.16060  1.0000 0.1385488823
H   H113      1.0  0.16060  0.28200  0.96640  1.0000 0.1385488823
H   H114      1.0  0.28200  0.96640  0.16060  1.0000 0.1385488823
H   H115      1.0  0.28200  0.16060  0.59100  1.0000 0.1385488823
H   H116      1.0  0.59100  0.16060  0.96640  1.0000 0.1385488823
H   H117      1.0  0.96640  0.59100  0.16060  1.0000 0.1385488823
H   H118      1.0  0.96640  0.28200  0.59100  1.0000 0.1385488823
H   H119      1.0  0.59100  0.96640  0.28200  1.0000 0.1385488823
H   H120      1.0  0.16060  0.59100  0.28200  1.0000 0.1385488823
H   H121      1.0  0.26370  0.93550  0.26250  1.0000 0.3570977077
H   H122      1.0  0.93550  0.26370  0.53830  1.0000 0.3570977077
H   H123      1.0  0.53830  0.26250  0.93550  1.0000 0.3570977077
H   H124      1.0  0.26250  0.53830  0.26370  1.0000 0.3570977077
H   H125      1.0  0.26250  0.26370  0.93550  1.0000 0.3570977077
H   H126      1.0  0.93550  0.26250  0.26370  1.0000 0.3570977077
H   H127      1.0  0.26370  0.26250  0.53830  1.0000 0.3570977077
H   H128      1.0  0.26370  0.53830  0.93550  1.0000 0.3570977077
H   H129      1.0  0.53830  0.93550  0.26370  1.0000 0.3570977077
H   H130      1.0  0.26250  0.93550  0.53830  1.0000 0.3570977077
H   H131      1.0  0.93550  0.53830  0.26250  1.0000 0.3570977077
H   H132      1.0  0.53830  0.26370  0.26250  1.0000 0.3570977077
H   H133      1.0  0.06450  0.73630  0.73750  1.0000 0.3570977077
H   H134      1.0  0.73630  0.06450  0.46170  1.0000 0.3570977077
H   H135      1.0  0.73750  0.46170  0.06450  1.0000 0.3570977077
H   H136      1.0  0.46170  0.73750  0.73630  1.0000 0.3570977077
H   H137      1.0  0.73630  0.73750  0.06450  1.0000 0.3570977077
H   H138      1.0  0.73750  0.06450  0.73630  1.0000 0.3570977077
H   H139      1.0  0.73750  0.73630  0.46170  1.0000 0.3570977077
H   H140      1.0  0.46170  0.73630  0.06450  1.0000 0.3570977077
H   H141      1.0  0.06450  0.46170  0.73630  1.0000 0.3570977077
H   H142      1.0  0.06450  0.73750  0.46170  1.0000 0.3570977077
H   H143      1.0  0.46170  0.06450  0.73750  1.0000 0.3570977077
H   H144      1.0  0.73630  0.46170  0.73750  1.0000 0.3570977077
C   C1        1.0  0.00000  0.00000  0.47920  1.0000 0.0751549888
C   C2        1.0  0.00000  0.00000  0.52080  1.0000 0.0730831741
C   C3        1.0  0.52080  0.47920  0.00000  1.0000 0.0751549888
C   C4        1.0  0.47920  0.52080  0.00000  1.0000 0.0730831741
C   C5        1.0  0.47920  0.00000  0.00000  1.0000 0.0730831741
C   C6        1.0  0.00000  0.47920  0.00000  1.0000 0.0730831741
C   C7        1.0  1.00000  0.47920  0.52080  1.0000 0.0751549888
C   C8        1.0  0.00000  0.52080  0.00000  1.0000 0.0730831741
C   C9        1.0  0.52080  0.00000  0.00000  1.0000 0.0730831741
C   C10       1.0  0.47920  0.00000  0.52080  1.0000 0.0730831741
C   C11       1.0  0.00000  0.52080  0.47920  1.0000 0.0730831741
C   C12       1.0  0.52080  0.00000  0.47920  1.0000 0.0751549888
C   C13       1.0  0.96860  0.03140  0.41300  1.0000 0.1283296142
C   C14       1.0  0.03140  0.96860  0.58700  1.0000 0.1283296142
C   C15       1.0  0.58700  0.41300  0.03140  1.0000 0.1283296142
C   C16       1.0  0.41300  0.58700  0.96860  1.0000 0.1283296142
C   C17       1.0  0.41300  0.96860  0.03140  1.0000 0.1283296142
C   C18       1.0  0.03140  0.41300  0.96860  1.0000 0.1283296142
C   C19       1.0  0.96860  0.41300  0.58700  1.0000 0.1283296142
C   C20       1.0  0.96860  0.58700  0.03140  1.0000 0.1283296142
C   C21       1.0  0.58700  0.03140  0.96860  1.0000 0.1283296142
C   C22       1.0  0.41300  0.03140  0.58700  1.0000 0.1283296142
C   C23       1.0  0.03140  0.58700  0.41300  1.0000 0.1283296142
C   C24       1.0  0.58700  0.96860  0.41300  1.0000 0.1283296142
C   C25       1.0  0.96860  0.03140  0.58700  1.0000 0.1283296142
C   C26       1.0  0.03140  0.96860  0.41300  1.0000 0.1283296142
C   C27       1.0  0.58700  0.41300  0.96860  1.0000 0.1283296142
C   C28       1.0  0.41300  0.58700  0.03140  1.0000 0.1283296142
C   C29       1.0  0.03140  0.58700  0.96860  1.0000 0.1283296142
C   C30       1.0  0.58700  0.96860  0.03140  1.0000 0.1283296142
C   C31       1.0  0.58700  0.03140  0.41300  1.0000 0.1283296142
C   C32       1.0  0.41300  0.03140  0.96860  1.0000 0.1283296142
C   C33       1.0  0.96860  0.41300  0.03140  1.0000 0.1283296142
C   C34       1.0  0.96860  0.58700  0.41300  1.0000 0.1283296142
C   C35       1.0  0.41300  0.96860  0.58700  1.0000 0.1283296142
C   C36       1.0  0.03140  0.41300  0.58700  1.0000 0.1283296142
C   C37       1.0  0.96680  0.03320  0.45900  1.0000 -0.2143093091
C   C38       1.0  0.03320  0.96680  0.54100  1.0000 -0.2162026523
C   C39       1.0  0.54100  0.45900  0.03320  1.0000 -0.2162026523
C   C40       1.0  0.45900  0.54100  0.96680  1.0000 -0.2162026523
C   C41       1.0  0.45900  0.96680  0.03320  1.0000 -0.2162026523
C   C42       1.0  0.03320  0.45900  0.96680  1.0000 -0.2143093091
C   C43       1.0  0.96680  0.45900  0.54100  1.0000 -0.2143093091
C   C44       1.0  0.96680  0.54100  0.03320  1.0000 -0.2162026523
C   C45       1.0  0.54100  0.03320  0.96680  1.0000 -0.2143093091
C   C46       1.0  0.45900  0.03320  0.54100  1.0000 -0.2143093091
C   C47       1.0  0.03320  0.54100  0.45900  1.0000 -0.2162026523
C   C48       1.0  0.54100  0.96680  0.45900  1.0000 -0.2162026523
C   C49       1.0  0.96680  0.03320  0.54100  1.0000 -0.2143093091
C   C50       1.0  0.03320  0.96680  0.45900  1.0000 -0.2143093091
C   C51       1.0  0.54100  0.45900  0.96680  1.0000 -0.2162026523
C   C52       1.0  0.45900  0.54100  0.03320  1.0000 -0.2162026523
C   C53       1.0  0.03320  0.54100  0.96680  1.0000 -0.2162026523
C   C54       1.0  0.54100  0.96680  0.03320  1.0000 -0.2162026523
C   C55       1.0  0.54100  0.03320  0.45900  1.0000 -0.2143093091
C   C56       1.0  0.45900  0.03320  0.96680  1.0000 -0.2143093091
C   C57       1.0  0.96680  0.45900  0.03320  1.0000 -0.2162026523
C   C58       1.0  0.96680  0.54100  0.45900  1.0000 -0.2162026523
C   C59       1.0  0.45900  0.96680  0.54100  1.0000 -0.2162026523
C   C60       1.0  0.03320  0.45900  0.54100  1.0000 -0.2143093091
C   C61       1.0  0.17108  0.98296  0.17108  1.0000 -0.0986270858
C   C62       1.0  0.98296  0.17108  0.67488  1.0000 -0.0986270858
C   C63       1.0  0.67488  0.17108  0.98296  1.0000 -0.0986270858
C   C64       1.0  0.17108  0.67488  0.17108  1.0000 -0.0986270858
C   C65       1.0  0.17108  0.17108  0.98296  1.0000 -0.0986270858
C   C66       1.0  0.98296  0.17108  0.17108  1.0000 -0.0986270858
C   C67       1.0  0.17108  0.17108  0.67488  1.0000 -0.0986270858
C   C68       1.0  0.17108  0.67488  0.98296  1.0000 -0.0986270858
C   C69       1.0  0.67488  0.98296  0.17108  1.0000 -0.0986270858
C   C70       1.0  0.17108  0.98296  0.67488  1.0000 -0.0986270858
C   C71       1.0  0.98296  0.67488  0.17108  1.0000 -0.0986270858
C   C72       1.0  0.67488  0.17108  0.17108  1.0000 -0.0986270858
C   C73       1.0  0.01704  0.82892  0.82892  1.0000 -0.0986270858
C   C74       1.0  0.82892  0.01704  0.32512  1.0000 -0.0986270858
C   C75       1.0  0.82892  0.32512  0.01704  1.0000 -0.0986270858
C   C76       1.0  0.32512  0.82892  0.82892  1.0000 -0.0986270858
C   C77       1.0  0.82892  0.82892  0.01704  1.0000 -0.0986270858
C   C78       1.0  0.82892  0.01704  0.82892  1.0000 -0.0986270858
C   C79       1.0  0.82892  0.82892  0.32512  1.0000 -0.0986270858
C   C80       1.0  0.32512  0.82892  0.01704  1.0000 -0.0986270858
C   C81       1.0  0.01704  0.32512  0.82892  1.0000 -0.0986270858
C   C82       1.0  0.01704  0.82892  0.32512  1.0000 -0.0986270858
C   C83       1.0  0.32512  0.01704  0.82892  1.0000 -0.0986270858
C   C84       1.0  0.82892  0.32512  0.82892  1.0000 -0.0986270858
C   C85       1.0  0.09188  0.98580  0.24698  1.0000 0.5692009268
C   C86       1.0  0.98580  0.09188  0.67534  1.0000 0.5692009268
C   C87       1.0  0.67534  0.24698  0.98580  1.0000 0.5692009268
C   C88       1.0  0.24698  0.67534  0.09188  1.0000 0.5692009268
C   C89       1.0  0.24698  0.09188  0.98580  1.0000 0.5692009268
C   C90       1.0  0.98580  0.24698  0.09188  1.0000 0.5692009268
C   C91       1.0  0.09188  0.24698  0.67534  1.0000 0.5692009268
C   C92       1.0  0.09188  0.67534  0.98580  1.0000 0.5692009268
C   C93       1.0  0.67534  0.98580  0.09188  1.0000 0.5692009268
C   C94       1.0  0.24698  0.98580  0.67534  1.0000 0.5692009268
C   C95       1.0  0.98580  0.67534  0.24698  1.0000 0.5692009268
C   C96       1.0  0.67534  0.09188  0.24698  1.0000 0.5692009268
C   C97       1.0  0.01420  0.90812  0.75302  1.0000 0.5692009268
C   C98       1.0  0.90812  0.01420  0.32466  1.0000 0.5692009268
C   C99       1.0  0.75302  0.32466  0.01420  1.0000 0.5692009268
C   C100      1.0  0.32466  0.75302  0.90812  1.0000 0.5692009268
C   C101      1.0  0.90812  0.75302  0.01420  1.0000 0.5692009268
C   C102      1.0  0.75302  0.01420  0.90812  1.0000 0.5692009268
C   C103      1.0  0.75302  0.90812  0.32466  1.0000 0.5692009268
C   C104      1.0  0.32466  0.90812  0.01420  1.0000 0.5692009268
C   C105      1.0  0.01420  0.32466  0.90812  1.0000 0.5692009268
C   C106      1.0  0.01420  0.75302  0.32466  1.0000 0.5692009268
C   C107      1.0  0.32466  0.01420  0.75302  1.0000 0.5692009268
C   C108      1.0  0.90812  0.32466  0.75302  1.0000 0.5692009268
C   C109      1.0  0.90812  0.01420  0.75302  1.0000 0.5692009268
C   C110      1.0  0.01420  0.90812  0.32466  1.0000 0.5692009268
C   C111      1.0  0.32466  0.75302  0.01420  1.0000 0.5692009268
C   C112      1.0  0.75302  0.32466  0.90812  1.0000 0.5692009268
C   C113      1.0  0.75302  0.90812  0.01420  1.0000 0.5692009268
C   C114      1.0  0.01420  0.75302  0.90812  1.0000 0.5692009268
C   C115      1.0  0.90812  0.75302  0.32466  1.0000 0.5692009268
C   C116      1.0  0.90812  0.32466  0.01420  1.0000 0.5692009268
C   C117      1.0  0.32466  0.01420  0.90812  1.0000 0.5692009268
C   C118      1.0  0.75302  0.01420  0.32466  1.0000 0.5692009268
C   C119      1.0  0.01420  0.32466  0.75302  1.0000 0.5692009268
C   C120      1.0  0.32466  0.90812  0.75302  1.0000 0.5692009268
C   C121      1.0  0.98580  0.09188  0.24698  1.0000 0.5692009268
C   C122      1.0  0.09188  0.98580  0.67534  1.0000 0.5692009268
C   C123      1.0  0.24698  0.67534  0.98580  1.0000 0.5692009268
C   C124      1.0  0.67534  0.24698  0.09188  1.0000 0.5692009268
C   C125      1.0  0.09188  0.24698  0.98580  1.0000 0.5692009268
C   C126      1.0  0.24698  0.98580  0.09188  1.0000 0.5692009268
C   C127      1.0  0.24698  0.09188  0.67534  1.0000 0.5692009268
C   C128      1.0  0.67534  0.09188  0.98580  1.0000 0.5692009268
C   C129      1.0  0.98580  0.67534  0.09188  1.0000 0.5692009268
C   C130      1.0  0.98580  0.24698  0.67534  1.0000 0.5692009268
C   C131      1.0  0.67534  0.98580  0.24698  1.0000 0.5692009268
C   C132      1.0  0.09188  0.67534  0.24698  1.0000 0.5692009268
C   C133      1.0  0.17430  0.97130  0.24790  1.0000 -0.1815214772
C   C134      1.0  0.97130  0.17430  0.60650  1.0000 -0.1862236119
C   C135      1.0  0.60650  0.24790  0.97130  1.0000 -0.1862236119
C   C136      1.0  0.24790  0.60650  0.17430  1.0000 -0.1815214772
C   C137      1.0  0.24790  0.17430  0.97130  1.0000 -0.1815214772
C   C138      1.0  0.97130  0.24790  0.17430  1.0000 -0.1862236119
C   C139      1.0  0.17430  0.24790  0.60650  1.0000 -0.1862236119
C   C140      1.0  0.17430  0.60650  0.97130  1.0000 -0.1815214772
C   C141      1.0  0.60650  0.97130  0.17430  1.0000 -0.1815214772
C   C142      1.0  0.24790  0.97130  0.60650  1.0000 -0.1815214772
C   C143      1.0  0.97130  0.60650  0.24790  1.0000 -0.1862236119
C   C144      1.0  0.60650  0.17430  0.24790  1.0000 -0.1862236119
C   C145      1.0  0.02870  0.82570  0.75210  1.0000 -0.1862236119
C   C146      1.0  0.82570  0.02870  0.39350  1.0000 -0.1862236119
C   C147      1.0  0.75210  0.39350  0.02870  1.0000 -0.1862236119
C   C148      1.0  0.39350  0.75210  0.82570  1.0000 -0.1862236119
C   C149      1.0  0.82570  0.75210  0.02870  1.0000 -0.1815214772
C   C150      1.0  0.75210  0.02870  0.82570  1.0000 -0.1815214772
C   C151      1.0  0.75210  0.82570  0.39350  1.0000 -0.1815214772
C   C152      1.0  0.39350  0.82570  0.02870  1.0000 -0.1862236119
C   C153      1.0  0.02870  0.39350  0.82570  1.0000 -0.1815214772
C   C154      1.0  0.02870  0.75210  0.39350  1.0000 -0.1862236119
C   C155      1.0  0.39350  0.02870  0.75210  1.0000 -0.1815214772
C   C156      1.0  0.82570  0.39350  0.75210  1.0000 -0.1815214772
C   C157      1.0  0.82570  0.02870  0.75210  1.0000 -0.1815214772
C   C158      1.0  0.02870  0.82570  0.39350  1.0000 -0.1862236119
C   C159      1.0  0.39350  0.75210  0.02870  1.0000 -0.1862236119
C   C160      1.0  0.75210  0.39350  0.82570  1.0000 -0.1815214772
C   C161      1.0  0.75210  0.82570  0.02870  1.0000 -0.1815214772
C   C162      1.0  0.02870  0.75210  0.82570  1.0000 -0.1862236119
C   C163      1.0  0.82570  0.75210  0.39350  1.0000 -0.1815214772
C   C164      1.0  0.82570  0.39350  0.02870  1.0000 -0.1862236119
C   C165      1.0  0.39350  0.02870  0.82570  1.0000 -0.1815214772
C   C166      1.0  0.75210  0.02870  0.39350  1.0000 -0.1862236119
C   C167      1.0  0.02870  0.39350  0.75210  1.0000 -0.1815214772
C   C168      1.0  0.39350  0.82570  0.75210  1.0000 -0.1862236119
C   C169      1.0  0.97130  0.17430  0.24790  1.0000 -0.1862236119
C   C170      1.0  0.17430  0.97130  0.60650  1.0000 -0.1815214772
C   C171      1.0  0.24790  0.60650  0.97130  1.0000 -0.1815214772
C   C172      1.0  0.60650  0.24790  0.17430  1.0000 -0.1862236119
C   C173      1.0  0.17430  0.24790  0.97130  1.0000 -0.1862236119
C   C174      1.0  0.24790  0.97130  0.17430  1.0000 -0.1815214772
C   C175      1.0  0.24790  0.17430  0.60650  1.0000 -0.1862236119
C   C176      1.0  0.60650  0.17430  0.97130  1.0000 -0.1862236119
C   C177      1.0  0.97130  0.60650  0.17430  1.0000 -0.1862236119
C   C178      1.0  0.97130  0.24790  0.60650  1.0000 -0.1862236119
C   C179      1.0  0.60650  0.97130  0.24790  1.0000 -0.1815214772
C   C180      1.0  0.17430  0.60650  0.24790  1.0000 -0.1862236119
C   C181      1.0  0.14618  0.98000  0.22138  1.0000 -0.016861695
C   C182      1.0  0.98000  0.14618  0.65244  1.0000 -0.016861695
C   C183      1.0  0.65244  0.22138  0.98000  1.0000 -0.016861695
C   C184      1.0  0.22138  0.65244  0.14618  1.0000 -0.016861695
C   C185      1.0  0.22138  0.14618  0.98000  1.0000 -0.016861695
C   C186      1.0  0.98000  0.22138  0.14618  1.0000 -0.016861695
C   C187      1.0  0.14618  0.22138  0.65244  1.0000 -0.016861695
C   C188      1.0  0.14618  0.65244  0.98000  1.0000 -0.016861695
C   C189      1.0  0.65244  0.98000  0.14618  1.0000 -0.016861695
C   C190      1.0  0.22138  0.98000  0.65244  1.0000 -0.016861695
C   C191      1.0  0.98000  0.65244  0.22138  1.0000 -0.016861695
C   C192      1.0  0.65244  0.14618  0.22138  1.0000 -0.016861695
C   C193      1.0  0.02000  0.85382  0.77862  1.0000 -0.016861695
C   C194      1.0  0.85382  0.02000  0.34756  1.0000 -0.016861695
C   C195      1.0  0.77862  0.34756  0.02000  1.0000 -0.016861695
C   C196      1.0  0.34756  0.77862  0.85382  1.0000 -0.016861695
C   C197      1.0  0.85382  0.77862  0.02000  1.0000 -0.016861695
C   C198      1.0  0.77862  0.02000  0.85382  1.0000 -0.016861695
C   C199      1.0  0.77862  0.85382  0.34756  1.0000 -0.016861695
C   C200      1.0  0.34756  0.85382  0.02000  1.0000 -0.016861695
C   C201      1.0  0.02000  0.34756  0.85382  1.0000 -0.016861695
C   C202      1.0  0.02000  0.77862  0.34756  1.0000 -0.016861695
C   C203      1.0  0.34756  0.02000  0.77862  1.0000 -0.016861695
C   C204      1.0  0.85382  0.34756  0.77862  1.0000 -0.016861695
C   C205      1.0  0.85382  0.02000  0.77862  1.0000 -0.016861695
C   C206      1.0  0.02000  0.85382  0.34756  1.0000 -0.016861695
C   C207      1.0  0.34756  0.77862  0.02000  1.0000 -0.016861695
C   C208      1.0  0.77862  0.34756  0.85382  1.0000 -0.016861695
C   C209      1.0  0.77862  0.85382  0.02000  1.0000 -0.016861695
C   C210      1.0  0.02000  0.77862  0.85382  1.0000 -0.016861695
C   C211      1.0  0.85382  0.77862  0.34756  1.0000 -0.016861695
C   C212      1.0  0.85382  0.34756  0.02000  1.0000 -0.016861695
C   C213      1.0  0.34756  0.02000  0.85382  1.0000 -0.016861695
C   C214      1.0  0.77862  0.02000  0.34756  1.0000 -0.016861695
C   C215      1.0  0.02000  0.34756  0.77862  1.0000 -0.016861695
C   C216      1.0  0.34756  0.85382  0.77862  1.0000 -0.016861695
C   C217      1.0  0.98000  0.14618  0.22138  1.0000 -0.016861695
C   C218      1.0  0.14618  0.98000  0.65244  1.0000 -0.016861695
C   C219      1.0  0.22138  0.65244  0.98000  1.0000 -0.016861695
C   C220      1.0  0.65244  0.22138  0.14618  1.0000 -0.016861695
C   C221      1.0  0.14618  0.22138  0.98000  1.0000 -0.016861695
C   C222      1.0  0.22138  0.98000  0.14618  1.0000 -0.016861695
C   C223      1.0  0.22138  0.14618  0.65244  1.0000 -0.016861695
C   C224      1.0  0.65244  0.14618  0.98000  1.0000 -0.016861695
C   C225      1.0  0.98000  0.65244  0.14618  1.0000 -0.016861695
C   C226      1.0  0.98000  0.22138  0.65244  1.0000 -0.016861695
C   C227      1.0  0.65244  0.98000  0.22138  1.0000 -0.016861695
C   C228      1.0  0.14618  0.65244  0.22138  1.0000 -0.016861695
C   C229      1.0  0.22200  0.97020  0.22200  1.0000 0.2116786639
C   C230      1.0  0.97020  0.22200  0.58580  1.0000 0.2116786639
C   C231      1.0  0.58580  0.22200  0.97020  1.0000 0.2116786639
C   C232      1.0  0.22200  0.58580  0.22200  1.0000 0.2116786639
C   C233      1.0  0.22200  0.22200  0.97020  1.0000 0.2116786639
C   C234      1.0  0.97020  0.22200  0.22200  1.0000 0.2116786639
C   C235      1.0  0.22200  0.22200  0.58580  1.0000 0.2116786639
C   C236      1.0  0.22200  0.58580  0.97020  1.0000 0.2116786639
C   C237      1.0  0.58580  0.97020  0.22200  1.0000 0.2116786639
C   C238      1.0  0.22200  0.97020  0.58580  1.0000 0.2116786639
C   C239      1.0  0.97020  0.58580  0.22200  1.0000 0.2116786639
C   C240      1.0  0.58580  0.22200  0.22200  1.0000 0.2116786639
C   C241      1.0  0.02980  0.77800  0.77800  1.0000 0.2116786639
C   C242      1.0  0.77800  0.02980  0.41420  1.0000 0.2116786639
C   C243      1.0  0.77800  0.41420  0.02980  1.0000 0.2116786639
C   C244      1.0  0.41420  0.77800  0.77800  1.0000 0.2116786639
C   C245      1.0  0.77800  0.77800  0.02980  1.0000 0.2116786639
C   C246      1.0  0.77800  0.02980  0.77800  1.0000 0.2116786639
C   C247      1.0  0.77800  0.77800  0.41420  1.0000 0.2116786639
C   C248      1.0  0.41420  0.77800  0.02980  1.0000 0.2116786639
C   C249      1.0  0.02980  0.41420  0.77800  1.0000 0.2116786639
C   C250      1.0  0.02980  0.77800  0.41420  1.0000 0.2116786639
C   C251      1.0  0.41420  0.02980  0.77800  1.0000 0.2116786639
C   C252      1.0  0.77800  0.41420  0.77800  1.0000 0.2116786639
N   N1        1.0  0.00000  0.00000  0.39186  1.0000 -0.2162026523
N   N2        1.0  0.00000  0.00000  0.60814  1.0000 -0.2162026523
N   N3        1.0  0.60814  0.39186  0.00000  1.0000 -0.2162026523
N   N4        1.0  0.39186  0.60814  0.00000  1.0000 -0.2162026523
N   N5        1.0  0.39186  0.00000  0.00000  1.0000 -0.2162026523
N   N6        1.0  1.00000  0.39186  0.00000  1.0000 -0.2162026523
N   N7        1.0  1.00000  0.39186  0.60814  1.0000 -0.2162026523
N   N8        1.0  0.00000  0.60814  0.00000  1.0000 -0.2162026523
N   N9        1.0  0.60814  0.00000  0.00000  1.0000 -0.2162026523
N   N10       1.0  0.39186  0.00000  0.60814  1.0000 -0.2162026523
N   N11       1.0  0.00000  0.60814  0.39186  1.0000 -0.2162026523
N   N12       1.0  0.60814  0.00000  0.39186  1.0000 -0.2162026523
O   O1        1.0  0.07152  0.98868  0.22110  1.0000 -0.5072505222
O   O2        1.0  0.98868  0.07152  0.71870  1.0000 -0.5072505222
O   O3        1.0  0.71870  0.22110  0.98868  1.0000 -0.5072505222
O   O4        1.0  0.22110  0.71870  0.07152  1.0000 -0.5072505222
O   O5        1.0  0.22110  0.07152  0.98868  1.0000 -0.5072505222
O   O6        1.0  0.98868  0.22110  0.07152  1.0000 -0.5072505222
O   O7        1.0  0.07152  0.22110  0.71870  1.0000 -0.5072505222
O   O8        1.0  0.07152  0.71870  0.98868  1.0000 -0.5072505222
O   O9        1.0  0.71870  0.98868  0.07152  1.0000 -0.5072505222
O   O10       1.0  0.22110  0.98868  0.71870  1.0000 -0.5072505222
O   O11       1.0  0.98868  0.71870  0.22110  1.0000 -0.5072505222
O   O12       1.0  0.71870  0.07152  0.22110  1.0000 -0.5072505222
O   O13       1.0  0.01132  0.92848  0.77890  1.0000 -0.5072505222
O   O14       1.0  0.92848  0.01132  0.28130  1.0000 -0.5072505222
O   O15       1.0  0.77890  0.28130  0.01132  1.0000 -0.5072505222
O   O16       1.0  0.28130  0.77890  0.92848  1.0000 -0.5072505222
O   O17       1.0  0.92848  0.77890  0.01132  1.0000 -0.5072505222
O   O18       1.0  0.77890  0.01132  0.92848  1.0000 -0.5072505222
O   O19       1.0  0.77890  0.92848  0.28130  1.0000 -0.5072505222
O   O20       1.0  0.28130  0.92848  0.01132  1.0000 -0.5072505222
O   O21       1.0  0.01132  0.28130  0.92848  1.0000 -0.5072505222
O   O22       1.0  0.01132  0.77890  0.28130  1.0000 -0.5072505222
O   O23       1.0  0.28130  0.01132  0.77890  1.0000 -0.5072505222
O   O24       1.0  0.92848  0.28130  0.77890  1.0000 -0.5072505222
O   O25       1.0  0.92848  0.01132  0.77890  1.0000 -0.5072505222
O   O26       1.0  0.01132  0.92848  0.28130  1.0000 -0.5072505222
O   O27       1.0  0.28130  0.77890  0.01132  1.0000 -0.5072505222
O   O28       1.0  0.77890  0.28130  0.92848  1.0000 -0.5072505222
O   O29       1.0  0.77890  0.92848  0.01132  1.0000 -0.5072505222
O   O30       1.0  0.01132  0.77890  0.92848  1.0000 -0.5072505222
O   O31       1.0  0.92848  0.77890  0.28130  1.0000 -0.5072505222
O   O32       1.0  0.92848  0.28130  0.01132  1.0000 -0.5072505222
O   O33       1.0  0.28130  0.01132  0.92848  1.0000 -0.5072505222
O   O34       1.0  0.77890  0.01132  0.28130  1.0000 -0.5072505222
O   O35       1.0  0.01132  0.28130  0.77890  1.0000 -0.5072505222
O   O36       1.0  0.28130  0.92848  0.77890  1.0000 -0.5072505222
O   O37       1.0  0.98868  0.07152  0.22110  1.0000 -0.5072505222
O   O38       1.0  0.07152  0.98868  0.71870  1.0000 -0.5072505222
O   O39       1.0  0.22110  0.71870  0.98868  1.0000 -0.5072505222
O   O40       1.0  0.71870  0.22110  0.07152  1.0000 -0.5072505222
O   O41       1.0  0.07152  0.22110  0.98868  1.0000 -0.5072505222
O   O42       1.0  0.22110  0.98868  0.07152  1.0000 -0.5072505222
O   O43       1.0  0.22110  0.07152  0.71870  1.0000 -0.5072505222
O   O44       1.0  0.71870  0.07152  0.98868  1.0000 -0.5072505222
O   O45       1.0  0.98868  0.71870  0.07152  1.0000 -0.5072505222
O   O46       1.0  0.98868  0.22110  0.71870  1.0000 -0.5072505222
O   O47       1.0  0.71870  0.98868  0.22110  1.0000 -0.5072505222
O   O48       1.0  0.07152  0.71870  0.22110  1.0000 -0.5072505222
O   O49       1.0  0.07217  0.98765  0.28975  1.0000 -0.4963966593
O   O50       1.0  0.98765  0.07217  0.65043  1.0000 -0.4963966593
O   O51       1.0  0.65043  0.28975  0.98765  1.0000 -0.4963966593
O   O52       1.0  0.28975  0.65043  0.07217  1.0000 -0.4963966593
O   O53       1.0  0.28975  0.07217  0.98765  1.0000 -0.4963966593
O   O54       1.0  0.98765  0.28975  0.07217  1.0000 -0.4963966593
O   O55       1.0  0.07217  0.28975  0.65043  1.0000 -0.4963966593
O   O56       1.0  0.07217  0.65043  0.98765  1.0000 -0.4942728682
O   O57       1.0  0.65043  0.98765  0.07217  1.0000 -0.4963966593
O   O58       1.0  0.28975  0.98765  0.65043  1.0000 -0.4942728682
O   O59       1.0  0.98765  0.65043  0.28975  1.0000 -0.4963966593
O   O60       1.0  0.65043  0.07217  0.28975  1.0000 -0.4942728682
O   O61       1.0  0.01235  0.92783  0.71025  1.0000 -0.4963966593
O   O62       1.0  0.92783  0.01235  0.34957  1.0000 -0.4963966593
O   O63       1.0  0.71025  0.34957  0.01235  1.0000 -0.4963966593
O   O64       1.0  0.34957  0.71025  0.92783  1.0000 -0.4963966593
O   O65       1.0  0.92783  0.71025  0.01235  1.0000 -0.4963966593
O   O66       1.0  0.71025  0.01235  0.92783  1.0000 -0.4963966593
O   O67       1.0  0.71025  0.92783  0.34957  1.0000 -0.4963966593
O   O68       1.0  0.34957  0.92783  0.01235  1.0000 -0.4963966593
O   O69       1.0  0.01235  0.34957  0.92783  1.0000 -0.4942728682
O   O70       1.0  0.01235  0.71025  0.34957  1.0000 -0.4963966593
O   O71       1.0  0.34957  0.01235  0.71025  1.0000 -0.4963966593
O   O72       1.0  0.92783  0.34957  0.71025  1.0000 -0.4963966593
O   O73       1.0  0.92783  0.01235  0.71025  1.0000 -0.4963966593
O   O74       1.0  0.01235  0.92783  0.34957  1.0000 -0.4942728682
O   O75       1.0  0.34957  0.71025  0.01235  1.0000 -0.4963966593
O   O76       1.0  0.71025  0.34957  0.92783  1.0000 -0.4963966593
O   O77       1.0  0.71025  0.92783  0.01235  1.0000 -0.4963966593
O   O78       1.0  0.01235  0.71025  0.92783  1.0000 -0.4963966593
O   O79       1.0  0.92783  0.71025  0.34957  1.0000 -0.4963966593
O   O80       1.0  0.92783  0.34957  0.01235  1.0000 -0.4963966593
O   O81       1.0  0.34957  0.01235  0.92783  1.0000 -0.4963966593
O   O82       1.0  0.71025  0.01235  0.34957  1.0000 -0.4963966593
O   O83       1.0  0.01235  0.34957  0.71025  1.0000 -0.4963966593
O   O84       1.0  0.34957  0.92783  0.71025  1.0000 -0.4963966593
O   O85       1.0  0.98765  0.07217  0.28975  1.0000 -0.4963966593
O   O86       1.0  0.07217  0.98765  0.65043  1.0000 -0.4963966593
O   O87       1.0  0.28975  0.65043  0.98765  1.0000 -0.4963966593
O   O88       1.0  0.65043  0.28975  0.07217  1.0000 -0.4963966593
O   O89       1.0  0.07217  0.28975  0.98765  1.0000 -0.4942728682
O   O90       1.0  0.28975  0.98765  0.07217  1.0000 -0.4963966593
O   O91       1.0  0.28975  0.07217  0.65043  1.0000 -0.4942728682
O   O92       1.0  0.65043  0.07217  0.98765  1.0000 -0.4963966593
O   O93       1.0  0.98765  0.65043  0.07217  1.0000 -0.4942728682
O   O94       1.0  0.98765  0.28975  0.65043  1.0000 -0.4963966593
O   O95       1.0  0.65043  0.98765  0.28975  1.0000 -0.4963966593
O   O96       1.0  0.07217  0.65043  0.28975  1.0000 -0.4963966593
O   O97       1.0  0.24960  0.96520  0.24960  1.0000 -0.4963966593
O   O98       1.0  0.96520  0.24960  0.53560  1.0000 -0.4942728682
O   O99       1.0  0.53560  0.24960  0.96520  1.0000 -0.4963966593
O   O100      1.0  0.24960  0.53560  0.24960  1.0000 -0.4963966593
O   O101      1.0  0.24960  0.24960  0.96520  1.0000 -0.4963966593
O   O102      1.0  0.96520  0.24960  0.24960  1.0000 -0.5072505222
O   O103      1.0  0.24960  0.24960  0.53560  1.0000 -0.4963966593
O   O104      1.0  0.24960  0.53560  0.96520  1.0000 -0.4963966593
O   O105      1.0  0.53560  0.96520  0.24960  1.0000 -0.4963966593
O   O106      1.0  0.24960  0.96520  0.53560  1.0000 -0.4963966593
O   O107      1.0  0.96520  0.53560  0.24960  1.0000 -0.4942728682
O   O108      1.0  0.53560  0.24960  0.24960  1.0000 -0.4963966593
O   O109      1.0  0.03480  0.75040  0.75040  1.0000 -0.4963966593
O   O110      1.0  0.75040  0.03480  0.46440  1.0000 -0.5072505222
O   O111      1.0  0.75040  0.46440  0.03480  1.0000 -0.4942728682
O   O112      1.0  0.46440  0.75040  0.75040  1.0000 -0.4963966593
O   O113      1.0  0.75040  0.75040  0.03480  1.0000 -0.5072505222
O   O114      1.0  0.75040  0.03480  0.75040  1.0000 -0.5072505222
O   O115      1.0  0.75040  0.75040  0.46440  1.0000 -0.4963966593
O   O116      1.0  0.46440  0.75040  0.03480  1.0000 -0.4942728682
O   O117      1.0  0.03480  0.46440  0.75040  1.0000 -0.4963966593
O   O118      1.0  0.03480  0.75040  0.46440  1.0000 -0.4942728682
O   O119      1.0  0.46440  0.03480  0.75040  1.0000 -0.4963966593
O   O120      1.0  0.75040  0.46440  0.75040  1.0000 -0.4963966593
