# DDEC6 charges by PACMAN v1.1 (https://github.com/mtap-research/PACMAN-charge/)
data_2013[Cd][nan]3[ASR]1
_chemical_formula_sum              "Cd16 H200 C232 N72 O32"
_cell_length_a       13.5699
_cell_length_b       12.2549
_cell_length_c       38.232
_cell_angle_alpha    90
_cell_angle_beta     97.443
_cell_angle_gamma    90

_symmetry_space_group_name_H-M    "P 1"
_symmetry_Int_Tables_number       1

loop_
  _symmetry_equiv_pos_as_xyz
  'x, y, z'

loop_
  _atom_site_type_symbol
  _atom_site_label
  _atom_site_symmetry_multiplicity
  _atom_site_fract_x
  _atom_site_fract_y
  _atom_site_fract_z
  _atom_site_occupancy
  _atom_site_charge
Cd  Cd1       1.0  0.05141  0.18221  0.16389  1.0000 0.8707362099
Cd  Cd2       1.0  0.94859  0.68221  0.33611  1.0000 0.8707362099
Cd  Cd3       1.0  0.94859  0.81779  0.83611  1.0000 0.8707362099
Cd  Cd4       1.0  0.05141  0.31779  0.66389  1.0000 0.8707362099
Cd  Cd5       1.0  0.87271  0.41973  0.13643  1.0000 0.7053896172
Cd  Cd6       1.0  0.12729  0.91973  0.36357  1.0000 0.7053896172
Cd  Cd7       1.0  0.12729  0.58027  0.86357  1.0000 0.7053896172
Cd  Cd8       1.0  0.87271  0.08027  0.63643  1.0000 0.7053896172
Cd  Cd9       1.0  0.66854  0.89561  0.07690  1.0000 0.7660572214
Cd  Cd10      1.0  0.33146  0.39561  0.42310  1.0000 0.7660572214
Cd  Cd11      1.0  0.33146  0.10439  0.92310  1.0000 0.7660572214
Cd  Cd12      1.0  0.66854  0.60439  0.57690  1.0000 0.7660572214
Cd  Cd13      1.0  0.48706  0.67127  0.05889  1.0000 0.825744061
Cd  Cd14      1.0  0.51294  0.17127  0.44111  1.0000 0.825744061
Cd  Cd15      1.0  0.51294  0.32873  0.94111  1.0000 0.825744061
Cd  Cd16      1.0  0.48706  0.82873  0.55889  1.0000 0.825744061
H   H1        1.0  0.90550  0.00920  0.33070  1.0000 0.1097563335
H   H2        1.0  0.09450  0.50920  0.16930  1.0000 0.1097563335
H   H3        1.0  0.09450  0.99080  0.66930  1.0000 0.1097563335
H   H4        1.0  0.90550  0.49080  0.83070  1.0000 0.1097563335
H   H5        1.0  0.82150  0.09650  0.28260  1.0000 0.1497600087
H   H6        1.0  0.17850  0.59650  0.21740  1.0000 0.1497600087
H   H7        1.0  0.17850  0.90350  0.71740  1.0000 0.1497600087
H   H8        1.0  0.82150  0.40350  0.78260  1.0000 0.1497600087
H   H9        1.0  0.07420  0.12060  0.24110  1.0000 0.138806141
H   H10       1.0  0.92580  0.62060  0.25890  1.0000 0.138806141
H   H11       1.0  0.92580  0.87940  0.75890  1.0000 0.138806141
H   H12       1.0  0.07420  0.37940  0.74110  1.0000 0.138806141
H   H13       1.0  0.15190  0.03450  0.28970  1.0000 0.1097563335
H   H14       1.0  0.84810  0.53450  0.21030  1.0000 0.1097563335
H   H15       1.0  0.84810  0.96550  0.71030  1.0000 0.1097563335
H   H16       1.0  0.15190  0.46550  0.78970  1.0000 0.1097563335
H   H17       1.0  0.58480  0.29620  0.21020  1.0000 0.1597441902
H   H18       1.0  0.41520  0.79620  0.28980  1.0000 0.1597441902
H   H19       1.0  0.41520  0.70380  0.78980  1.0000 0.1597441902
H   H20       1.0  0.58480  0.20380  0.71020  1.0000 0.1597441902
H   H21       1.0  0.46580  0.41350  0.18330  1.0000 0.1497600087
H   H22       1.0  0.53420  0.91350  0.31670  1.0000 0.1497600087
H   H23       1.0  0.53420  0.58650  0.81670  1.0000 0.1497600087
H   H24       1.0  0.46580  0.08650  0.68330  1.0000 0.1497600087
H   H25       1.0  0.50290  0.53730  0.14230  1.0000 0.1497600087
H   H26       1.0  0.49710  0.03730  0.35770  1.0000 0.1497600087
H   H27       1.0  0.49710  0.46270  0.85770  1.0000 0.1497600087
H   H28       1.0  0.50290  0.96270  0.64230  1.0000 0.1497600087
H   H29       1.0  0.96720  0.70220  0.13320  1.0000 0.1291772982
H   H30       1.0  0.03280  0.20220  0.36680  1.0000 0.1291772982
H   H31       1.0  0.03280  0.29780  0.86680  1.0000 0.1291772982
H   H32       1.0  0.96720  0.79780  0.63320  1.0000 0.1291772982
H   H33       1.0  0.09940  0.79540  0.11370  1.0000 0.1097563335
H   H34       1.0  0.90060  0.29540  0.38630  1.0000 0.1097563335
H   H35       1.0  0.90060  0.20460  0.88630  1.0000 0.1097563335
H   H36       1.0  0.09940  0.70460  0.61370  1.0000 0.1097563335
H   H37       1.0  0.95510  0.84180  0.02170  1.0000 0.1007330992
H   H38       1.0  0.04490  0.34180  0.47830  1.0000 0.1007330992
H   H39       1.0  0.04490  0.15820  0.97830  1.0000 0.1007330992
H   H40       1.0  0.95510  0.65820  0.52170  1.0000 0.1007330992
H   H41       1.0  0.82070  0.75670  0.03720  1.0000 0.138806141
H   H42       1.0  0.17930  0.25670  0.46280  1.0000 0.138806141
H   H43       1.0  0.17930  0.24330  0.96280  1.0000 0.138806141
H   H44       1.0  0.82070  0.74330  0.53720  1.0000 0.138806141
H   H45       1.0  0.29030  0.77810  0.87310  1.0000 0.1007330992
H   H46       1.0  0.70970  0.27810  0.62690  1.0000 0.1007330992
H   H47       1.0  0.70970  0.22190  0.12690  1.0000 0.1007330992
H   H48       1.0  0.29030  0.72190  0.37310  1.0000 0.1007330992
H   H49       1.0  0.41910  0.85070  0.91030  1.0000 0.1497600087
H   H50       1.0  0.58090  0.35070  0.58970  1.0000 0.1497600087
H   H51       1.0  0.58090  0.14930  0.08970  1.0000 0.1497600087
H   H52       1.0  0.41910  0.64930  0.41030  1.0000 0.1497600087
H   H53       1.0  0.33460  0.66470  0.98740  1.0000 0.138806141
H   H54       1.0  0.66540  0.16470  0.51260  1.0000 0.138806141
H   H55       1.0  0.66540  0.33530  0.01260  1.0000 0.138806141
H   H56       1.0  0.33460  0.83530  0.48740  1.0000 0.138806141
H   H57       1.0  0.20850  0.59800  0.94760  1.0000 0.1215761492
H   H58       1.0  0.79150  0.09800  0.55240  1.0000 0.1215761492
H   H59       1.0  0.79150  0.40200  0.05240  1.0000 0.1215761492
H   H60       1.0  0.20850  0.90200  0.44760  1.0000 0.1215761492
H   H61       1.0  0.66590  0.05620  0.95110  1.0000 0.1497600087
H   H62       1.0  0.33410  0.55620  0.54890  1.0000 0.1497600087
H   H63       1.0  0.33410  0.94380  0.04890  1.0000 0.1497600087
H   H64       1.0  0.66590  0.44380  0.45110  1.0000 0.1497600087
H   H65       1.0  0.79930  0.17500  0.96350  1.0000 0.1215761492
H   H66       1.0  0.20070  0.67500  0.53650  1.0000 0.1215761492
H   H67       1.0  0.20070  0.82500  0.03650  1.0000 0.1215761492
H   H68       1.0  0.79930  0.32500  0.46350  1.0000 0.1215761492
H   H69       1.0  0.89090  0.17220  0.01970  1.0000 0.138806141
H   H70       1.0  0.10910  0.67220  0.48030  1.0000 0.138806141
H   H71       1.0  0.10910  0.82780  0.98030  1.0000 0.138806141
H   H72       1.0  0.89090  0.32780  0.51970  1.0000 0.138806141
H   H73       1.0  0.02400  0.94490  0.17780  1.0000 0.1291772982
H   H74       1.0  0.97600  0.44490  0.32220  1.0000 0.1291772982
H   H75       1.0  0.97600  0.05510  0.82220  1.0000 0.1291772982
H   H76       1.0  0.02400  0.55510  0.67780  1.0000 0.1291772982
H   H77       1.0  0.01830  0.86020  0.23060  1.0000 0.1007330992
H   H78       1.0  0.98170  0.36020  0.26940  1.0000 0.1007330992
H   H79       1.0  0.98170  0.13980  0.76940  1.0000 0.1007330992
H   H80       1.0  0.01830  0.63980  0.73060  1.0000 0.1007330992
H   H81       1.0  0.73030  0.84780  0.21440  1.0000 0.1097563335
H   H82       1.0  0.26970  0.34780  0.28560  1.0000 0.1097563335
H   H83       1.0  0.26970  0.15220  0.78560  1.0000 0.1097563335
H   H84       1.0  0.73030  0.65220  0.71440  1.0000 0.1097563335
H   H85       1.0  0.72790  0.93690  0.16200  1.0000 0.138806141
H   H86       1.0  0.27210  0.43690  0.33800  1.0000 0.138806141
H   H87       1.0  0.27210  0.06310  0.83800  1.0000 0.138806141
H   H88       1.0  0.72790  0.56310  0.66200  1.0000 0.138806141
H   H89       1.0  0.35870  0.73300  0.15340  1.0000 0.1007330992
H   H90       1.0  0.64130  0.23300  0.34660  1.0000 0.1007330992
H   H91       1.0  0.64130  0.26700  0.84660  1.0000 0.1007330992
H   H92       1.0  0.35870  0.76700  0.65340  1.0000 0.1007330992
H   H93       1.0  0.31380  0.80040  0.12000  1.0000 0.1097563335
H   H94       1.0  0.68620  0.30040  0.38000  1.0000 0.1097563335
H   H95       1.0  0.68620  0.19960  0.88000  1.0000 0.1097563335
H   H96       1.0  0.31380  0.69960  0.62000  1.0000 0.1097563335
H   H97       1.0  0.21230  0.88240  0.15110  1.0000 0.0929630671
H   H98       1.0  0.78770  0.38240  0.34890  1.0000 0.0929630671
H   H99       1.0  0.78770  0.11760  0.84890  1.0000 0.0929630671
H   H100      1.0  0.21230  0.61760  0.65110  1.0000 0.0929630671
H   H101      1.0  0.25540  0.81320  0.18420  1.0000 0.1007330992
H   H102      1.0  0.74460  0.31320  0.31580  1.0000 0.1007330992
H   H103      1.0  0.74460  0.18680  0.81580  1.0000 0.1007330992
H   H104      1.0  0.25540  0.68680  0.68420  1.0000 0.1007330992
H   H105      1.0  0.35940  0.94490  0.20600  1.0000 0.1097563335
H   H106      1.0  0.64060  0.44490  0.29400  1.0000 0.1097563335
H   H107      1.0  0.64060  0.05510  0.79400  1.0000 0.1097563335
H   H108      1.0  0.35940  0.55510  0.70600  1.0000 0.1097563335
H   H109      1.0  0.45820  0.12360  0.18740  1.0000 0.1291772982
H   H110      1.0  0.54180  0.62360  0.31260  1.0000 0.1291772982
H   H111      1.0  0.54180  0.87640  0.81260  1.0000 0.1291772982
H   H112      1.0  0.45820  0.37640  0.68740  1.0000 0.1291772982
H   H113      1.0  0.52830  0.02160  0.19230  1.0000 0.1215761492
H   H114      1.0  0.47170  0.52160  0.30770  1.0000 0.1215761492
H   H115      1.0  0.47170  0.97840  0.80770  1.0000 0.1215761492
H   H116      1.0  0.52830  0.47840  0.69230  1.0000 0.1215761492
H   H117      1.0  0.52460  0.09320  0.15820  1.0000 0.1215761492
H   H118      1.0  0.47540  0.59320  0.34180  1.0000 0.1215761492
H   H119      1.0  0.47540  0.90680  0.84180  1.0000 0.1215761492
H   H120      1.0  0.52460  0.40680  0.65820  1.0000 0.1215761492
H   H121      1.0  0.29930  0.00680  0.11380  1.0000 0.1291772982
H   H122      1.0  0.70070  0.50680  0.38620  1.0000 0.1291772982
H   H123      1.0  0.70070  0.99320  0.88620  1.0000 0.1291772982
H   H124      1.0  0.29930  0.49320  0.61380  1.0000 0.1291772982
H   H125      1.0  0.33490  0.11970  0.13010  1.0000 0.1291772982
H   H126      1.0  0.66510  0.61970  0.36990  1.0000 0.1291772982
H   H127      1.0  0.66510  0.88030  0.86990  1.0000 0.1291772982
H   H128      1.0  0.33490  0.38030  0.63010  1.0000 0.1291772982
H   H129      1.0  0.40370  0.05300  0.10800  1.0000 0.1291772982
H   H130      1.0  0.59630  0.55300  0.39200  1.0000 0.1291772982
H   H131      1.0  0.59630  0.94700  0.89200  1.0000 0.1291772982
H   H132      1.0  0.40370  0.44700  0.60800  1.0000 0.1291772982
H   H133      1.0  0.53770  0.89230  0.18560  1.0000 0.1097563335
H   H134      1.0  0.46230  0.39230  0.31440  1.0000 0.1097563335
H   H135      1.0  0.46230  0.10770  0.81440  1.0000 0.1097563335
H   H136      1.0  0.53770  0.60770  0.68560  1.0000 0.1097563335
H   H137      1.0  0.46350  0.79590  0.18890  1.0000 0.1097563335
H   H138      1.0  0.53650  0.29590  0.31110  1.0000 0.1097563335
H   H139      1.0  0.53650  0.20410  0.81110  1.0000 0.1097563335
H   H140      1.0  0.46350  0.70410  0.68890  1.0000 0.1097563335
H   H141      1.0  0.54430  0.78580  0.16330  1.0000 0.1215761492
H   H142      1.0  0.45570  0.28580  0.33670  1.0000 0.1215761492
H   H143      1.0  0.45570  0.21420  0.83670  1.0000 0.1215761492
H   H144      1.0  0.54430  0.71420  0.66330  1.0000 0.1215761492
H   H145      1.0  0.10130  0.31470  0.06030  1.0000 0.1007330992
H   H146      1.0  0.89870  0.81470  0.43970  1.0000 0.1007330992
H   H147      1.0  0.89870  0.68530  0.93970  1.0000 0.1007330992
H   H148      1.0  0.10130  0.18530  0.56030  1.0000 0.1007330992
H   H149      1.0  0.20410  0.22090  0.10260  1.0000 0.1007330992
H   H150      1.0  0.79590  0.72090  0.39740  1.0000 0.1007330992
H   H151      1.0  0.79590  0.77910  0.89740  1.0000 0.1007330992
H   H152      1.0  0.20410  0.27910  0.60260  1.0000 0.1007330992
H   H153      1.0  0.20870  0.31730  0.12990  1.0000 0.0814666557
H   H154      1.0  0.79130  0.81730  0.37010  1.0000 0.0814666557
H   H155      1.0  0.79130  0.68270  0.87010  1.0000 0.0814666557
H   H156      1.0  0.20870  0.18270  0.62990  1.0000 0.0814666557
H   H157      1.0  0.35160  0.37550  0.11290  1.0000 0.1097563335
H   H158      1.0  0.64840  0.87550  0.38710  1.0000 0.1097563335
H   H159      1.0  0.64840  0.62450  0.88710  1.0000 0.1097563335
H   H160      1.0  0.35160  0.12450  0.61290  1.0000 0.1097563335
H   H161      1.0  0.34880  0.27630  0.08630  1.0000 0.0929630671
H   H162      1.0  0.65120  0.77630  0.41370  1.0000 0.0929630671
H   H163      1.0  0.65120  0.72370  0.91370  1.0000 0.0929630671
H   H164      1.0  0.34880  0.22370  0.58630  1.0000 0.0929630671
H   H165      1.0  0.32370  0.36050  0.02040  1.0000 0.1215761492
H   H166      1.0  0.67630  0.86050  0.47960  1.0000 0.1215761492
H   H167      1.0  0.67630  0.63950  0.97960  1.0000 0.1215761492
H   H168      1.0  0.32370  0.13950  0.52040  1.0000 0.1215761492
H   H169      1.0  0.31930  0.27650  0.05110  1.0000 0.1097563335
H   H170      1.0  0.68070  0.77650  0.44890  1.0000 0.1097563335
H   H171      1.0  0.68070  0.72350  0.94890  1.0000 0.1097563335
H   H172      1.0  0.31930  0.22350  0.55110  1.0000 0.1097563335
H   H173      1.0  0.22140  0.31140  0.02740  1.0000 0.1097563335
H   H174      1.0  0.77860  0.81140  0.47260  1.0000 0.1097563335
H   H175      1.0  0.77860  0.68860  0.97260  1.0000 0.1097563335
H   H176      1.0  0.22140  0.18860  0.52740  1.0000 0.1097563335
H   H177      1.0  0.22450  0.60740  0.09110  1.0000 0.1215761492
H   H178      1.0  0.77550  0.10740  0.40890  1.0000 0.1215761492
H   H179      1.0  0.77550  0.39260  0.90890  1.0000 0.1215761492
H   H180      1.0  0.22450  0.89260  0.59110  1.0000 0.1215761492
H   H181      1.0  0.11960  0.57370  0.10050  1.0000 0.1215761492
H   H182      1.0  0.88040  0.07370  0.39950  1.0000 0.1215761492
H   H183      1.0  0.88040  0.42630  0.89950  1.0000 0.1215761492
H   H184      1.0  0.11960  0.92630  0.60050  1.0000 0.1215761492
H   H185      1.0  0.21570  0.52020  0.12060  1.0000 0.1291772982
H   H186      1.0  0.78430  0.02020  0.37940  1.0000 0.1291772982
H   H187      1.0  0.78430  0.47980  0.87940  1.0000 0.1291772982
H   H188      1.0  0.21570  0.97980  0.62060  1.0000 0.1291772982
H   H189      1.0  0.06120  0.47080  0.03200  1.0000 0.1291772982
H   H190      1.0  0.93880  0.97080  0.46800  1.0000 0.1291772982
H   H191      1.0  0.93880  0.52920  0.96800  1.0000 0.1291772982
H   H192      1.0  0.06120  0.02920  0.53200  1.0000 0.1291772982
H   H193      1.0  0.11060  0.58420  0.04190  1.0000 0.1291772982
H   H194      1.0  0.88940  0.08420  0.45810  1.0000 0.1291772982
H   H195      1.0  0.88940  0.41580  0.95810  1.0000 0.1291772982
H   H196      1.0  0.11060  0.91580  0.54190  1.0000 0.1291772982
H   H197      1.0  0.16220  0.50160  0.01870  1.0000 0.1291772982
H   H198      1.0  0.83780  0.00160  0.48130  1.0000 0.1291772982
H   H199      1.0  0.83780  0.49840  0.98130  1.0000 0.1291772982
H   H200      1.0  0.16220  0.99840  0.51870  1.0000 0.1291772982
C   C1        1.0  0.94020  0.03230  0.31260  1.0000 0.0705184048
C   C2        1.0  0.05980  0.53230  0.18740  1.0000 0.0705184048
C   C3        1.0  0.05980  0.96770  0.68740  1.0000 0.0705184048
C   C4        1.0  0.94020  0.46770  0.81260  1.0000 0.0705184048
C   C5        1.0  0.88970  0.08590  0.28360  1.0000 -0.1630564349
C   C6        1.0  0.11030  0.58590  0.21640  1.0000 -0.1630564349
C   C7        1.0  0.11030  0.91410  0.71640  1.0000 -0.1630564349
C   C8        1.0  0.88970  0.41410  0.78360  1.0000 -0.1630564349
C   C9        1.0  0.93600  0.12310  0.25690  1.0000 0.0705184048
C   C10       1.0  0.06400  0.62310  0.24310  1.0000 0.0705184048
C   C11       1.0  0.06400  0.87690  0.74310  1.0000 0.0705184048
C   C12       1.0  0.93600  0.37690  0.75690  1.0000 0.0705184048
C   C13       1.0  0.03820  0.10020  0.25910  1.0000 -0.1860855685
C   C14       1.0  0.96180  0.60020  0.24090  1.0000 -0.1860855685
C   C15       1.0  0.96180  0.89980  0.74090  1.0000 -0.1860855685
C   C16       1.0  0.03820  0.39980  0.75910  1.0000 -0.1860855685
C   C17       1.0  0.08400  0.04740  0.28840  1.0000 0.0705184048
C   C18       1.0  0.91600  0.54740  0.21160  1.0000 0.0705184048
C   C19       1.0  0.91600  0.95260  0.71160  1.0000 0.0705184048
C   C20       1.0  0.08400  0.45260  0.78840  1.0000 0.0705184048
C   C21       1.0  0.88560  0.18530  0.22710  1.0000 0.2599747462
C   C22       1.0  0.11440  0.68530  0.27290  1.0000 0.2599747462
C   C23       1.0  0.11440  0.81470  0.77290  1.0000 0.2599747462
C   C24       1.0  0.88560  0.31470  0.72710  1.0000 0.2599747462
C   C25       1.0  0.78170  0.28520  0.19770  1.0000 0.23165801
C   C26       1.0  0.21830  0.78520  0.30230  1.0000 0.23165801
C   C27       1.0  0.21830  0.71480  0.80230  1.0000 0.23165801
C   C28       1.0  0.78170  0.21480  0.69770  1.0000 0.23165801
C   C29       1.0  0.69510  0.35630  0.18440  1.0000 0.1660600735
C   C30       1.0  0.30490  0.85630  0.31560  1.0000 0.1660600735
C   C31       1.0  0.30490  0.64370  0.81560  1.0000 0.1660600735
C   C32       1.0  0.69510  0.14370  0.68440  1.0000 0.1660600735
C   C33       1.0  0.60020  0.34730  0.19370  1.0000 -0.1478112692
C   C34       1.0  0.39980  0.84730  0.30630  1.0000 -0.1478112692
C   C35       1.0  0.39980  0.65270  0.80630  1.0000 -0.1478112692
C   C36       1.0  0.60020  0.15270  0.69370  1.0000 -0.1478112692
C   C37       1.0  0.53030  0.41710  0.17760  1.0000 -0.0352039037
C   C38       1.0  0.46970  0.91710  0.32240  1.0000 -0.0352039037
C   C39       1.0  0.46970  0.58290  0.82240  1.0000 -0.0352039037
C   C40       1.0  0.53030  0.08290  0.67760  1.0000 -0.0352039037
C   C41       1.0  0.55190  0.49190  0.15350  1.0000 -0.1427935192
C   C42       1.0  0.44810  0.99190  0.34650  1.0000 -0.1427935192
C   C43       1.0  0.44810  0.50810  0.84650  1.0000 -0.1427935192
C   C44       1.0  0.55190  0.00810  0.65350  1.0000 -0.1427935192
C   C45       1.0  0.64710  0.49840  0.14630  1.0000 0.1597441902
C   C46       1.0  0.35290  0.99840  0.35370  1.0000 0.1597441902
C   C47       1.0  0.35290  0.50160  0.85370  1.0000 0.1597441902
C   C48       1.0  0.64710  0.00160  0.64630  1.0000 0.1597441902
C   C49       1.0  0.68480  0.57790  0.12220  1.0000 0.243266212
C   C50       1.0  0.31520  0.07790  0.37780  1.0000 0.243266212
C   C51       1.0  0.31520  0.42210  0.87780  1.0000 0.243266212
C   C52       1.0  0.68480  0.92210  0.62220  1.0000 0.243266212
C   C53       1.0  0.78740  0.67130  0.09800  1.0000 0.2945413796
C   C54       1.0  0.21260  0.17130  0.40200  1.0000 0.2945413796
C   C55       1.0  0.21260  0.32870  0.90200  1.0000 0.2945413796
C   C56       1.0  0.78740  0.82870  0.59800  1.0000 0.2945413796
C   C57       1.0  0.87860  0.72000  0.08690  1.0000 0.058208002
C   C58       1.0  0.12140  0.22000  0.41310  1.0000 0.058208002
C   C59       1.0  0.12140  0.28000  0.91310  1.0000 0.058208002
C   C60       1.0  0.87860  0.78000  0.58690  1.0000 0.058208002
C   C61       1.0  0.96230  0.73080  0.11050  1.0000 -0.1795938839
C   C62       1.0  0.03770  0.23080  0.38950  1.0000 -0.1795938839
C   C63       1.0  0.03770  0.26920  0.88950  1.0000 -0.1795938839
C   C64       1.0  0.96230  0.76920  0.61050  1.0000 -0.1795938839
C   C65       1.0  0.04100  0.78820  0.09830  1.0000 0.0705184048
C   C66       1.0  0.95900  0.28820  0.40170  1.0000 0.0705184048
C   C67       1.0  0.95900  0.21180  0.90170  1.0000 0.0705184048
C   C68       1.0  0.04100  0.71180  0.59830  1.0000 0.0705184048
C   C69       1.0  0.95740  0.81590  0.04470  1.0000 0.058208002
C   C70       1.0  0.04260  0.31590  0.45530  1.0000 0.0533585875
C   C71       1.0  0.04260  0.18410  0.95530  1.0000 0.0533585875
C   C72       1.0  0.95740  0.68410  0.54470  1.0000 0.058208002
C   C73       1.0  0.87730  0.76360  0.05360  1.0000 -0.1989646546
C   C74       1.0  0.12270  0.26360  0.44640  1.0000 -0.1989646546
C   C75       1.0  0.12270  0.23640  0.94640  1.0000 -0.1989646546
C   C76       1.0  0.87730  0.73640  0.55360  1.0000 -0.1989646546
C   C77       1.0  0.29960  0.75480  0.89650  1.0000 0.0533585875
C   C78       1.0  0.70040  0.25480  0.60350  1.0000 0.0533585875
C   C79       1.0  0.70040  0.24520  0.10350  1.0000 0.0533585875
C   C80       1.0  0.29960  0.74520  0.39650  1.0000 0.0533585875
C   C81       1.0  0.37760  0.79890  0.91850  1.0000 -0.1795938839
C   C82       1.0  0.62240  0.29890  0.58150  1.0000 -0.1795938839
C   C83       1.0  0.62240  0.20110  0.08150  1.0000 -0.1795938839
C   C84       1.0  0.37760  0.70110  0.41850  1.0000 -0.1795938839
C   C85       1.0  0.39300  0.76360  0.95370  1.0000 0.0814666557
C   C86       1.0  0.60700  0.26360  0.54630  1.0000 0.0814666557
C   C87       1.0  0.60700  0.23640  0.04630  1.0000 0.0814666557
C   C88       1.0  0.39300  0.73640  0.45370  1.0000 0.0814666557
C   C89       1.0  0.32770  0.68890  0.96410  1.0000 -0.1714298245
C   C90       1.0  0.67230  0.18890  0.53590  1.0000 -0.1714298245
C   C91       1.0  0.67230  0.31110  0.03590  1.0000 -0.1714298245
C   C92       1.0  0.32770  0.81110  0.46410  1.0000 -0.1714298245
C   C93       1.0  0.25130  0.64930  0.93990  1.0000 0.0814666557
C   C94       1.0  0.74870  0.14930  0.56010  1.0000 0.0814666557
C   C95       1.0  0.74870  0.35070  0.06010  1.0000 0.0814666557
C   C96       1.0  0.25130  0.85070  0.43990  1.0000 0.0814666557
C   C97       1.0  0.47580  0.81140  0.97750  1.0000 0.2599747462
C   C98       1.0  0.52420  0.31140  0.52250  1.0000 0.2599747462
C   C99       1.0  0.52420  0.18860  0.02250  1.0000 0.2599747462
C   C100      1.0  0.47580  0.68860  0.47750  1.0000 0.2599747462
C   C101      1.0  0.59410  0.91250  0.99580  1.0000 0.243266212
C   C102      1.0  0.40590  0.41250  0.50420  1.0000 0.243266212
C   C103      1.0  0.40590  0.08750  0.00420  1.0000 0.243266212
C   C104      1.0  0.59410  0.58750  0.49580  1.0000 0.243266212
C   C105      1.0  0.67590  0.99370  0.99990  1.0000 0.1660600735
C   C106      1.0  0.32410  0.49370  0.50010  1.0000 0.1660600735
C   C107      1.0  0.32410  0.00630  0.00010  1.0000 0.1660600735
C   C108      1.0  0.67590  0.50630  0.49990  1.0000 0.1660600735
C   C109      1.0  0.70160  0.05880  0.97350  1.0000 -0.1427935192
C   C110      1.0  0.29840  0.55880  0.52650  1.0000 -0.1427935192
C   C111      1.0  0.29840  0.94120  0.02650  1.0000 -0.1427935192
C   C112      1.0  0.70160  0.44120  0.47350  1.0000 -0.1427935192
C   C113      1.0  0.78150  0.12840  0.98080  1.0000 -0.0259537155
C   C114      1.0  0.21850  0.62840  0.51920  1.0000 -0.0259537155
C   C115      1.0  0.21850  0.87160  0.01920  1.0000 -0.0259537155
C   C116      1.0  0.78150  0.37160  0.48080  1.0000 -0.0259537155
C   C117      1.0  0.83520  0.12810  0.01460  1.0000 -0.1714298245
C   C118      1.0  0.16480  0.62810  0.48540  1.0000 -0.1714298245
C   C119      1.0  0.16480  0.87190  0.98540  1.0000 -0.1714298245
C   C120      1.0  0.83520  0.37190  0.51460  1.0000 -0.1714298245
C   C121      1.0  0.80470  0.06190  0.04000  1.0000 0.1497600087
C   C122      1.0  0.19530  0.56190  0.46000  1.0000 0.1497600087
C   C123      1.0  0.19530  0.93810  0.96000  1.0000 0.1497600087
C   C124      1.0  0.80470  0.43810  0.54000  1.0000 0.1497600087
C   C125      1.0  0.85090  0.05670  0.07670  1.0000 0.2054143457
C   C126      1.0  0.14910  0.55670  0.42330  1.0000 0.2054143457
C   C127      1.0  0.14910  0.94330  0.92330  1.0000 0.2054143457
C   C128      1.0  0.85090  0.44330  0.57670  1.0000 0.2054143457
C   C129      1.0  0.87820  0.00670  0.12930  1.0000 0.2675032972
C   C130      1.0  0.12180  0.50670  0.37070  1.0000 0.2675032972
C   C131      1.0  0.12180  0.99330  0.87070  1.0000 0.2675032972
C   C132      1.0  0.87820  0.49330  0.62930  1.0000 0.2675032972
C   C133      1.0  0.87570  0.94940  0.16370  1.0000 0.0533585875
C   C134      1.0  0.12430  0.44940  0.33630  1.0000 0.0533585875
C   C135      1.0  0.12430  0.05060  0.83630  1.0000 0.0533585875
C   C136      1.0  0.87570  0.55060  0.66370  1.0000 0.0533585875
C   C137      1.0  0.96320  0.92630  0.18490  1.0000 -0.1989646546
C   C138      1.0  0.03680  0.42630  0.31510  1.0000 -0.1989646546
C   C139      1.0  0.03680  0.07370  0.81510  1.0000 -0.1989646546
C   C140      1.0  0.96320  0.57370  0.68490  1.0000 -0.1989646546
C   C141      1.0  0.95890  0.87540  0.21650  1.0000 0.058208002
C   C142      1.0  0.04110  0.37540  0.28350  1.0000 0.058208002
C   C143      1.0  0.04110  0.12460  0.78350  1.0000 0.058208002
C   C144      1.0  0.95890  0.62460  0.71650  1.0000 0.058208002
C   C145      1.0  0.79040  0.86870  0.20720  1.0000 0.0705184048
C   C146      1.0  0.20960  0.36870  0.29280  1.0000 0.0705184048
C   C147      1.0  0.20960  0.13130  0.79280  1.0000 0.0705184048
C   C148      1.0  0.79040  0.63130  0.70720  1.0000 0.0705184048
C   C149      1.0  0.78820  0.92090  0.17540  1.0000 -0.1714298245
C   C150      1.0  0.21180  0.42090  0.32460  1.0000 -0.1714298245
C   C151      1.0  0.21180  0.07910  0.82460  1.0000 -0.1714298245
C   C152      1.0  0.78820  0.57910  0.67540  1.0000 -0.1714298245
C   C153      1.0  0.49470  0.87390  0.11620  1.0000 0.5744058175
C   C154      1.0  0.50530  0.37390  0.38380  1.0000 0.5744058175
C   C155      1.0  0.50530  0.12610  0.88380  1.0000 0.5744058175
C   C156      1.0  0.49470  0.62610  0.61620  1.0000 0.5744058175
C   C157      1.0  0.43820  0.87690  0.14760  1.0000 0.0082120448
C   C158      1.0  0.56180  0.37690  0.35240  1.0000 0.0082120448
C   C159      1.0  0.56180  0.12310  0.85240  1.0000 0.0082120448
C   C160      1.0  0.43820  0.62310  0.64760  1.0000 0.0082120448
C   C161      1.0  0.34320  0.80590  0.14440  1.0000 -0.2077743912
C   C162      1.0  0.65680  0.30590  0.35560  1.0000 -0.2077743912
C   C163      1.0  0.65680  0.19410  0.85560  1.0000 -0.2077743912
C   C164      1.0  0.34320  0.69410  0.64440  1.0000 -0.2077743912
C   C165      1.0  0.27280  0.86210  0.16600  1.0000 -0.1795938839
C   C166      1.0  0.72720  0.36210  0.33400  1.0000 -0.1795938839
C   C167      1.0  0.72720  0.13790  0.83400  1.0000 -0.1795938839
C   C168      1.0  0.27280  0.63790  0.66600  1.0000 -0.1795938839
C   C169      1.0  0.32410  0.96360  0.18280  1.0000 -0.1795938839
C   C170      1.0  0.67590  0.46360  0.31720  1.0000 -0.1795938839
C   C171      1.0  0.67590  0.03640  0.81720  1.0000 -0.1795938839
C   C172      1.0  0.32410  0.53640  0.68280  1.0000 -0.1795938839
C   C173      1.0  0.25450  0.05950  0.18650  1.0000 0.5805866404
C   C174      1.0  0.74550  0.55950  0.31350  1.0000 0.5805866404
C   C175      1.0  0.74550  0.94050  0.81350  1.0000 0.5805866404
C   C176      1.0  0.25450  0.44050  0.68650  1.0000 0.5805866404
C   C177      1.0  0.40140  0.99190  0.15700  1.0000 0.23165801
C   C178      1.0  0.59860  0.49190  0.34300  1.0000 0.23165801
C   C179      1.0  0.59860  0.00810  0.84300  1.0000 0.23165801
C   C180      1.0  0.40140  0.50810  0.65700  1.0000 0.23165801
C   C181      1.0  0.48620  0.06450  0.17550  1.0000 -0.4490451681
C   C182      1.0  0.51380  0.56450  0.32450  1.0000 -0.4490451681
C   C183      1.0  0.51380  0.93550  0.82450  1.0000 -0.4490451681
C   C184      1.0  0.48620  0.43550  0.67550  1.0000 -0.4490451681
C   C185      1.0  0.35580  0.04780  0.12430  1.0000 -0.4859484376
C   C186      1.0  0.64420  0.54780  0.37570  1.0000 -0.4859484376
C   C187      1.0  0.64420  0.95220  0.87570  1.0000 -0.4859484376
C   C188      1.0  0.35580  0.45220  0.62430  1.0000 -0.4859484376
C   C189      1.0  0.50000  0.83500  0.17300  1.0000 -0.3692618327
C   C190      1.0  0.50000  0.33500  0.32700  1.0000 -0.3692618327
C   C191      1.0  0.50000  0.16500  0.82700  1.0000 -0.3692618327
C   C192      1.0  0.50000  0.66500  0.67300  1.0000 -0.3692618327
C   C193      1.0  0.03510  0.37930  0.10130  1.0000 0.5805866404
C   C194      1.0  0.96490  0.87930  0.39870  1.0000 0.5805866404
C   C195      1.0  0.96490  0.62070  0.89870  1.0000 0.5805866404
C   C196      1.0  0.03510  0.12070  0.60130  1.0000 0.5805866404
C   C197      1.0  0.12250  0.35890  0.08130  1.0000 -0.1795938839
C   C198      1.0  0.87750  0.85890  0.41870  1.0000 -0.1795938839
C   C199      1.0  0.87750  0.64110  0.91870  1.0000 -0.1795938839
C   C200      1.0  0.12250  0.14110  0.58130  1.0000 -0.1795938839
C   C201      1.0  0.21090  0.29940  0.10530  1.0000 -0.1795938839
C   C202      1.0  0.78910  0.79940  0.39470  1.0000 -0.1795938839
C   C203      1.0  0.78910  0.70060  0.89470  1.0000 -0.1795938839
C   C204      1.0  0.21090  0.20060  0.60530  1.0000 -0.1795938839
C   C205      1.0  0.31140  0.33730  0.09400  1.0000 -0.1989646546
C   C206      1.0  0.68860  0.83730  0.40600  1.0000 -0.1989646546
C   C207      1.0  0.68860  0.66270  0.90600  1.0000 -0.1989646546
C   C208      1.0  0.31140  0.16270  0.59400  1.0000 -0.1989646546
C   C209      1.0  0.27330  0.41990  0.06100  1.0000 0.0283870671
C   C210      1.0  0.72670  0.91990  0.43900  1.0000 0.0283870671
C   C211      1.0  0.72670  0.58010  0.93900  1.0000 0.0283870671
C   C212      1.0  0.27330  0.08010  0.56100  1.0000 0.0283870671
C   C213      1.0  0.28530  0.33580  0.03830  1.0000 -0.400844069
C   C214      1.0  0.71470  0.83580  0.46170  1.0000 -0.400844069
C   C215      1.0  0.71470  0.66420  0.96170  1.0000 -0.400844069
C   C216      1.0  0.28530  0.16420  0.53830  1.0000 -0.400844069
C   C217      1.0  0.35170  0.50990  0.05920  1.0000 0.5031265748
C   C218      1.0  0.64830  0.00990  0.44080  1.0000 0.5031265748
C   C219      1.0  0.64830  0.49010  0.94080  1.0000 0.5031265748
C   C220      1.0  0.35170  0.99010  0.55920  1.0000 0.5031265748
C   C221      1.0  0.17960  0.45900  0.07100  1.0000 0.2016100047
C   C222      1.0  0.82040  0.95900  0.42900  1.0000 0.2016100047
C   C223      1.0  0.82040  0.54100  0.92900  1.0000 0.2016100047
C   C224      1.0  0.17960  0.04100  0.57100  1.0000 0.2016100047
C   C225      1.0  0.18540  0.54810  0.09830  1.0000 -0.4594158063
C   C226      1.0  0.81460  0.04810  0.40170  1.0000 -0.4594158063
C   C227      1.0  0.81460  0.45190  0.90170  1.0000 -0.4594158063
C   C228      1.0  0.18540  0.95190  0.59830  1.0000 -0.4594158063
C   C229      1.0  0.12320  0.50850  0.03790  1.0000 -0.4490451681
C   C230      1.0  0.87680  0.00850  0.46210  1.0000 -0.4490451681
C   C231      1.0  0.87680  0.49150  0.96210  1.0000 -0.4490451681
C   C232      1.0  0.12320  0.99150  0.53790  1.0000 -0.4490451681
N   N1        1.0  0.03760  0.01360  0.31480  1.0000 -0.2309285717
N   N2        1.0  0.96240  0.51360  0.18520  1.0000 -0.2309285717
N   N3        1.0  0.96240  0.98640  0.68520  1.0000 -0.2309285717
N   N4        1.0  0.03760  0.48640  0.81480  1.0000 -0.2309285717
N   N5        1.0  0.92580  0.21490  0.19844  1.0000 -0.2500850246
N   N6        1.0  0.07420  0.71490  0.30156  1.0000 -0.2500850246
N   N7        1.0  0.07420  0.78510  0.80156  1.0000 -0.2500850246
N   N8        1.0  0.92580  0.28510  0.69844  1.0000 -0.2500850246
N   N9        1.0  0.85820  0.27910  0.17915  1.0000 -0.2500850246
N   N10       1.0  0.14180  0.77910  0.32085  1.0000 -0.2500850246
N   N11       1.0  0.14180  0.72090  0.82085  1.0000 -0.2500850246
N   N12       1.0  0.85820  0.22090  0.67915  1.0000 -0.2500850246
N   N13       1.0  0.79330  0.22730  0.22752  1.0000 -0.400844069
N   N14       1.0  0.20670  0.72730  0.27248  1.0000 -0.400844069
N   N15       1.0  0.20670  0.77270  0.77248  1.0000 -0.400844069
N   N16       1.0  0.79330  0.27270  0.72752  1.0000 -0.400844069
N   N17       1.0  0.71760  0.43080  0.16123  1.0000 -0.3200361447
N   N18       1.0  0.28240  0.93080  0.33877  1.0000 -0.3200361447
N   N19       1.0  0.28240  0.56920  0.83877  1.0000 -0.3200361447
N   N20       1.0  0.71760  0.06920  0.66123  1.0000 -0.3200361447
N   N21       1.0  0.63160  0.65520  0.10350  1.0000 -0.2586763319
N   N22       1.0  0.36840  0.15520  0.39650  1.0000 -0.2586763319
N   N23       1.0  0.36840  0.34480  0.89650  1.0000 -0.2586763319
N   N24       1.0  0.63160  0.84480  0.60350  1.0000 -0.2586763319
N   N25       1.0  0.70060  0.71670  0.08830  1.0000 -0.2586763319
N   N26       1.0  0.29940  0.21670  0.41170  1.0000 -0.2586763319
N   N27       1.0  0.29940  0.28330  0.91170  1.0000 -0.2586763319
N   N28       1.0  0.70060  0.78330  0.58830  1.0000 -0.2586763319
N   N29       1.0  0.78390  0.58480  0.11880  1.0000 -0.400844069
N   N30       1.0  0.21610  0.08480  0.38120  1.0000 -0.400844069
N   N31       1.0  0.21610  0.41520  0.88120  1.0000 -0.400844069
N   N32       1.0  0.78390  0.91520  0.61880  1.0000 -0.400844069
N   N33       1.0  0.03910  0.83270  0.06670  1.0000 -0.2418078368
N   N34       1.0  0.96090  0.33270  0.43330  1.0000 -0.2418078368
N   N35       1.0  0.96090  0.16730  0.93330  1.0000 -0.2418078368
N   N36       1.0  0.03910  0.66730  0.56670  1.0000 -0.2418078368
N   N37       1.0  0.87380  0.84620  0.22830  1.0000 -0.2500850246
N   N38       1.0  0.12620  0.34620  0.27170  1.0000 -0.2500850246
N   N39       1.0  0.12620  0.15380  0.77170  1.0000 -0.2500850246
N   N40       1.0  0.87380  0.65380  0.72830  1.0000 -0.2500850246
N   N41       1.0  0.94790  0.08060  0.12420  1.0000 -0.2500850246
N   N42       1.0  0.05210  0.58060  0.37580  1.0000 -0.2500850246
N   N43       1.0  0.05210  0.91940  0.87580  1.0000 -0.2500850246
N   N44       1.0  0.94790  0.41940  0.62420  1.0000 -0.2500850246
N   N45       1.0  0.93110  0.11250  0.08980  1.0000 -0.2500850246
N   N46       1.0  0.06890  0.61250  0.41020  1.0000 -0.2500850246
N   N47       1.0  0.06890  0.88750  0.91020  1.0000 -0.2500850246
N   N48       1.0  0.93110  0.38750  0.58980  1.0000 -0.2500850246
N   N49       1.0  0.81450  0.98970  0.10028  1.0000 -0.4203960465
N   N50       1.0  0.18550  0.48970  0.39972  1.0000 -0.4203960465
N   N51       1.0  0.18550  0.01030  0.89972  1.0000 -0.4203960465
N   N52       1.0  0.81450  0.51030  0.60028  1.0000 -0.4203960465
N   N53       1.0  0.72470  0.99560  0.03254  1.0000 -0.3361441212
N   N54       1.0  0.27530  0.49560  0.46746  1.0000 -0.3361441212
N   N55       1.0  0.27530  0.00440  0.96746  1.0000 -0.3361441212
N   N56       1.0  0.72470  0.50440  0.53254  1.0000 -0.3361441212
N   N57       1.0  0.57840  0.85220  0.02319  1.0000 -0.2586763319
N   N58       1.0  0.42160  0.35220  0.47681  1.0000 -0.2586763319
N   N59       1.0  0.42160  0.14780  0.97681  1.0000 -0.2586763319
N   N60       1.0  0.57840  0.64780  0.52319  1.0000 -0.2586763319
N   N61       1.0  0.49930  0.78470  0.01162  1.0000 -0.2500850246
N   N62       1.0  0.50070  0.28470  0.48838  1.0000 -0.2500850246
N   N63       1.0  0.50070  0.21530  0.98838  1.0000 -0.2500850246
N   N64       1.0  0.49930  0.71530  0.51162  1.0000 -0.2500850246
N   N65       1.0  0.53240  0.89200  0.96620  1.0000 -0.4050316827
N   N66       1.0  0.46760  0.39200  0.53380  1.0000 -0.4050316827
N   N67       1.0  0.46760  0.10800  0.03380  1.0000 -0.4050316827
N   N68       1.0  0.53240  0.60800  0.46620  1.0000 -0.4050316827
N   N69       1.0  0.23560  0.68050  0.90640  1.0000 -0.2418078368
N   N70       1.0  0.76440  0.18050  0.59360  1.0000 -0.2418078368
N   N71       1.0  0.76440  0.31950  0.09360  1.0000 -0.2418078368
N   N72       1.0  0.23560  0.81950  0.40640  1.0000 -0.2418078368
O   O1        1.0  0.03000  0.33140  0.13029  1.0000 -0.5586325841
O   O2        1.0  0.97000  0.83140  0.36971  1.0000 -0.5586325841
O   O3        1.0  0.97000  0.66860  0.86971  1.0000 -0.5586325841
O   O4        1.0  0.03000  0.16860  0.63029  1.0000 -0.5586325841
O   O5        1.0  0.96910  0.44660  0.09060  1.0000 -0.5254366861
O   O6        1.0  0.03090  0.94660  0.40940  1.0000 -0.5254366861
O   O7        1.0  0.03090  0.55340  0.90940  1.0000 -0.5254366861
O   O8        1.0  0.96910  0.05340  0.59060  1.0000 -0.5254366861
O   O9        1.0  0.40620  0.53890  0.08440  1.0000 -0.4594158063
O   O10       1.0  0.59380  0.03890  0.41560  1.0000 -0.4594158063
O   O11       1.0  0.59380  0.46110  0.91560  1.0000 -0.4594158063
O   O12       1.0  0.40620  0.96110  0.58440  1.0000 -0.4594158063
O   O13       1.0  0.36240  0.54790  0.03170  1.0000 -0.4433376582
O   O14       1.0  0.63760  0.04790  0.46830  1.0000 -0.4433376582
O   O15       1.0  0.63760  0.45210  0.96830  1.0000 -0.4433376582
O   O16       1.0  0.36240  0.95210  0.53170  1.0000 -0.4433376582
O   O17       1.0  0.57650  0.92790  0.11805  1.0000 -0.5471884327
O   O18       1.0  0.42350  0.42790  0.38195  1.0000 -0.5471884327
O   O19       1.0  0.42350  0.07210  0.88195  1.0000 -0.5471884327
O   O20       1.0  0.57650  0.57210  0.61805  1.0000 -0.5471884327
O   O21       1.0  0.45980  0.82140  0.08975  1.0000 -0.5365122871
O   O22       1.0  0.54020  0.32140  0.41025  1.0000 -0.5365122871
O   O23       1.0  0.54020  0.17860  0.91025  1.0000 -0.5365122871
O   O24       1.0  0.45980  0.67860  0.58975  1.0000 -0.5365122871
O   O25       1.0  0.16920  0.05730  0.16940  1.0000 -0.5831418799
O   O26       1.0  0.83080  0.55730  0.33060  1.0000 -0.5831418799
O   O27       1.0  0.83080  0.94270  0.83060  1.0000 -0.5831418799
O   O28       1.0  0.16920  0.44270  0.66940  1.0000 -0.5831418799
O   O29       1.0  0.28430  0.13250  0.20700  1.0000 -0.5831418799
O   O30       1.0  0.71570  0.63250  0.29300  1.0000 -0.5831418799
O   O31       1.0  0.71570  0.86750  0.79300  1.0000 -0.5831418799
O   O32       1.0  0.28430  0.36750  0.70700  1.0000 -0.5831418799
