# DDEC6 charges by PACMAN v1.1 (https://github.com/mtap-research/PACMAN-charge/)
data_2013[Cu][pto]3[ASR]1
_chemical_formula_sum              "Cu24 H336 C624 O96"
_cell_length_a       32.99
_cell_length_b       32.99
_cell_length_c       32.99
_cell_angle_alpha    90
_cell_angle_beta     90
_cell_angle_gamma    90

_symmetry_space_group_name_H-M    "P 1"
_symmetry_Int_Tables_number       1

loop_
  _symmetry_equiv_pos_as_xyz
  'x, y, z'

loop_
  _atom_site_type_symbol
  _atom_site_label
  _atom_site_symmetry_multiplicity
  _atom_site_fract_x
  _atom_site_fract_y
  _atom_site_fract_z
  _atom_site_occupancy
  _atom_site_charge
Cu  Cu1       1.0  0.00000  0.71026  0.50000  1.0000 0.8286176243
Cu  Cu2       1.0  0.00000  0.28974  0.50000  1.0000 0.8286176243
Cu  Cu3       1.0  0.28974  0.50000  0.00000  1.0000 0.8286176243
Cu  Cu4       1.0  0.71026  0.50000  0.00000  1.0000 0.8286176243
Cu  Cu5       1.0  0.50000  0.00000  0.28974  1.0000 0.8286176243
Cu  Cu6       1.0  0.50000  0.00000  0.71026  1.0000 0.8286176243
Cu  Cu7       1.0  0.78974  0.50000  0.00000  1.0000 0.8286176243
Cu  Cu8       1.0  0.21026  0.50000  0.00000  1.0000 0.8286176243
Cu  Cu9       1.0  0.00000  0.78974  0.50000  1.0000 0.8286176243
Cu  Cu10      1.0  0.00000  0.21026  0.50000  1.0000 0.8286176243
Cu  Cu11      1.0  0.50000  0.00000  0.78974  1.0000 0.8286176243
Cu  Cu12      1.0  0.50000  0.00000  0.21026  1.0000 0.8286176243
Cu  Cu13      1.0  0.71026  0.00000  0.50000  1.0000 0.8286176243
Cu  Cu14      1.0  0.28974  0.00000  0.50000  1.0000 0.8286176243
Cu  Cu15      1.0  0.50000  0.71026  0.00000  1.0000 0.8286176243
Cu  Cu16      1.0  0.50000  0.28974  0.00000  1.0000 0.8286176243
Cu  Cu17      1.0  0.00000  0.50000  0.71026  1.0000 0.8286176243
Cu  Cu18      1.0  0.00000  0.50000  0.28974  1.0000 0.8286176243
Cu  Cu19      1.0  0.50000  0.78974  0.00000  1.0000 0.8286176243
Cu  Cu20      1.0  0.50000  0.21026  0.00000  1.0000 0.8286176243
Cu  Cu21      1.0  0.21026  0.00000  0.50000  1.0000 0.8286176243
Cu  Cu22      1.0  0.78974  0.00000  0.50000  1.0000 0.8286176243
Cu  Cu23      1.0  0.00000  0.50000  0.21026  1.0000 0.8286176243
Cu  Cu24      1.0  0.00000  0.50000  0.78974  1.0000 0.8286176243
H   H1        1.0  0.89380  0.69290  0.43040  1.0000 0.129353819
H   H2        1.0  0.10620  0.30710  0.43040  1.0000 0.129353819
H   H3        1.0  0.10620  0.69290  0.56960  1.0000 0.129353819
H   H4        1.0  0.89380  0.30710  0.56960  1.0000 0.129353819
H   H5        1.0  0.30710  0.43040  0.10620  1.0000 0.129353819
H   H6        1.0  0.69290  0.56960  0.10620  1.0000 0.129353819
H   H7        1.0  0.69290  0.43040  0.89380  1.0000 0.129353819
H   H8        1.0  0.30710  0.56960  0.89380  1.0000 0.129353819
H   H9        1.0  0.56960  0.89380  0.30710  1.0000 0.129353819
H   H10       1.0  0.56960  0.10620  0.69290  1.0000 0.129353819
H   H11       1.0  0.43040  0.10620  0.30710  1.0000 0.129353819
H   H12       1.0  0.43040  0.89380  0.69290  1.0000 0.129353819
H   H13       1.0  0.80710  0.39380  0.06960  1.0000 0.1356385468
H   H14       1.0  0.19290  0.60620  0.06960  1.0000 0.1356385468
H   H15       1.0  0.80710  0.60620  0.93040  1.0000 0.129353819
H   H16       1.0  0.19290  0.39380  0.93040  1.0000 0.129353819
H   H17       1.0  0.06960  0.80710  0.39380  1.0000 0.1356385468
H   H18       1.0  0.93040  0.19290  0.39380  1.0000 0.129353819
H   H19       1.0  0.06960  0.19290  0.60620  1.0000 0.1356385468
H   H20       1.0  0.93040  0.80710  0.60620  1.0000 0.129353819
H   H21       1.0  0.39380  0.06960  0.80710  1.0000 0.1356385468
H   H22       1.0  0.39380  0.93040  0.19290  1.0000 0.129353819
H   H23       1.0  0.60620  0.93040  0.80710  1.0000 0.129353819
H   H24       1.0  0.60620  0.06960  0.19290  1.0000 0.1356385468
H   H25       1.0  0.83570  0.81250  0.38740  1.0000 0.1194241274
H   H26       1.0  0.16430  0.18750  0.38740  1.0000 0.1194241274
H   H27       1.0  0.16430  0.81250  0.61260  1.0000 0.1194241274
H   H28       1.0  0.83570  0.18750  0.61260  1.0000 0.1194241274
H   H29       1.0  0.18750  0.38740  0.16430  1.0000 0.1194241274
H   H30       1.0  0.81250  0.61260  0.16430  1.0000 0.1194241274
H   H31       1.0  0.81250  0.38740  0.83570  1.0000 0.1194241274
H   H32       1.0  0.18750  0.61260  0.83570  1.0000 0.1194241274
H   H33       1.0  0.61260  0.83570  0.18750  1.0000 0.1194241274
H   H34       1.0  0.61260  0.16430  0.81250  1.0000 0.1194241274
H   H35       1.0  0.38740  0.16430  0.18750  1.0000 0.1194241274
H   H36       1.0  0.38740  0.83570  0.81250  1.0000 0.1194241274
H   H37       1.0  0.68750  0.33570  0.11260  1.0000 0.1194241274
H   H38       1.0  0.31250  0.66430  0.11260  1.0000 0.1194241274
H   H39       1.0  0.68750  0.66430  0.88740  1.0000 0.1194241274
H   H40       1.0  0.31250  0.33570  0.88740  1.0000 0.1194241274
H   H41       1.0  0.11260  0.68750  0.33570  1.0000 0.1194241274
H   H42       1.0  0.88740  0.31250  0.33570  1.0000 0.1194241274
H   H43       1.0  0.11260  0.31250  0.66430  1.0000 0.1194241274
H   H44       1.0  0.88740  0.68750  0.66430  1.0000 0.1194241274
H   H45       1.0  0.33570  0.11260  0.68750  1.0000 0.1194241274
H   H46       1.0  0.33570  0.88740  0.31250  1.0000 0.1194241274
H   H47       1.0  0.66430  0.88740  0.68750  1.0000 0.1194241274
H   H48       1.0  0.66430  0.11260  0.31250  1.0000 0.1194241274
H   H49       1.0  0.89380  0.81300  0.42840  1.0000 0.129353819
H   H50       1.0  0.10620  0.18700  0.42840  1.0000 0.129353819
H   H51       1.0  0.10620  0.81300  0.57160  1.0000 0.129353819
H   H52       1.0  0.89380  0.18700  0.57160  1.0000 0.129353819
H   H53       1.0  0.18700  0.42840  0.10620  1.0000 0.129353819
H   H54       1.0  0.81300  0.57160  0.10620  1.0000 0.129353819
H   H55       1.0  0.81300  0.42840  0.89380  1.0000 0.129353819
H   H56       1.0  0.18700  0.57160  0.89380  1.0000 0.129353819
H   H57       1.0  0.57160  0.89380  0.18700  1.0000 0.129353819
H   H58       1.0  0.57160  0.10620  0.81300  1.0000 0.129353819
H   H59       1.0  0.42840  0.10620  0.18700  1.0000 0.129353819
H   H60       1.0  0.42840  0.89380  0.81300  1.0000 0.129353819
H   H61       1.0  0.68700  0.39380  0.07160  1.0000 0.129353819
H   H62       1.0  0.31300  0.60620  0.07160  1.0000 0.129353819
H   H63       1.0  0.68700  0.60620  0.92840  1.0000 0.129353819
H   H64       1.0  0.31300  0.39380  0.92840  1.0000 0.129353819
H   H65       1.0  0.07160  0.68700  0.39380  1.0000 0.129353819
H   H66       1.0  0.92840  0.31300  0.39380  1.0000 0.129353819
H   H67       1.0  0.07160  0.31300  0.60620  1.0000 0.129353819
H   H68       1.0  0.92840  0.68700  0.60620  1.0000 0.129353819
H   H69       1.0  0.39380  0.07160  0.68700  1.0000 0.129353819
H   H70       1.0  0.39380  0.92840  0.31300  1.0000 0.129353819
H   H71       1.0  0.60620  0.92840  0.68700  1.0000 0.129353819
H   H72       1.0  0.60620  0.07160  0.31300  1.0000 0.129353819
H   H73       1.0  0.83900  0.65440  0.39240  1.0000 0.1194241274
H   H74       1.0  0.16100  0.34560  0.39240  1.0000 0.1194241274
H   H75       1.0  0.16100  0.65440  0.60760  1.0000 0.1194241274
H   H76       1.0  0.83900  0.34560  0.60760  1.0000 0.1194241274
H   H77       1.0  0.34560  0.39240  0.16100  1.0000 0.1194241274
H   H78       1.0  0.65440  0.60760  0.16100  1.0000 0.1194241274
H   H79       1.0  0.65440  0.39240  0.83900  1.0000 0.1194241274
H   H80       1.0  0.34560  0.60760  0.83900  1.0000 0.1194241274
H   H81       1.0  0.60760  0.83900  0.34560  1.0000 0.1194241274
H   H82       1.0  0.60760  0.16100  0.65440  1.0000 0.1194241274
H   H83       1.0  0.39240  0.16100  0.34560  1.0000 0.1194241274
H   H84       1.0  0.39240  0.83900  0.65440  1.0000 0.1194241274
H   H85       1.0  0.84560  0.33900  0.10760  1.0000 0.1194241274
H   H86       1.0  0.15440  0.66100  0.10760  1.0000 0.1194241274
H   H87       1.0  0.84560  0.66100  0.89240  1.0000 0.1194241274
H   H88       1.0  0.15440  0.33900  0.89240  1.0000 0.1194241274
H   H89       1.0  0.10760  0.84560  0.33900  1.0000 0.1194241274
H   H90       1.0  0.89240  0.15440  0.33900  1.0000 0.1194241274
H   H91       1.0  0.10760  0.15440  0.66100  1.0000 0.1194241274
H   H92       1.0  0.89240  0.84560  0.66100  1.0000 0.1194241274
H   H93       1.0  0.33900  0.10760  0.84560  1.0000 0.1194241274
H   H94       1.0  0.33900  0.89240  0.15440  1.0000 0.1194241274
H   H95       1.0  0.66100  0.89240  0.84560  1.0000 0.1194241274
H   H96       1.0  0.66100  0.10760  0.15440  1.0000 0.1194241274
H   H97       1.0  0.78500  0.65490  0.34950  1.0000 0.1194241274
H   H98       1.0  0.21500  0.34510  0.34950  1.0000 0.1194241274
H   H99       1.0  0.21500  0.65490  0.65050  1.0000 0.1194241274
H   H100      1.0  0.78500  0.34510  0.65050  1.0000 0.1194241274
H   H101      1.0  0.34510  0.34950  0.21500  1.0000 0.1194241274
H   H102      1.0  0.65490  0.65050  0.21500  1.0000 0.1194241274
H   H103      1.0  0.65490  0.34950  0.78500  1.0000 0.1194241274
H   H104      1.0  0.34510  0.65050  0.78500  1.0000 0.1194241274
H   H105      1.0  0.65050  0.78500  0.34510  1.0000 0.1194241274
H   H106      1.0  0.65050  0.21500  0.65490  1.0000 0.1194241274
H   H107      1.0  0.34950  0.21500  0.34510  1.0000 0.1194241274
H   H108      1.0  0.34950  0.78500  0.65490  1.0000 0.1194241274
H   H109      1.0  0.84510  0.28500  0.15050  1.0000 0.1194241274
H   H110      1.0  0.15490  0.71500  0.15050  1.0000 0.1194241274
H   H111      1.0  0.84510  0.71500  0.84950  1.0000 0.1194241274
H   H112      1.0  0.15490  0.28500  0.84950  1.0000 0.1194241274
H   H113      1.0  0.15050  0.84510  0.28500  1.0000 0.1194241274
H   H114      1.0  0.84950  0.15490  0.28500  1.0000 0.1194241274
H   H115      1.0  0.15050  0.15490  0.71500  1.0000 0.1194241274
H   H116      1.0  0.84950  0.84510  0.71500  1.0000 0.1194241274
H   H117      1.0  0.28500  0.15050  0.84510  1.0000 0.1194241274
H   H118      1.0  0.28500  0.84950  0.15490  1.0000 0.1194241274
H   H119      1.0  0.71500  0.84950  0.84510  1.0000 0.1194241274
H   H120      1.0  0.71500  0.15050  0.15490  1.0000 0.1194241274
H   H121      1.0  0.78530  0.77500  0.34640  1.0000 0.1194241274
H   H122      1.0  0.21470  0.22500  0.34640  1.0000 0.1194241274
H   H123      1.0  0.21470  0.77500  0.65360  1.0000 0.1194241274
H   H124      1.0  0.78530  0.22500  0.65360  1.0000 0.1194241274
H   H125      1.0  0.22500  0.34640  0.21470  1.0000 0.1194241274
H   H126      1.0  0.77500  0.65360  0.21470  1.0000 0.1194241274
H   H127      1.0  0.77500  0.34640  0.78530  1.0000 0.1194241274
H   H128      1.0  0.22500  0.65360  0.78530  1.0000 0.1194241274
H   H129      1.0  0.65360  0.78530  0.22500  1.0000 0.1194241274
H   H130      1.0  0.65360  0.21470  0.77500  1.0000 0.1194241274
H   H131      1.0  0.34640  0.21470  0.22500  1.0000 0.1194241274
H   H132      1.0  0.34640  0.78530  0.77500  1.0000 0.1194241274
H   H133      1.0  0.72500  0.28530  0.15360  1.0000 0.1194241274
H   H134      1.0  0.27500  0.71470  0.15360  1.0000 0.1194241274
H   H135      1.0  0.72500  0.71470  0.84640  1.0000 0.1194241274
H   H136      1.0  0.27500  0.28530  0.84640  1.0000 0.1194241274
H   H137      1.0  0.15360  0.72500  0.28530  1.0000 0.1194241274
H   H138      1.0  0.84640  0.27500  0.28530  1.0000 0.1194241274
H   H139      1.0  0.15360  0.27500  0.71470  1.0000 0.1194241274
H   H140      1.0  0.84640  0.72500  0.71470  1.0000 0.1194241274
H   H141      1.0  0.28530  0.15360  0.72500  1.0000 0.1194241274
H   H142      1.0  0.28530  0.84640  0.27500  1.0000 0.1194241274
H   H143      1.0  0.71470  0.84640  0.72500  1.0000 0.1194241274
H   H144      1.0  0.71470  0.15360  0.27500  1.0000 0.1194241274
H   H145      1.0  0.76560  0.66580  0.28330  1.0000 0.1098582299
H   H146      1.0  0.23440  0.33420  0.28330  1.0000 0.1098582299
H   H147      1.0  0.23440  0.66580  0.71670  1.0000 0.1098582299
H   H148      1.0  0.76560  0.33420  0.71670  1.0000 0.1098582299
H   H149      1.0  0.33420  0.28330  0.23440  1.0000 0.1098582299
H   H150      1.0  0.66580  0.71670  0.23440  1.0000 0.1098582299
H   H151      1.0  0.66580  0.28330  0.76560  1.0000 0.1098582299
H   H152      1.0  0.33420  0.71670  0.76560  1.0000 0.1098582299
H   H153      1.0  0.71670  0.76560  0.33420  1.0000 0.1098582299
H   H154      1.0  0.71670  0.23440  0.66580  1.0000 0.1098582299
H   H155      1.0  0.28330  0.23440  0.33420  1.0000 0.1098582299
H   H156      1.0  0.28330  0.76560  0.66580  1.0000 0.1098582299
H   H157      1.0  0.83420  0.26560  0.21670  1.0000 0.1098582299
H   H158      1.0  0.16580  0.73440  0.21670  1.0000 0.1098582299
H   H159      1.0  0.83420  0.73440  0.78330  1.0000 0.1098582299
H   H160      1.0  0.16580  0.26560  0.78330  1.0000 0.1098582299
H   H161      1.0  0.21670  0.83420  0.26560  1.0000 0.1098582299
H   H162      1.0  0.78330  0.16580  0.26560  1.0000 0.1098582299
H   H163      1.0  0.21670  0.16580  0.73440  1.0000 0.1098582299
H   H164      1.0  0.78330  0.83420  0.73440  1.0000 0.1098582299
H   H165      1.0  0.26560  0.21670  0.83420  1.0000 0.1098582299
H   H166      1.0  0.26560  0.78330  0.16580  1.0000 0.1098582299
H   H167      1.0  0.73440  0.78330  0.83420  1.0000 0.1098582299
H   H168      1.0  0.73440  0.21670  0.16580  1.0000 0.1098582299
H   H169      1.0  0.69290  0.10620  0.43040  1.0000 0.129353819
H   H170      1.0  0.30710  0.89380  0.43040  1.0000 0.129353819
H   H171      1.0  0.69290  0.89380  0.56960  1.0000 0.129353819
H   H172      1.0  0.30710  0.10620  0.56960  1.0000 0.129353819
H   H173      1.0  0.43040  0.69290  0.10620  1.0000 0.129353819
H   H174      1.0  0.56960  0.30710  0.10620  1.0000 0.129353819
H   H175      1.0  0.43040  0.30710  0.89380  1.0000 0.129353819
H   H176      1.0  0.56960  0.69290  0.89380  1.0000 0.129353819
H   H177      1.0  0.10620  0.43040  0.69290  1.0000 0.129353819
H   H178      1.0  0.10620  0.56960  0.30710  1.0000 0.129353819
H   H179      1.0  0.89380  0.56960  0.69290  1.0000 0.129353819
H   H180      1.0  0.89380  0.43040  0.30710  1.0000 0.129353819
H   H181      1.0  0.60620  0.80710  0.06960  1.0000 0.1356385468
H   H182      1.0  0.39380  0.19290  0.06960  1.0000 0.1356385468
H   H183      1.0  0.39380  0.80710  0.93040  1.0000 0.129353819
H   H184      1.0  0.60620  0.19290  0.93040  1.0000 0.129353819
H   H185      1.0  0.19290  0.06960  0.39380  1.0000 0.1356385468
H   H186      1.0  0.80710  0.93040  0.39380  1.0000 0.129353819
H   H187      1.0  0.80710  0.06960  0.60620  1.0000 0.1356385468
H   H188      1.0  0.19290  0.93040  0.60620  1.0000 0.129353819
H   H189      1.0  0.93040  0.60620  0.19290  1.0000 0.129353819
H   H190      1.0  0.93040  0.39380  0.80710  1.0000 0.129353819
H   H191      1.0  0.06960  0.39380  0.19290  1.0000 0.1356385468
H   H192      1.0  0.06960  0.60620  0.80710  1.0000 0.1356385468
H   H193      1.0  0.81250  0.16430  0.38740  1.0000 0.1194241274
H   H194      1.0  0.18750  0.83570  0.38740  1.0000 0.1194241274
H   H195      1.0  0.81250  0.83570  0.61260  1.0000 0.1194241274
H   H196      1.0  0.18750  0.16430  0.61260  1.0000 0.1194241274
H   H197      1.0  0.38740  0.81250  0.16430  1.0000 0.1194241274
H   H198      1.0  0.61260  0.18750  0.16430  1.0000 0.1194241274
H   H199      1.0  0.38740  0.18750  0.83570  1.0000 0.1194241274
H   H200      1.0  0.61260  0.81250  0.83570  1.0000 0.1194241274
H   H201      1.0  0.16430  0.38740  0.81250  1.0000 0.1194241274
H   H202      1.0  0.16430  0.61260  0.18750  1.0000 0.1194241274
H   H203      1.0  0.83570  0.61260  0.81250  1.0000 0.1194241274
H   H204      1.0  0.83570  0.38740  0.18750  1.0000 0.1194241274
H   H205      1.0  0.66430  0.68750  0.11260  1.0000 0.1194241274
H   H206      1.0  0.33570  0.31250  0.11260  1.0000 0.1194241274
H   H207      1.0  0.33570  0.68750  0.88740  1.0000 0.1194241274
H   H208      1.0  0.66430  0.31250  0.88740  1.0000 0.1194241274
H   H209      1.0  0.31250  0.11260  0.33570  1.0000 0.1194241274
H   H210      1.0  0.68750  0.88740  0.33570  1.0000 0.1194241274
H   H211      1.0  0.68750  0.11260  0.66430  1.0000 0.1194241274
H   H212      1.0  0.31250  0.88740  0.66430  1.0000 0.1194241274
H   H213      1.0  0.88740  0.66430  0.31250  1.0000 0.1194241274
H   H214      1.0  0.88740  0.33570  0.68750  1.0000 0.1194241274
H   H215      1.0  0.11260  0.33570  0.31250  1.0000 0.1194241274
H   H216      1.0  0.11260  0.66430  0.68750  1.0000 0.1194241274
H   H217      1.0  0.81300  0.10620  0.42840  1.0000 0.129353819
H   H218      1.0  0.18700  0.89380  0.42840  1.0000 0.129353819
H   H219      1.0  0.81300  0.89380  0.57160  1.0000 0.129353819
H   H220      1.0  0.18700  0.10620  0.57160  1.0000 0.129353819
H   H221      1.0  0.42840  0.81300  0.10620  1.0000 0.129353819
H   H222      1.0  0.57160  0.18700  0.10620  1.0000 0.129353819
H   H223      1.0  0.42840  0.18700  0.89380  1.0000 0.129353819
H   H224      1.0  0.57160  0.81300  0.89380  1.0000 0.129353819
H   H225      1.0  0.10620  0.42840  0.81300  1.0000 0.129353819
H   H226      1.0  0.10620  0.57160  0.18700  1.0000 0.129353819
H   H227      1.0  0.89380  0.57160  0.81300  1.0000 0.129353819
H   H228      1.0  0.89380  0.42840  0.18700  1.0000 0.129353819
H   H229      1.0  0.60620  0.68700  0.07160  1.0000 0.129353819
H   H230      1.0  0.39380  0.31300  0.07160  1.0000 0.129353819
H   H231      1.0  0.39380  0.68700  0.92840  1.0000 0.129353819
H   H232      1.0  0.60620  0.31300  0.92840  1.0000 0.129353819
H   H233      1.0  0.31300  0.07160  0.39380  1.0000 0.129353819
H   H234      1.0  0.68700  0.92840  0.39380  1.0000 0.129353819
H   H235      1.0  0.68700  0.07160  0.60620  1.0000 0.129353819
H   H236      1.0  0.31300  0.92840  0.60620  1.0000 0.129353819
H   H237      1.0  0.92840  0.60620  0.31300  1.0000 0.129353819
H   H238      1.0  0.92840  0.39380  0.68700  1.0000 0.129353819
H   H239      1.0  0.07160  0.39380  0.31300  1.0000 0.129353819
H   H240      1.0  0.07160  0.60620  0.68700  1.0000 0.129353819
H   H241      1.0  0.65440  0.16100  0.39240  1.0000 0.1194241274
H   H242      1.0  0.34560  0.83900  0.39240  1.0000 0.1194241274
H   H243      1.0  0.65440  0.83900  0.60760  1.0000 0.1194241274
H   H244      1.0  0.34560  0.16100  0.60760  1.0000 0.1194241274
H   H245      1.0  0.39240  0.65440  0.16100  1.0000 0.1194241274
H   H246      1.0  0.60760  0.34560  0.16100  1.0000 0.1194241274
H   H247      1.0  0.39240  0.34560  0.83900  1.0000 0.1194241274
H   H248      1.0  0.60760  0.65440  0.83900  1.0000 0.1194241274
H   H249      1.0  0.16100  0.39240  0.65440  1.0000 0.1194241274
H   H250      1.0  0.16100  0.60760  0.34560  1.0000 0.1194241274
H   H251      1.0  0.83900  0.60760  0.65440  1.0000 0.1194241274
H   H252      1.0  0.83900  0.39240  0.34560  1.0000 0.1194241274
H   H253      1.0  0.66100  0.84560  0.10760  1.0000 0.1194241274
H   H254      1.0  0.33900  0.15440  0.10760  1.0000 0.1194241274
H   H255      1.0  0.33900  0.84560  0.89240  1.0000 0.1194241274
H   H256      1.0  0.66100  0.15440  0.89240  1.0000 0.1194241274
H   H257      1.0  0.15440  0.10760  0.33900  1.0000 0.1194241274
H   H258      1.0  0.84560  0.89240  0.33900  1.0000 0.1194241274
H   H259      1.0  0.84560  0.10760  0.66100  1.0000 0.1194241274
H   H260      1.0  0.15440  0.89240  0.66100  1.0000 0.1194241274
H   H261      1.0  0.89240  0.66100  0.15440  1.0000 0.1194241274
H   H262      1.0  0.89240  0.33900  0.84560  1.0000 0.1194241274
H   H263      1.0  0.10760  0.33900  0.15440  1.0000 0.1194241274
H   H264      1.0  0.10760  0.66100  0.84560  1.0000 0.1194241274
H   H265      1.0  0.65490  0.21500  0.34950  1.0000 0.1194241274
H   H266      1.0  0.34510  0.78500  0.34950  1.0000 0.1194241274
H   H267      1.0  0.65490  0.78500  0.65050  1.0000 0.1194241274
H   H268      1.0  0.34510  0.21500  0.65050  1.0000 0.1194241274
H   H269      1.0  0.34950  0.65490  0.21500  1.0000 0.1194241274
H   H270      1.0  0.65050  0.34510  0.21500  1.0000 0.1194241274
H   H271      1.0  0.34950  0.34510  0.78500  1.0000 0.1194241274
H   H272      1.0  0.65050  0.65490  0.78500  1.0000 0.1194241274
H   H273      1.0  0.21500  0.34950  0.65490  1.0000 0.1194241274
H   H274      1.0  0.21500  0.65050  0.34510  1.0000 0.1194241274
H   H275      1.0  0.78500  0.65050  0.65490  1.0000 0.1194241274
H   H276      1.0  0.78500  0.34950  0.34510  1.0000 0.1194241274
H   H277      1.0  0.71500  0.84510  0.15050  1.0000 0.1194241274
H   H278      1.0  0.28500  0.15490  0.15050  1.0000 0.1194241274
H   H279      1.0  0.28500  0.84510  0.84950  1.0000 0.1194241274
H   H280      1.0  0.71500  0.15490  0.84950  1.0000 0.1194241274
H   H281      1.0  0.15490  0.15050  0.28500  1.0000 0.1194241274
H   H282      1.0  0.84510  0.84950  0.28500  1.0000 0.1194241274
H   H283      1.0  0.84510  0.15050  0.71500  1.0000 0.1194241274
H   H284      1.0  0.15490  0.84950  0.71500  1.0000 0.1194241274
H   H285      1.0  0.84950  0.71500  0.15490  1.0000 0.1194241274
H   H286      1.0  0.84950  0.28500  0.84510  1.0000 0.1194241274
H   H287      1.0  0.15050  0.28500  0.15490  1.0000 0.1194241274
H   H288      1.0  0.15050  0.71500  0.84510  1.0000 0.1194241274
H   H289      1.0  0.77500  0.21470  0.34640  1.0000 0.1194241274
H   H290      1.0  0.22500  0.78530  0.34640  1.0000 0.1194241274
H   H291      1.0  0.77500  0.78530  0.65360  1.0000 0.1194241274
H   H292      1.0  0.22500  0.21470  0.65360  1.0000 0.1194241274
H   H293      1.0  0.34640  0.77500  0.21470  1.0000 0.1194241274
H   H294      1.0  0.65360  0.22500  0.21470  1.0000 0.1194241274
H   H295      1.0  0.34640  0.22500  0.78530  1.0000 0.1194241274
H   H296      1.0  0.65360  0.77500  0.78530  1.0000 0.1194241274
H   H297      1.0  0.21470  0.34640  0.77500  1.0000 0.1194241274
H   H298      1.0  0.21470  0.65360  0.22500  1.0000 0.1194241274
H   H299      1.0  0.78530  0.65360  0.77500  1.0000 0.1194241274
H   H300      1.0  0.78530  0.34640  0.22500  1.0000 0.1194241274
H   H301      1.0  0.71470  0.72500  0.15360  1.0000 0.1194241274
H   H302      1.0  0.28530  0.27500  0.15360  1.0000 0.1194241274
H   H303      1.0  0.28530  0.72500  0.84640  1.0000 0.1194241274
H   H304      1.0  0.71470  0.27500  0.84640  1.0000 0.1194241274
H   H305      1.0  0.27500  0.15360  0.28530  1.0000 0.1194241274
H   H306      1.0  0.72500  0.84640  0.28530  1.0000 0.1194241274
H   H307      1.0  0.72500  0.15360  0.71470  1.0000 0.1194241274
H   H308      1.0  0.27500  0.84640  0.71470  1.0000 0.1194241274
H   H309      1.0  0.84640  0.71470  0.27500  1.0000 0.1194241274
H   H310      1.0  0.84640  0.28530  0.72500  1.0000 0.1194241274
H   H311      1.0  0.15360  0.28530  0.27500  1.0000 0.1194241274
H   H312      1.0  0.15360  0.71470  0.72500  1.0000 0.1194241274
H   H313      1.0  0.66580  0.23440  0.28330  1.0000 0.1098582299
H   H314      1.0  0.33420  0.76560  0.28330  1.0000 0.1098582299
H   H315      1.0  0.66580  0.76560  0.71670  1.0000 0.1098582299
H   H316      1.0  0.33420  0.23440  0.71670  1.0000 0.1098582299
H   H317      1.0  0.28330  0.66580  0.23440  1.0000 0.1098582299
H   H318      1.0  0.71670  0.33420  0.23440  1.0000 0.1098582299
H   H319      1.0  0.28330  0.33420  0.76560  1.0000 0.1098582299
H   H320      1.0  0.71670  0.66580  0.76560  1.0000 0.1098582299
H   H321      1.0  0.23440  0.28330  0.66580  1.0000 0.1098582299
H   H322      1.0  0.23440  0.71670  0.33420  1.0000 0.1098582299
H   H323      1.0  0.76560  0.71670  0.66580  1.0000 0.1098582299
H   H324      1.0  0.76560  0.28330  0.33420  1.0000 0.1098582299
H   H325      1.0  0.73440  0.83420  0.21670  1.0000 0.1098582299
H   H326      1.0  0.26560  0.16580  0.21670  1.0000 0.1098582299
H   H327      1.0  0.26560  0.83420  0.78330  1.0000 0.1098582299
H   H328      1.0  0.73440  0.16580  0.78330  1.0000 0.1098582299
H   H329      1.0  0.16580  0.21670  0.26560  1.0000 0.1098582299
H   H330      1.0  0.83420  0.78330  0.26560  1.0000 0.1098582299
H   H331      1.0  0.83420  0.21670  0.73440  1.0000 0.1098582299
H   H332      1.0  0.16580  0.78330  0.73440  1.0000 0.1098582299
H   H333      1.0  0.78330  0.73440  0.16580  1.0000 0.1098582299
H   H334      1.0  0.78330  0.26560  0.83420  1.0000 0.1098582299
H   H335      1.0  0.21670  0.26560  0.16580  1.0000 0.1098582299
H   H336      1.0  0.21670  0.73440  0.83420  1.0000 0.1098582299
C   C1        1.0  0.93632  0.75197  0.46057  1.0000 0.5734617679
C   C2        1.0  0.06368  0.24803  0.46057  1.0000 0.5734617679
C   C3        1.0  0.06368  0.75197  0.53943  1.0000 0.5734617679
C   C4        1.0  0.93632  0.24803  0.53943  1.0000 0.5734617679
C   C5        1.0  0.24803  0.46057  0.06368  1.0000 0.5734617679
C   C6        1.0  0.75197  0.53943  0.06368  1.0000 0.5734617679
C   C7        1.0  0.75197  0.46057  0.93632  1.0000 0.5734617679
C   C8        1.0  0.24803  0.53943  0.93632  1.0000 0.5734617679
C   C9        1.0  0.53943  0.93632  0.24803  1.0000 0.5734617679
C   C10       1.0  0.53943  0.06368  0.75197  1.0000 0.5734617679
C   C11       1.0  0.46057  0.06368  0.24803  1.0000 0.5734617679
C   C12       1.0  0.46057  0.93632  0.75197  1.0000 0.5734617679
C   C13       1.0  0.74803  0.43632  0.03943  1.0000 0.5734617679
C   C14       1.0  0.25197  0.56368  0.03943  1.0000 0.5734617679
C   C15       1.0  0.74803  0.56368  0.96057  1.0000 0.5734617679
C   C16       1.0  0.25197  0.43632  0.96057  1.0000 0.5734617679
C   C17       1.0  0.03943  0.74803  0.43632  1.0000 0.5734617679
C   C18       1.0  0.96057  0.25197  0.43632  1.0000 0.5734617679
C   C19       1.0  0.03943  0.25197  0.56368  1.0000 0.5734617679
C   C20       1.0  0.96057  0.74803  0.56368  1.0000 0.5734617679
C   C21       1.0  0.43632  0.03943  0.74803  1.0000 0.5734617679
C   C22       1.0  0.43632  0.96057  0.25197  1.0000 0.5734617679
C   C23       1.0  0.56368  0.96057  0.74803  1.0000 0.5734617679
C   C24       1.0  0.56368  0.03943  0.25197  1.0000 0.5734617679
C   C25       1.0  0.89854  0.75094  0.43294  1.0000 0.0033963095
C   C26       1.0  0.10146  0.24906  0.43294  1.0000 0.0033963095
C   C27       1.0  0.10146  0.75094  0.56706  1.0000 0.0033963095
C   C28       1.0  0.89854  0.24906  0.56706  1.0000 0.0033963095
C   C29       1.0  0.24906  0.43294  0.10146  1.0000 0.0033963095
C   C30       1.0  0.75094  0.56706  0.10146  1.0000 0.0033963095
C   C31       1.0  0.75094  0.43294  0.89854  1.0000 0.0033963095
C   C32       1.0  0.24906  0.56706  0.89854  1.0000 0.0033963095
C   C33       1.0  0.56706  0.89854  0.24906  1.0000 0.0033963095
C   C34       1.0  0.56706  0.10146  0.75094  1.0000 0.0033963095
C   C35       1.0  0.43294  0.10146  0.24906  1.0000 0.0033963095
C   C36       1.0  0.43294  0.89854  0.75094  1.0000 0.0033963095
C   C37       1.0  0.74906  0.39854  0.06706  1.0000 0.0033963095
C   C38       1.0  0.25094  0.60146  0.06706  1.0000 0.0033963095
C   C39       1.0  0.74906  0.60146  0.93294  1.0000 0.0033963095
C   C40       1.0  0.25094  0.39854  0.93294  1.0000 0.0033963095
C   C41       1.0  0.06706  0.74906  0.39854  1.0000 0.0033963095
C   C42       1.0  0.93294  0.25094  0.39854  1.0000 0.0033963095
C   C43       1.0  0.06706  0.25094  0.60146  1.0000 0.0033963095
C   C44       1.0  0.93294  0.74906  0.60146  1.0000 0.0033963095
C   C45       1.0  0.39854  0.06706  0.74906  1.0000 0.0033963095
C   C46       1.0  0.39854  0.93294  0.25094  1.0000 0.0033963095
C   C47       1.0  0.60146  0.93294  0.74906  1.0000 0.0033963095
C   C48       1.0  0.60146  0.06706  0.25094  1.0000 0.0033963095
C   C49       1.0  0.88237  0.71715  0.42160  1.0000 -0.1246486337
C   C50       1.0  0.11763  0.28285  0.42160  1.0000 -0.125917503
C   C51       1.0  0.11763  0.71715  0.57840  1.0000 -0.1246486337
C   C52       1.0  0.88237  0.28285  0.57840  1.0000 -0.125917503
C   C53       1.0  0.28285  0.42160  0.11763  1.0000 -0.125917503
C   C54       1.0  0.71715  0.57840  0.11763  1.0000 -0.1246486337
C   C55       1.0  0.71715  0.42160  0.88237  1.0000 -0.1246486337
C   C56       1.0  0.28285  0.57840  0.88237  1.0000 -0.125917503
C   C57       1.0  0.57840  0.88237  0.28285  1.0000 -0.125917503
C   C58       1.0  0.57840  0.11763  0.71715  1.0000 -0.1246486337
C   C59       1.0  0.42160  0.11763  0.28285  1.0000 -0.125917503
C   C60       1.0  0.42160  0.88237  0.71715  1.0000 -0.1246486337
C   C61       1.0  0.78285  0.38237  0.07840  1.0000 -0.125917503
C   C62       1.0  0.21715  0.61763  0.07840  1.0000 -0.125917503
C   C63       1.0  0.78285  0.61763  0.92160  1.0000 -0.125917503
C   C64       1.0  0.21715  0.38237  0.92160  1.0000 -0.125917503
C   C65       1.0  0.07840  0.78285  0.38237  1.0000 -0.125917503
C   C66       1.0  0.92160  0.21715  0.38237  1.0000 -0.125917503
C   C67       1.0  0.07840  0.21715  0.61763  1.0000 -0.125917503
C   C68       1.0  0.92160  0.78285  0.61763  1.0000 -0.125917503
C   C69       1.0  0.38237  0.07840  0.78285  1.0000 -0.125917503
C   C70       1.0  0.38237  0.92160  0.21715  1.0000 -0.125917503
C   C71       1.0  0.61763  0.92160  0.78285  1.0000 -0.125917503
C   C72       1.0  0.61763  0.07840  0.21715  1.0000 -0.125917503
C   C73       1.0  0.84710  0.71577  0.39560  1.0000 0.0633694688
C   C74       1.0  0.15290  0.28423  0.39560  1.0000 0.0633694688
C   C75       1.0  0.15290  0.71577  0.60440  1.0000 0.0633694688
C   C76       1.0  0.84710  0.28423  0.60440  1.0000 0.0633694688
C   C77       1.0  0.28423  0.39560  0.15290  1.0000 0.0633694688
C   C78       1.0  0.71577  0.60440  0.15290  1.0000 0.0633694688
C   C79       1.0  0.71577  0.39560  0.84710  1.0000 0.0633694688
C   C80       1.0  0.28423  0.60440  0.84710  1.0000 0.0633694688
C   C81       1.0  0.60440  0.84710  0.28423  1.0000 0.0633694688
C   C82       1.0  0.60440  0.15290  0.71577  1.0000 0.0633694688
C   C83       1.0  0.39560  0.15290  0.28423  1.0000 0.0633694688
C   C84       1.0  0.39560  0.84710  0.71577  1.0000 0.0633694688
C   C85       1.0  0.78423  0.34710  0.10440  1.0000 0.0633694688
C   C86       1.0  0.21577  0.65290  0.10440  1.0000 0.0633694688
C   C87       1.0  0.78423  0.65290  0.89560  1.0000 0.0633694688
C   C88       1.0  0.21577  0.34710  0.89560  1.0000 0.0633694688
C   C89       1.0  0.10440  0.78423  0.34710  1.0000 0.0633694688
C   C90       1.0  0.89560  0.21577  0.34710  1.0000 0.0633694688
C   C91       1.0  0.10440  0.21577  0.65290  1.0000 0.0633694688
C   C92       1.0  0.89560  0.78423  0.65290  1.0000 0.0633694688
C   C93       1.0  0.34710  0.10440  0.78423  1.0000 0.0633694688
C   C94       1.0  0.34710  0.89560  0.21577  1.0000 0.0633694688
C   C95       1.0  0.65290  0.89560  0.78423  1.0000 0.0633694688
C   C96       1.0  0.65290  0.10440  0.21577  1.0000 0.0633694688
C   C97       1.0  0.83134  0.75207  0.38203  1.0000 0.073282371
C   C98       1.0  0.16866  0.24793  0.38203  1.0000 0.073282371
C   C99       1.0  0.16866  0.75207  0.61797  1.0000 0.073282371
C   C100      1.0  0.83134  0.24793  0.61797  1.0000 0.073282371
C   C101      1.0  0.24793  0.38203  0.16866  1.0000 0.073282371
C   C102      1.0  0.75207  0.61797  0.16866  1.0000 0.073282371
C   C103      1.0  0.75207  0.38203  0.83134  1.0000 0.073282371
C   C104      1.0  0.24793  0.61797  0.83134  1.0000 0.073282371
C   C105      1.0  0.61797  0.83134  0.24793  1.0000 0.073282371
C   C106      1.0  0.61797  0.16866  0.75207  1.0000 0.073282371
C   C107      1.0  0.38203  0.16866  0.24793  1.0000 0.073282371
C   C108      1.0  0.38203  0.83134  0.75207  1.0000 0.073282371
C   C109      1.0  0.74793  0.33134  0.11797  1.0000 0.073282371
C   C110      1.0  0.25207  0.66866  0.11797  1.0000 0.073282371
C   C111      1.0  0.74793  0.66866  0.88203  1.0000 0.073282371
C   C112      1.0  0.25207  0.33134  0.88203  1.0000 0.073282371
C   C113      1.0  0.11797  0.74793  0.33134  1.0000 0.073282371
C   C114      1.0  0.88203  0.25207  0.33134  1.0000 0.073282371
C   C115      1.0  0.11797  0.25207  0.66866  1.0000 0.073282371
C   C116      1.0  0.88203  0.74793  0.66866  1.0000 0.073282371
C   C117      1.0  0.33134  0.11797  0.74793  1.0000 0.073282371
C   C118      1.0  0.33134  0.88203  0.25207  1.0000 0.073282371
C   C119      1.0  0.66866  0.88203  0.74793  1.0000 0.073282371
C   C120      1.0  0.66866  0.11797  0.25207  1.0000 0.073282371
C   C121      1.0  0.84763  0.78819  0.39519  1.0000 -0.1675025628
C   C122      1.0  0.15237  0.21181  0.39519  1.0000 -0.1675025628
C   C123      1.0  0.15237  0.78819  0.60481  1.0000 -0.1675025628
C   C124      1.0  0.84763  0.21181  0.60481  1.0000 -0.1675025628
C   C125      1.0  0.21181  0.39519  0.15237  1.0000 -0.1675025628
C   C126      1.0  0.78819  0.60481  0.15237  1.0000 -0.1675025628
C   C127      1.0  0.78819  0.39519  0.84763  1.0000 -0.1675025628
C   C128      1.0  0.21181  0.60481  0.84763  1.0000 -0.1675025628
C   C129      1.0  0.60481  0.84763  0.21181  1.0000 -0.1675025628
C   C130      1.0  0.60481  0.15237  0.78819  1.0000 -0.1675025628
C   C131      1.0  0.39519  0.15237  0.21181  1.0000 -0.1675025628
C   C132      1.0  0.39519  0.84763  0.78819  1.0000 -0.1675025628
C   C133      1.0  0.71181  0.34763  0.10481  1.0000 -0.1675025628
C   C134      1.0  0.28819  0.65237  0.10481  1.0000 -0.1675025628
C   C135      1.0  0.71181  0.65237  0.89519  1.0000 -0.1675025628
C   C136      1.0  0.28819  0.34763  0.89519  1.0000 -0.1675025628
C   C137      1.0  0.10481  0.71181  0.34763  1.0000 -0.1675025628
C   C138      1.0  0.89519  0.28819  0.34763  1.0000 -0.1675025628
C   C139      1.0  0.10481  0.28819  0.65237  1.0000 -0.1675025628
C   C140      1.0  0.89519  0.71181  0.65237  1.0000 -0.1675025628
C   C141      1.0  0.34763  0.10481  0.71181  1.0000 -0.1675025628
C   C142      1.0  0.34763  0.89519  0.28819  1.0000 -0.1675025628
C   C143      1.0  0.65237  0.89519  0.71181  1.0000 -0.1675025628
C   C144      1.0  0.65237  0.10481  0.28819  1.0000 -0.1675025628
C   C145      1.0  0.88214  0.78862  0.42033  1.0000 -0.0991917796
C   C146      1.0  0.11786  0.21138  0.42033  1.0000 -0.0991917796
C   C147      1.0  0.11786  0.78862  0.57967  1.0000 -0.0991917796
C   C148      1.0  0.88214  0.21138  0.57967  1.0000 -0.0991917796
C   C149      1.0  0.21138  0.42033  0.11786  1.0000 -0.0991917796
C   C150      1.0  0.78862  0.57967  0.11786  1.0000 -0.0991917796
C   C151      1.0  0.78862  0.42033  0.88214  1.0000 -0.0991917796
C   C152      1.0  0.21138  0.57967  0.88214  1.0000 -0.0991917796
C   C153      1.0  0.57967  0.88214  0.21138  1.0000 -0.0991917796
C   C154      1.0  0.57967  0.11786  0.78862  1.0000 -0.0991917796
C   C155      1.0  0.42033  0.11786  0.21138  1.0000 -0.0991917796
C   C156      1.0  0.42033  0.88214  0.78862  1.0000 -0.0991917796
C   C157      1.0  0.71138  0.38214  0.07967  1.0000 -0.0991917796
C   C158      1.0  0.28862  0.61786  0.07967  1.0000 -0.0991917796
C   C159      1.0  0.71138  0.61786  0.92033  1.0000 -0.0991917796
C   C160      1.0  0.28862  0.38214  0.92033  1.0000 -0.0991917796
C   C161      1.0  0.07967  0.71138  0.38214  1.0000 -0.0991917796
C   C162      1.0  0.92033  0.28862  0.38214  1.0000 -0.0991917796
C   C163      1.0  0.07967  0.28862  0.61786  1.0000 -0.0991917796
C   C164      1.0  0.92033  0.71138  0.61786  1.0000 -0.0991917796
C   C165      1.0  0.38214  0.07967  0.71138  1.0000 -0.0991917796
C   C166      1.0  0.38214  0.92033  0.28862  1.0000 -0.0991917796
C   C167      1.0  0.61786  0.92033  0.71138  1.0000 -0.0991917796
C   C168      1.0  0.61786  0.07967  0.28862  1.0000 -0.0991917796
C   C169      1.0  0.82877  0.67898  0.38307  1.0000 -0.1522289435
C   C170      1.0  0.17123  0.32102  0.38307  1.0000 -0.1522289435
C   C171      1.0  0.17123  0.67898  0.61693  1.0000 -0.1522289435
C   C172      1.0  0.82877  0.32102  0.61693  1.0000 -0.1522289435
C   C173      1.0  0.32102  0.38307  0.17123  1.0000 -0.1522289435
C   C174      1.0  0.67898  0.61693  0.17123  1.0000 -0.1522289435
C   C175      1.0  0.67898  0.38307  0.82877  1.0000 -0.1522289435
C   C176      1.0  0.32102  0.61693  0.82877  1.0000 -0.1522289435
C   C177      1.0  0.61693  0.82877  0.32102  1.0000 -0.1522289435
C   C178      1.0  0.61693  0.17123  0.67898  1.0000 -0.1522289435
C   C179      1.0  0.38307  0.17123  0.32102  1.0000 -0.1522289435
C   C180      1.0  0.38307  0.82877  0.67898  1.0000 -0.1522289435
C   C181      1.0  0.82102  0.32877  0.11693  1.0000 -0.1522289435
C   C182      1.0  0.17898  0.67123  0.11693  1.0000 -0.1522289435
C   C183      1.0  0.82102  0.67123  0.88307  1.0000 -0.1522289435
C   C184      1.0  0.17898  0.32877  0.88307  1.0000 -0.1522289435
C   C185      1.0  0.11693  0.82102  0.32877  1.0000 -0.1522289435
C   C186      1.0  0.88307  0.17898  0.32877  1.0000 -0.1522289435
C   C187      1.0  0.11693  0.17898  0.67123  1.0000 -0.1522289435
C   C188      1.0  0.88307  0.82102  0.67123  1.0000 -0.1522289435
C   C189      1.0  0.32877  0.11693  0.82102  1.0000 -0.1522289435
C   C190      1.0  0.32877  0.88307  0.17898  1.0000 -0.1522289435
C   C191      1.0  0.67123  0.88307  0.82102  1.0000 -0.1522289435
C   C192      1.0  0.67123  0.11693  0.17898  1.0000 -0.1522289435
C   C193      1.0  0.79650  0.67928  0.35756  1.0000 -0.1522289435
C   C194      1.0  0.20350  0.32072  0.35756  1.0000 -0.1522289435
C   C195      1.0  0.20350  0.67928  0.64244  1.0000 -0.1522289435
C   C196      1.0  0.79650  0.32072  0.64244  1.0000 -0.1522289435
C   C197      1.0  0.32072  0.35756  0.20350  1.0000 -0.1522289435
C   C198      1.0  0.67928  0.64244  0.20350  1.0000 -0.1522289435
C   C199      1.0  0.67928  0.35756  0.79650  1.0000 -0.1522289435
C   C200      1.0  0.32072  0.64244  0.79650  1.0000 -0.1522289435
C   C201      1.0  0.64244  0.79650  0.32072  1.0000 -0.1522289435
C   C202      1.0  0.64244  0.20350  0.67928  1.0000 -0.1522289435
C   C203      1.0  0.35756  0.20350  0.32072  1.0000 -0.1522289435
C   C204      1.0  0.35756  0.79650  0.67928  1.0000 -0.1522289435
C   C205      1.0  0.82072  0.29650  0.14244  1.0000 -0.1522289435
C   C206      1.0  0.17928  0.70350  0.14244  1.0000 -0.1522289435
C   C207      1.0  0.82072  0.70350  0.85756  1.0000 -0.1522289435
C   C208      1.0  0.17928  0.29650  0.85756  1.0000 -0.1522289435
C   C209      1.0  0.14244  0.82072  0.29650  1.0000 -0.1522289435
C   C210      1.0  0.85756  0.17928  0.29650  1.0000 -0.1522289435
C   C211      1.0  0.14244  0.17928  0.70350  1.0000 -0.1522289435
C   C212      1.0  0.85756  0.82072  0.70350  1.0000 -0.1522289435
C   C213      1.0  0.29650  0.14244  0.82072  1.0000 -0.1522289435
C   C214      1.0  0.29650  0.85756  0.17928  1.0000 -0.1522289435
C   C215      1.0  0.70350  0.85756  0.82072  1.0000 -0.1522289435
C   C216      1.0  0.70350  0.14244  0.17928  1.0000 -0.1522289435
C   C217      1.0  0.78022  0.71600  0.34315  1.0000 0.0633694688
C   C218      1.0  0.21978  0.28400  0.34315  1.0000 0.0633694688
C   C219      1.0  0.21978  0.71600  0.65685  1.0000 0.0633694688
C   C220      1.0  0.78022  0.28400  0.65685  1.0000 0.0633694688
C   C221      1.0  0.28400  0.34315  0.21978  1.0000 0.0633694688
C   C222      1.0  0.71600  0.65685  0.21978  1.0000 0.0633694688
C   C223      1.0  0.71600  0.34315  0.78022  1.0000 0.0633694688
C   C224      1.0  0.28400  0.65685  0.78022  1.0000 0.0633694688
C   C225      1.0  0.65685  0.78022  0.28400  1.0000 0.0633694688
C   C226      1.0  0.65685  0.21978  0.71600  1.0000 0.0633694688
C   C227      1.0  0.34315  0.21978  0.28400  1.0000 0.0633694688
C   C228      1.0  0.34315  0.78022  0.71600  1.0000 0.0633694688
C   C229      1.0  0.78400  0.28022  0.15685  1.0000 0.0633694688
C   C230      1.0  0.21600  0.71978  0.15685  1.0000 0.0633694688
C   C231      1.0  0.78400  0.71978  0.84315  1.0000 0.0633694688
C   C232      1.0  0.21600  0.28022  0.84315  1.0000 0.073282371
C   C233      1.0  0.15685  0.78400  0.28022  1.0000 0.0633694688
C   C234      1.0  0.84315  0.21600  0.28022  1.0000 0.0633694688
C   C235      1.0  0.15685  0.21600  0.71978  1.0000 0.073282371
C   C236      1.0  0.84315  0.78400  0.71978  1.0000 0.0633694688
C   C237      1.0  0.28022  0.15685  0.78400  1.0000 0.0633694688
C   C238      1.0  0.28022  0.84315  0.21600  1.0000 0.073282371
C   C239      1.0  0.71978  0.84315  0.78400  1.0000 0.0633694688
C   C240      1.0  0.71978  0.15685  0.21600  1.0000 0.0633694688
C   C241      1.0  0.79660  0.75073  0.35536  1.0000 -0.1945540001
C   C242      1.0  0.20340  0.24927  0.35536  1.0000 -0.1952454628
C   C243      1.0  0.20340  0.75073  0.64464  1.0000 -0.1945540001
C   C244      1.0  0.79660  0.24927  0.64464  1.0000 -0.1945540001
C   C245      1.0  0.24927  0.35536  0.20340  1.0000 -0.1952454628
C   C246      1.0  0.75073  0.64464  0.20340  1.0000 -0.1945540001
C   C247      1.0  0.75073  0.35536  0.79660  1.0000 -0.1945540001
C   C248      1.0  0.24927  0.64464  0.79660  1.0000 -0.1945540001
C   C249      1.0  0.64464  0.79660  0.24927  1.0000 -0.1952454628
C   C250      1.0  0.64464  0.20340  0.75073  1.0000 -0.1945540001
C   C251      1.0  0.35536  0.20340  0.24927  1.0000 -0.1952454628
C   C252      1.0  0.35536  0.79660  0.75073  1.0000 -0.1945540001
C   C253      1.0  0.74927  0.29660  0.14464  1.0000 -0.1952454628
C   C254      1.0  0.25073  0.70340  0.14464  1.0000 -0.1952454628
C   C255      1.0  0.74927  0.70340  0.85536  1.0000 -0.1952454628
C   C256      1.0  0.25073  0.29660  0.85536  1.0000 -0.1952454628
C   C257      1.0  0.14464  0.74927  0.29660  1.0000 -0.1952454628
C   C258      1.0  0.85536  0.25073  0.29660  1.0000 -0.1952454628
C   C259      1.0  0.14464  0.25073  0.70340  1.0000 -0.1945540001
C   C260      1.0  0.85536  0.74927  0.70340  1.0000 -0.1952454628
C   C261      1.0  0.29660  0.14464  0.74927  1.0000 -0.1945540001
C   C262      1.0  0.29660  0.85536  0.25073  1.0000 -0.1952454628
C   C263      1.0  0.70340  0.85536  0.74927  1.0000 -0.1952454628
C   C264      1.0  0.70340  0.14464  0.25073  1.0000 -0.1952454628
C   C265      1.0  0.74694  0.71552  0.31358  1.0000 0.0862693156
C   C266      1.0  0.25306  0.28448  0.31358  1.0000 0.0862693156
C   C267      1.0  0.25306  0.71552  0.68642  1.0000 0.0862693156
C   C268      1.0  0.74694  0.28448  0.68642  1.0000 0.0862693156
C   C269      1.0  0.28448  0.31358  0.25306  1.0000 0.0862693156
C   C270      1.0  0.71552  0.68642  0.25306  1.0000 0.0862693156
C   C271      1.0  0.71552  0.31358  0.74694  1.0000 0.0862693156
C   C272      1.0  0.28448  0.68642  0.74694  1.0000 0.0862693156
C   C273      1.0  0.68642  0.74694  0.28448  1.0000 0.0862693156
C   C274      1.0  0.68642  0.25306  0.71552  1.0000 0.0862693156
C   C275      1.0  0.31358  0.25306  0.28448  1.0000 0.0862693156
C   C276      1.0  0.31358  0.74694  0.71552  1.0000 0.0862693156
C   C277      1.0  0.78448  0.24694  0.18642  1.0000 0.0862693156
C   C278      1.0  0.21552  0.75306  0.18642  1.0000 0.0862693156
C   C279      1.0  0.78448  0.75306  0.81358  1.0000 0.0862693156
C   C280      1.0  0.21552  0.24694  0.81358  1.0000 0.0862693156
C   C281      1.0  0.18642  0.78448  0.24694  1.0000 0.0862693156
C   C282      1.0  0.81358  0.21552  0.24694  1.0000 0.0862693156
C   C283      1.0  0.18642  0.21552  0.75306  1.0000 0.0862693156
C   C284      1.0  0.81358  0.78448  0.75306  1.0000 0.0862693156
C   C285      1.0  0.24694  0.18642  0.78448  1.0000 0.0862693156
C   C286      1.0  0.24694  0.81358  0.21552  1.0000 0.0862693156
C   C287      1.0  0.75306  0.81358  0.78448  1.0000 0.0862693156
C   C288      1.0  0.75306  0.18642  0.21552  1.0000 0.0862693156
C   C289      1.0  0.74603  0.68606  0.28350  1.0000 -0.2159186198
C   C290      1.0  0.25397  0.31394  0.28350  1.0000 -0.2159186198
C   C291      1.0  0.25397  0.68606  0.71650  1.0000 -0.2159186198
C   C292      1.0  0.74603  0.31394  0.71650  1.0000 -0.2159186198
C   C293      1.0  0.31394  0.28350  0.25397  1.0000 -0.2159186198
C   C294      1.0  0.68606  0.71650  0.25397  1.0000 -0.2159186198
C   C295      1.0  0.68606  0.28350  0.74603  1.0000 -0.2159186198
C   C296      1.0  0.31394  0.71650  0.74603  1.0000 -0.2159186198
C   C297      1.0  0.71650  0.74603  0.31394  1.0000 -0.2159186198
C   C298      1.0  0.71650  0.25397  0.68606  1.0000 -0.2159186198
C   C299      1.0  0.28350  0.25397  0.31394  1.0000 -0.2159186198
C   C300      1.0  0.28350  0.74603  0.68606  1.0000 -0.2159186198
C   C301      1.0  0.81394  0.24603  0.21650  1.0000 -0.2159186198
C   C302      1.0  0.18606  0.75397  0.21650  1.0000 -0.2159186198
C   C303      1.0  0.81394  0.75397  0.78350  1.0000 -0.2159186198
C   C304      1.0  0.18606  0.24603  0.78350  1.0000 -0.2159186198
C   C305      1.0  0.21650  0.81394  0.24603  1.0000 -0.2159186198
C   C306      1.0  0.78350  0.18606  0.24603  1.0000 -0.2159186198
C   C307      1.0  0.21650  0.18606  0.75397  1.0000 -0.2159186198
C   C308      1.0  0.78350  0.81394  0.75397  1.0000 -0.2159186198
C   C309      1.0  0.24603  0.21650  0.81394  1.0000 -0.2159186198
C   C310      1.0  0.24603  0.78350  0.18606  1.0000 -0.2159186198
C   C311      1.0  0.75397  0.78350  0.81394  1.0000 -0.2159186198
C   C312      1.0  0.75397  0.21650  0.18606  1.0000 -0.2159186198
C   C313      1.0  0.75197  0.06368  0.46057  1.0000 0.5734617679
C   C314      1.0  0.24803  0.93632  0.46057  1.0000 0.5734617679
C   C315      1.0  0.75197  0.93632  0.53943  1.0000 0.5734617679
C   C316      1.0  0.24803  0.06368  0.53943  1.0000 0.5734617679
C   C317      1.0  0.46057  0.75197  0.06368  1.0000 0.5734617679
C   C318      1.0  0.53943  0.24803  0.06368  1.0000 0.5734617679
C   C319      1.0  0.46057  0.24803  0.93632  1.0000 0.5734617679
C   C320      1.0  0.53943  0.75197  0.93632  1.0000 0.5734617679
C   C321      1.0  0.06368  0.46057  0.75197  1.0000 0.5734617679
C   C322      1.0  0.06368  0.53943  0.24803  1.0000 0.5734617679
C   C323      1.0  0.93632  0.53943  0.75197  1.0000 0.5734617679
C   C324      1.0  0.93632  0.46057  0.24803  1.0000 0.5734617679
C   C325      1.0  0.56368  0.74803  0.03943  1.0000 0.5734617679
C   C326      1.0  0.43632  0.25197  0.03943  1.0000 0.5734617679
C   C327      1.0  0.43632  0.74803  0.96057  1.0000 0.5734617679
C   C328      1.0  0.56368  0.25197  0.96057  1.0000 0.5734617679
C   C329      1.0  0.25197  0.03943  0.43632  1.0000 0.5734617679
C   C330      1.0  0.74803  0.96057  0.43632  1.0000 0.5734617679
C   C331      1.0  0.74803  0.03943  0.56368  1.0000 0.5734617679
C   C332      1.0  0.25197  0.96057  0.56368  1.0000 0.5734617679
C   C333      1.0  0.96057  0.56368  0.25197  1.0000 0.5734617679
C   C334      1.0  0.96057  0.43632  0.74803  1.0000 0.5734617679
C   C335      1.0  0.03943  0.43632  0.25197  1.0000 0.5734617679
C   C336      1.0  0.03943  0.56368  0.74803  1.0000 0.5734617679
C   C337      1.0  0.75094  0.10146  0.43294  1.0000 0.0033963095
C   C338      1.0  0.24906  0.89854  0.43294  1.0000 0.0033963095
C   C339      1.0  0.75094  0.89854  0.56706  1.0000 0.0033963095
C   C340      1.0  0.24906  0.10146  0.56706  1.0000 0.0033963095
C   C341      1.0  0.43294  0.75094  0.10146  1.0000 0.0033963095
C   C342      1.0  0.56706  0.24906  0.10146  1.0000 0.0033963095
C   C343      1.0  0.43294  0.24906  0.89854  1.0000 0.0033963095
C   C344      1.0  0.56706  0.75094  0.89854  1.0000 0.0033963095
C   C345      1.0  0.10146  0.43294  0.75094  1.0000 0.0033963095
C   C346      1.0  0.10146  0.56706  0.24906  1.0000 0.0033963095
C   C347      1.0  0.89854  0.56706  0.75094  1.0000 0.0033963095
C   C348      1.0  0.89854  0.43294  0.24906  1.0000 0.0033963095
C   C349      1.0  0.60146  0.74906  0.06706  1.0000 0.0033963095
C   C350      1.0  0.39854  0.25094  0.06706  1.0000 0.0033963095
C   C351      1.0  0.39854  0.74906  0.93294  1.0000 0.0033963095
C   C352      1.0  0.60146  0.25094  0.93294  1.0000 0.0033963095
C   C353      1.0  0.25094  0.06706  0.39854  1.0000 0.0033963095
C   C354      1.0  0.74906  0.93294  0.39854  1.0000 0.0033963095
C   C355      1.0  0.74906  0.06706  0.60146  1.0000 0.0033963095
C   C356      1.0  0.25094  0.93294  0.60146  1.0000 0.0033963095
C   C357      1.0  0.93294  0.60146  0.25094  1.0000 0.0033963095
C   C358      1.0  0.93294  0.39854  0.74906  1.0000 0.0033963095
C   C359      1.0  0.06706  0.39854  0.25094  1.0000 0.0033963095
C   C360      1.0  0.06706  0.60146  0.74906  1.0000 0.0033963095
C   C361      1.0  0.71715  0.11763  0.42160  1.0000 -0.125917503
C   C362      1.0  0.28285  0.88237  0.42160  1.0000 -0.125917503
C   C363      1.0  0.71715  0.88237  0.57840  1.0000 -0.1246486337
C   C364      1.0  0.28285  0.11763  0.57840  1.0000 -0.1246486337
C   C365      1.0  0.42160  0.71715  0.11763  1.0000 -0.125917503
C   C366      1.0  0.57840  0.28285  0.11763  1.0000 -0.125917503
C   C367      1.0  0.42160  0.28285  0.88237  1.0000 -0.125917503
C   C368      1.0  0.57840  0.71715  0.88237  1.0000 -0.1246486337
C   C369      1.0  0.11763  0.42160  0.71715  1.0000 -0.1246486337
C   C370      1.0  0.11763  0.57840  0.28285  1.0000 -0.125917503
C   C371      1.0  0.88237  0.57840  0.71715  1.0000 -0.1246486337
C   C372      1.0  0.88237  0.42160  0.28285  1.0000 -0.125917503
C   C373      1.0  0.61763  0.78285  0.07840  1.0000 -0.125917503
C   C374      1.0  0.38237  0.21715  0.07840  1.0000 -0.125917503
C   C375      1.0  0.38237  0.78285  0.92160  1.0000 -0.125917503
C   C376      1.0  0.61763  0.21715  0.92160  1.0000 -0.125917503
C   C377      1.0  0.21715  0.07840  0.38237  1.0000 -0.125917503
C   C378      1.0  0.78285  0.92160  0.38237  1.0000 -0.125917503
C   C379      1.0  0.78285  0.07840  0.61763  1.0000 -0.125917503
C   C380      1.0  0.21715  0.92160  0.61763  1.0000 -0.125917503
C   C381      1.0  0.92160  0.61763  0.21715  1.0000 -0.125917503
C   C382      1.0  0.92160  0.38237  0.78285  1.0000 -0.125917503
C   C383      1.0  0.07840  0.38237  0.21715  1.0000 -0.125917503
C   C384      1.0  0.07840  0.61763  0.78285  1.0000 -0.125917503
C   C385      1.0  0.71577  0.15290  0.39560  1.0000 0.0633694688
C   C386      1.0  0.28423  0.84710  0.39560  1.0000 0.0633694688
C   C387      1.0  0.71577  0.84710  0.60440  1.0000 0.0633694688
C   C388      1.0  0.28423  0.15290  0.60440  1.0000 0.0633694688
C   C389      1.0  0.39560  0.71577  0.15290  1.0000 0.0633694688
C   C390      1.0  0.60440  0.28423  0.15290  1.0000 0.0633694688
C   C391      1.0  0.39560  0.28423  0.84710  1.0000 0.0633694688
C   C392      1.0  0.60440  0.71577  0.84710  1.0000 0.0633694688
C   C393      1.0  0.15290  0.39560  0.71577  1.0000 0.0633694688
C   C394      1.0  0.15290  0.60440  0.28423  1.0000 0.0633694688
C   C395      1.0  0.84710  0.60440  0.71577  1.0000 0.0633694688
C   C396      1.0  0.84710  0.39560  0.28423  1.0000 0.0633694688
C   C397      1.0  0.65290  0.78423  0.10440  1.0000 0.0633694688
C   C398      1.0  0.34710  0.21577  0.10440  1.0000 0.0633694688
C   C399      1.0  0.34710  0.78423  0.89560  1.0000 0.0633694688
C   C400      1.0  0.65290  0.21577  0.89560  1.0000 0.0633694688
C   C401      1.0  0.21577  0.10440  0.34710  1.0000 0.0633694688
C   C402      1.0  0.78423  0.89560  0.34710  1.0000 0.0633694688
C   C403      1.0  0.78423  0.10440  0.65290  1.0000 0.0633694688
C   C404      1.0  0.21577  0.89560  0.65290  1.0000 0.0633694688
C   C405      1.0  0.89560  0.65290  0.21577  1.0000 0.0633694688
C   C406      1.0  0.89560  0.34710  0.78423  1.0000 0.0633694688
C   C407      1.0  0.10440  0.34710  0.21577  1.0000 0.0633694688
C   C408      1.0  0.10440  0.65290  0.78423  1.0000 0.0633694688
C   C409      1.0  0.75207  0.16866  0.38203  1.0000 0.073282371
C   C410      1.0  0.24793  0.83134  0.38203  1.0000 0.073282371
C   C411      1.0  0.75207  0.83134  0.61797  1.0000 0.073282371
C   C412      1.0  0.24793  0.16866  0.61797  1.0000 0.073282371
C   C413      1.0  0.38203  0.75207  0.16866  1.0000 0.073282371
C   C414      1.0  0.61797  0.24793  0.16866  1.0000 0.073282371
C   C415      1.0  0.38203  0.24793  0.83134  1.0000 0.073282371
C   C416      1.0  0.61797  0.75207  0.83134  1.0000 0.073282371
C   C417      1.0  0.16866  0.38203  0.75207  1.0000 0.073282371
C   C418      1.0  0.16866  0.61797  0.24793  1.0000 0.073282371
C   C419      1.0  0.83134  0.61797  0.75207  1.0000 0.073282371
C   C420      1.0  0.83134  0.38203  0.24793  1.0000 0.073282371
C   C421      1.0  0.66866  0.74793  0.11797  1.0000 0.073282371
C   C422      1.0  0.33134  0.25207  0.11797  1.0000 0.073282371
C   C423      1.0  0.33134  0.74793  0.88203  1.0000 0.073282371
C   C424      1.0  0.66866  0.25207  0.88203  1.0000 0.073282371
C   C425      1.0  0.25207  0.11797  0.33134  1.0000 0.073282371
C   C426      1.0  0.74793  0.88203  0.33134  1.0000 0.073282371
C   C427      1.0  0.74793  0.11797  0.66866  1.0000 0.073282371
C   C428      1.0  0.25207  0.88203  0.66866  1.0000 0.073282371
C   C429      1.0  0.88203  0.66866  0.25207  1.0000 0.073282371
C   C430      1.0  0.88203  0.33134  0.74793  1.0000 0.073282371
C   C431      1.0  0.11797  0.33134  0.25207  1.0000 0.073282371
C   C432      1.0  0.11797  0.66866  0.74793  1.0000 0.073282371
C   C433      1.0  0.78819  0.15237  0.39519  1.0000 -0.1675025628
C   C434      1.0  0.21181  0.84763  0.39519  1.0000 -0.1675025628
C   C435      1.0  0.78819  0.84763  0.60481  1.0000 -0.1675025628
C   C436      1.0  0.21181  0.15237  0.60481  1.0000 -0.1675025628
C   C437      1.0  0.39519  0.78819  0.15237  1.0000 -0.1675025628
C   C438      1.0  0.60481  0.21181  0.15237  1.0000 -0.1675025628
C   C439      1.0  0.39519  0.21181  0.84763  1.0000 -0.1675025628
C   C440      1.0  0.60481  0.78819  0.84763  1.0000 -0.1675025628
C   C441      1.0  0.15237  0.39519  0.78819  1.0000 -0.1675025628
C   C442      1.0  0.15237  0.60481  0.21181  1.0000 -0.1675025628
C   C443      1.0  0.84763  0.60481  0.78819  1.0000 -0.1675025628
C   C444      1.0  0.84763  0.39519  0.21181  1.0000 -0.1675025628
C   C445      1.0  0.65237  0.71181  0.10481  1.0000 -0.1675025628
C   C446      1.0  0.34763  0.28819  0.10481  1.0000 -0.1675025628
C   C447      1.0  0.34763  0.71181  0.89519  1.0000 -0.1675025628
C   C448      1.0  0.65237  0.28819  0.89519  1.0000 -0.1675025628
C   C449      1.0  0.28819  0.10481  0.34763  1.0000 -0.1675025628
C   C450      1.0  0.71181  0.89519  0.34763  1.0000 -0.1675025628
C   C451      1.0  0.71181  0.10481  0.65237  1.0000 -0.1675025628
C   C452      1.0  0.28819  0.89519  0.65237  1.0000 -0.1675025628
C   C453      1.0  0.89519  0.65237  0.28819  1.0000 -0.1675025628
C   C454      1.0  0.89519  0.34763  0.71181  1.0000 -0.1675025628
C   C455      1.0  0.10481  0.34763  0.28819  1.0000 -0.1675025628
C   C456      1.0  0.10481  0.65237  0.71181  1.0000 -0.1675025628
C   C457      1.0  0.78862  0.11786  0.42033  1.0000 -0.0991917796
C   C458      1.0  0.21138  0.88214  0.42033  1.0000 -0.0991917796
C   C459      1.0  0.78862  0.88214  0.57967  1.0000 -0.0991917796
C   C460      1.0  0.21138  0.11786  0.57967  1.0000 -0.0991917796
C   C461      1.0  0.42033  0.78862  0.11786  1.0000 -0.0991917796
C   C462      1.0  0.57967  0.21138  0.11786  1.0000 -0.0991917796
C   C463      1.0  0.42033  0.21138  0.88214  1.0000 -0.0991917796
C   C464      1.0  0.57967  0.78862  0.88214  1.0000 -0.0991917796
C   C465      1.0  0.11786  0.42033  0.78862  1.0000 -0.0991917796
C   C466      1.0  0.11786  0.57967  0.21138  1.0000 -0.0991917796
C   C467      1.0  0.88214  0.57967  0.78862  1.0000 -0.0991917796
C   C468      1.0  0.88214  0.42033  0.21138  1.0000 -0.0991917796
C   C469      1.0  0.61786  0.71138  0.07967  1.0000 -0.0991917796
C   C470      1.0  0.38214  0.28862  0.07967  1.0000 -0.0991917796
C   C471      1.0  0.38214  0.71138  0.92033  1.0000 -0.0991917796
C   C472      1.0  0.61786  0.28862  0.92033  1.0000 -0.0991917796
C   C473      1.0  0.28862  0.07967  0.38214  1.0000 -0.0991917796
C   C474      1.0  0.71138  0.92033  0.38214  1.0000 -0.0991917796
C   C475      1.0  0.71138  0.07967  0.61786  1.0000 -0.0991917796
C   C476      1.0  0.28862  0.92033  0.61786  1.0000 -0.0991917796
C   C477      1.0  0.92033  0.61786  0.28862  1.0000 -0.0991917796
C   C478      1.0  0.92033  0.38214  0.71138  1.0000 -0.0991917796
C   C479      1.0  0.07967  0.38214  0.28862  1.0000 -0.0991917796
C   C480      1.0  0.07967  0.61786  0.71138  1.0000 -0.0991917796
C   C481      1.0  0.67898  0.17123  0.38307  1.0000 -0.1522289435
C   C482      1.0  0.32102  0.82877  0.38307  1.0000 -0.1522289435
C   C483      1.0  0.67898  0.82877  0.61693  1.0000 -0.1522289435
C   C484      1.0  0.32102  0.17123  0.61693  1.0000 -0.1522289435
C   C485      1.0  0.38307  0.67898  0.17123  1.0000 -0.1522289435
C   C486      1.0  0.61693  0.32102  0.17123  1.0000 -0.1522289435
C   C487      1.0  0.38307  0.32102  0.82877  1.0000 -0.1522289435
C   C488      1.0  0.61693  0.67898  0.82877  1.0000 -0.1522289435
C   C489      1.0  0.17123  0.38307  0.67898  1.0000 -0.1522289435
C   C490      1.0  0.17123  0.61693  0.32102  1.0000 -0.1522289435
C   C491      1.0  0.82877  0.61693  0.67898  1.0000 -0.1522289435
C   C492      1.0  0.82877  0.38307  0.32102  1.0000 -0.1522289435
C   C493      1.0  0.67123  0.82102  0.11693  1.0000 -0.1522289435
C   C494      1.0  0.32877  0.17898  0.11693  1.0000 -0.1522289435
C   C495      1.0  0.32877  0.82102  0.88307  1.0000 -0.1522289435
C   C496      1.0  0.67123  0.17898  0.88307  1.0000 -0.1522289435
C   C497      1.0  0.17898  0.11693  0.32877  1.0000 -0.1522289435
C   C498      1.0  0.82102  0.88307  0.32877  1.0000 -0.1522289435
C   C499      1.0  0.82102  0.11693  0.67123  1.0000 -0.1522289435
C   C500      1.0  0.17898  0.88307  0.67123  1.0000 -0.1522289435
C   C501      1.0  0.88307  0.67123  0.17898  1.0000 -0.1522289435
C   C502      1.0  0.88307  0.32877  0.82102  1.0000 -0.1522289435
C   C503      1.0  0.11693  0.32877  0.17898  1.0000 -0.1522289435
C   C504      1.0  0.11693  0.67123  0.82102  1.0000 -0.1522289435
C   C505      1.0  0.67928  0.20350  0.35756  1.0000 -0.1522289435
C   C506      1.0  0.32072  0.79650  0.35756  1.0000 -0.1522289435
C   C507      1.0  0.67928  0.79650  0.64244  1.0000 -0.1522289435
C   C508      1.0  0.32072  0.20350  0.64244  1.0000 -0.1522289435
C   C509      1.0  0.35756  0.67928  0.20350  1.0000 -0.1522289435
C   C510      1.0  0.64244  0.32072  0.20350  1.0000 -0.1522289435
C   C511      1.0  0.35756  0.32072  0.79650  1.0000 -0.1522289435
C   C512      1.0  0.64244  0.67928  0.79650  1.0000 -0.1522289435
C   C513      1.0  0.20350  0.35756  0.67928  1.0000 -0.1522289435
C   C514      1.0  0.20350  0.64244  0.32072  1.0000 -0.1522289435
C   C515      1.0  0.79650  0.64244  0.67928  1.0000 -0.1522289435
C   C516      1.0  0.79650  0.35756  0.32072  1.0000 -0.1522289435
C   C517      1.0  0.70350  0.82072  0.14244  1.0000 -0.1522289435
C   C518      1.0  0.29650  0.17928  0.14244  1.0000 -0.1522289435
C   C519      1.0  0.29650  0.82072  0.85756  1.0000 -0.1522289435
C   C520      1.0  0.70350  0.17928  0.85756  1.0000 -0.1522289435
C   C521      1.0  0.17928  0.14244  0.29650  1.0000 -0.1522289435
C   C522      1.0  0.82072  0.85756  0.29650  1.0000 -0.1522289435
C   C523      1.0  0.82072  0.14244  0.70350  1.0000 -0.1522289435
C   C524      1.0  0.17928  0.85756  0.70350  1.0000 -0.1522289435
C   C525      1.0  0.85756  0.70350  0.17928  1.0000 -0.1522289435
C   C526      1.0  0.85756  0.29650  0.82072  1.0000 -0.1522289435
C   C527      1.0  0.14244  0.29650  0.17928  1.0000 -0.1522289435
C   C528      1.0  0.14244  0.70350  0.82072  1.0000 -0.1522289435
C   C529      1.0  0.71600  0.21978  0.34315  1.0000 0.0633694688
C   C530      1.0  0.28400  0.78022  0.34315  1.0000 0.0633694688
C   C531      1.0  0.71600  0.78022  0.65685  1.0000 0.0633694688
C   C532      1.0  0.28400  0.21978  0.65685  1.0000 0.0633694688
C   C533      1.0  0.34315  0.71600  0.21978  1.0000 0.0633694688
C   C534      1.0  0.65685  0.28400  0.21978  1.0000 0.0633694688
C   C535      1.0  0.34315  0.28400  0.78022  1.0000 0.0633694688
C   C536      1.0  0.65685  0.71600  0.78022  1.0000 0.0633694688
C   C537      1.0  0.21978  0.34315  0.71600  1.0000 0.0633694688
C   C538      1.0  0.21978  0.65685  0.28400  1.0000 0.0633694688
C   C539      1.0  0.78022  0.65685  0.71600  1.0000 0.0633694688
C   C540      1.0  0.78022  0.34315  0.28400  1.0000 0.0633694688
C   C541      1.0  0.71978  0.78400  0.15685  1.0000 0.0633694688
C   C542      1.0  0.28022  0.21600  0.15685  1.0000 0.0633694688
C   C543      1.0  0.28022  0.78400  0.84315  1.0000 0.0633694688
C   C544      1.0  0.71978  0.21600  0.84315  1.0000 0.073282371
C   C545      1.0  0.21600  0.15685  0.28022  1.0000 0.0633694688
C   C546      1.0  0.78400  0.84315  0.28022  1.0000 0.0633694688
C   C547      1.0  0.78400  0.15685  0.71978  1.0000 0.0633694688
C   C548      1.0  0.21600  0.84315  0.71978  1.0000 0.073282371
C   C549      1.0  0.84315  0.71978  0.21600  1.0000 0.0633694688
C   C550      1.0  0.84315  0.28022  0.78400  1.0000 0.0633694688
C   C551      1.0  0.15685  0.28022  0.21600  1.0000 0.0633694688
C   C552      1.0  0.15685  0.71978  0.78400  1.0000 0.0633694688
C   C553      1.0  0.75073  0.20340  0.35536  1.0000 -0.1945540001
C   C554      1.0  0.24927  0.79660  0.35536  1.0000 -0.1952454628
C   C555      1.0  0.75073  0.79660  0.64464  1.0000 -0.1945540001
C   C556      1.0  0.24927  0.20340  0.64464  1.0000 -0.1945540001
C   C557      1.0  0.35536  0.75073  0.20340  1.0000 -0.1952454628
C   C558      1.0  0.64464  0.24927  0.20340  1.0000 -0.1945540001
C   C559      1.0  0.35536  0.24927  0.79660  1.0000 -0.1945540001
C   C560      1.0  0.64464  0.75073  0.79660  1.0000 -0.1945540001
C   C561      1.0  0.20340  0.35536  0.75073  1.0000 -0.1945540001
C   C562      1.0  0.20340  0.64464  0.24927  1.0000 -0.1952454628
C   C563      1.0  0.79660  0.64464  0.75073  1.0000 -0.1945540001
C   C564      1.0  0.79660  0.35536  0.24927  1.0000 -0.1945540001
C   C565      1.0  0.70340  0.74927  0.14464  1.0000 -0.1952454628
C   C566      1.0  0.29660  0.25073  0.14464  1.0000 -0.1952454628
C   C567      1.0  0.29660  0.74927  0.85536  1.0000 -0.1952454628
C   C568      1.0  0.70340  0.25073  0.85536  1.0000 -0.1945540001
C   C569      1.0  0.25073  0.14464  0.29660  1.0000 -0.1945540001
C   C570      1.0  0.74927  0.85536  0.29660  1.0000 -0.1952454628
C   C571      1.0  0.74927  0.14464  0.70340  1.0000 -0.1945540001
C   C572      1.0  0.25073  0.85536  0.70340  1.0000 -0.1952454628
C   C573      1.0  0.85536  0.70340  0.25073  1.0000 -0.1952454628
C   C574      1.0  0.85536  0.29660  0.74927  1.0000 -0.1952454628
C   C575      1.0  0.14464  0.29660  0.25073  1.0000 -0.1952454628
C   C576      1.0  0.14464  0.70340  0.74927  1.0000 -0.1952454628
C   C577      1.0  0.71552  0.25306  0.31358  1.0000 0.0862693156
C   C578      1.0  0.28448  0.74694  0.31358  1.0000 0.0862693156
C   C579      1.0  0.71552  0.74694  0.68642  1.0000 0.0862693156
C   C580      1.0  0.28448  0.25306  0.68642  1.0000 0.0862693156
C   C581      1.0  0.31358  0.71552  0.25306  1.0000 0.0862693156
C   C582      1.0  0.68642  0.28448  0.25306  1.0000 0.0862693156
C   C583      1.0  0.31358  0.28448  0.74694  1.0000 0.0862693156
C   C584      1.0  0.68642  0.71552  0.74694  1.0000 0.0862693156
C   C585      1.0  0.25306  0.31358  0.71552  1.0000 0.0862693156
C   C586      1.0  0.25306  0.68642  0.28448  1.0000 0.0862693156
C   C587      1.0  0.74694  0.68642  0.71552  1.0000 0.0862693156
C   C588      1.0  0.74694  0.31358  0.28448  1.0000 0.0862693156
C   C589      1.0  0.75306  0.78448  0.18642  1.0000 0.0862693156
C   C590      1.0  0.24694  0.21552  0.18642  1.0000 0.0862693156
C   C591      1.0  0.24694  0.78448  0.81358  1.0000 0.0862693156
C   C592      1.0  0.75306  0.21552  0.81358  1.0000 0.0862693156
C   C593      1.0  0.21552  0.18642  0.24694  1.0000 0.0862693156
C   C594      1.0  0.78448  0.81358  0.24694  1.0000 0.0862693156
C   C595      1.0  0.78448  0.18642  0.75306  1.0000 0.0862693156
C   C596      1.0  0.21552  0.81358  0.75306  1.0000 0.0862693156
C   C597      1.0  0.81358  0.75306  0.21552  1.0000 0.0862693156
C   C598      1.0  0.81358  0.24694  0.78448  1.0000 0.0862693156
C   C599      1.0  0.18642  0.24694  0.21552  1.0000 0.0862693156
C   C600      1.0  0.18642  0.75306  0.78448  1.0000 0.0862693156
C   C601      1.0  0.68606  0.25397  0.28350  1.0000 -0.2159186198
C   C602      1.0  0.31394  0.74603  0.28350  1.0000 -0.2159186198
C   C603      1.0  0.68606  0.74603  0.71650  1.0000 -0.2159186198
C   C604      1.0  0.31394  0.25397  0.71650  1.0000 -0.2159186198
C   C605      1.0  0.28350  0.68606  0.25397  1.0000 -0.2159186198
C   C606      1.0  0.71650  0.31394  0.25397  1.0000 -0.2159186198
C   C607      1.0  0.28350  0.31394  0.74603  1.0000 -0.2159186198
C   C608      1.0  0.71650  0.68606  0.74603  1.0000 -0.2159186198
C   C609      1.0  0.25397  0.28350  0.68606  1.0000 -0.2159186198
C   C610      1.0  0.25397  0.71650  0.31394  1.0000 -0.2159186198
C   C611      1.0  0.74603  0.71650  0.68606  1.0000 -0.2159186198
C   C612      1.0  0.74603  0.28350  0.31394  1.0000 -0.2159186198
C   C613      1.0  0.75397  0.81394  0.21650  1.0000 -0.2159186198
C   C614      1.0  0.24603  0.18606  0.21650  1.0000 -0.2159186198
C   C615      1.0  0.24603  0.81394  0.78350  1.0000 -0.2159186198
C   C616      1.0  0.75397  0.18606  0.78350  1.0000 -0.2159186198
C   C617      1.0  0.18606  0.21650  0.24603  1.0000 -0.2159186198
C   C618      1.0  0.81394  0.78350  0.24603  1.0000 -0.2159186198
C   C619      1.0  0.81394  0.21650  0.75397  1.0000 -0.2159186198
C   C620      1.0  0.18606  0.78350  0.75397  1.0000 -0.2159186198
C   C621      1.0  0.78350  0.75397  0.18606  1.0000 -0.2159186198
C   C622      1.0  0.78350  0.24603  0.81394  1.0000 -0.2159186198
C   C623      1.0  0.21650  0.24603  0.18606  1.0000 -0.2159186198
C   C624      1.0  0.21650  0.75397  0.81394  1.0000 -0.2159186198
O   O1        1.0  0.94957  0.71666  0.46821  1.0000 -0.5295322419
O   O2        1.0  0.05043  0.28334  0.46821  1.0000 -0.5295322419
O   O3        1.0  0.05043  0.71666  0.53179  1.0000 -0.5295322419
O   O4        1.0  0.94957  0.28334  0.53179  1.0000 -0.5295322419
O   O5        1.0  0.28334  0.46821  0.05043  1.0000 -0.5295322419
O   O6        1.0  0.71666  0.53179  0.05043  1.0000 -0.5295322419
O   O7        1.0  0.71666  0.46821  0.94957  1.0000 -0.5295322419
O   O8        1.0  0.28334  0.53179  0.94957  1.0000 -0.5295322419
O   O9        1.0  0.53179  0.94957  0.28334  1.0000 -0.5295322419
O   O10       1.0  0.53179  0.05043  0.71666  1.0000 -0.5295322419
O   O11       1.0  0.46821  0.05043  0.28334  1.0000 -0.5295322419
O   O12       1.0  0.46821  0.94957  0.71666  1.0000 -0.5295322419
O   O13       1.0  0.78334  0.44957  0.03179  1.0000 -0.5295322419
O   O14       1.0  0.21666  0.55043  0.03179  1.0000 -0.5295322419
O   O15       1.0  0.78334  0.55043  0.96821  1.0000 -0.5295322419
O   O16       1.0  0.21666  0.44957  0.96821  1.0000 -0.5295322419
O   O17       1.0  0.03179  0.78334  0.44957  1.0000 -0.5295322419
O   O18       1.0  0.96821  0.21666  0.44957  1.0000 -0.5295322419
O   O19       1.0  0.03179  0.21666  0.55043  1.0000 -0.5295322419
O   O20       1.0  0.96821  0.78334  0.55043  1.0000 -0.5295322419
O   O21       1.0  0.44957  0.03179  0.78334  1.0000 -0.5295322419
O   O22       1.0  0.44957  0.96821  0.21666  1.0000 -0.5295322419
O   O23       1.0  0.55043  0.96821  0.78334  1.0000 -0.5295322419
O   O24       1.0  0.55043  0.03179  0.21666  1.0000 -0.5295322419
O   O25       1.0  0.94990  0.78575  0.46802  1.0000 -0.4891653135
O   O26       1.0  0.05010  0.21425  0.46802  1.0000 -0.4891653135
O   O27       1.0  0.05010  0.78575  0.53198  1.0000 -0.4891653135
O   O28       1.0  0.94990  0.21425  0.53198  1.0000 -0.4891653135
O   O29       1.0  0.21425  0.46802  0.05010  1.0000 -0.4891653135
O   O30       1.0  0.78575  0.53198  0.05010  1.0000 -0.4891653135
O   O31       1.0  0.78575  0.46802  0.94990  1.0000 -0.4891653135
O   O32       1.0  0.21425  0.53198  0.94990  1.0000 -0.4891653135
O   O33       1.0  0.53198  0.94990  0.21425  1.0000 -0.4891653135
O   O34       1.0  0.53198  0.05010  0.78575  1.0000 -0.4891653135
O   O35       1.0  0.46802  0.05010  0.21425  1.0000 -0.4891653135
O   O36       1.0  0.46802  0.94990  0.78575  1.0000 -0.4891653135
O   O37       1.0  0.71425  0.44990  0.03198  1.0000 -0.4891653135
O   O38       1.0  0.28575  0.55010  0.03198  1.0000 -0.4891653135
O   O39       1.0  0.71425  0.55010  0.96802  1.0000 -0.4891653135
O   O40       1.0  0.28575  0.44990  0.96802  1.0000 -0.4891653135
O   O41       1.0  0.03198  0.71425  0.44990  1.0000 -0.4891653135
O   O42       1.0  0.96802  0.28575  0.44990  1.0000 -0.4891653135
O   O43       1.0  0.03198  0.28575  0.55010  1.0000 -0.4891653135
O   O44       1.0  0.96802  0.71425  0.55010  1.0000 -0.4891653135
O   O45       1.0  0.44990  0.03198  0.71425  1.0000 -0.4891653135
O   O46       1.0  0.44990  0.96802  0.28575  1.0000 -0.4891653135
O   O47       1.0  0.55010  0.96802  0.71425  1.0000 -0.4891653135
O   O48       1.0  0.55010  0.03198  0.28575  1.0000 -0.4891653135
O   O49       1.0  0.71666  0.05043  0.46821  1.0000 -0.5295322419
O   O50       1.0  0.28334  0.94957  0.46821  1.0000 -0.5295322419
O   O51       1.0  0.71666  0.94957  0.53179  1.0000 -0.5295322419
O   O52       1.0  0.28334  0.05043  0.53179  1.0000 -0.5295322419
O   O53       1.0  0.46821  0.71666  0.05043  1.0000 -0.5295322419
O   O54       1.0  0.53179  0.28334  0.05043  1.0000 -0.5295322419
O   O55       1.0  0.46821  0.28334  0.94957  1.0000 -0.5295322419
O   O56       1.0  0.53179  0.71666  0.94957  1.0000 -0.5295322419
O   O57       1.0  0.05043  0.46821  0.71666  1.0000 -0.5295322419
O   O58       1.0  0.05043  0.53179  0.28334  1.0000 -0.5295322419
O   O59       1.0  0.94957  0.53179  0.71666  1.0000 -0.5295322419
O   O60       1.0  0.94957  0.46821  0.28334  1.0000 -0.5295322419
O   O61       1.0  0.55043  0.78334  0.03179  1.0000 -0.5295322419
O   O62       1.0  0.44957  0.21666  0.03179  1.0000 -0.5295322419
O   O63       1.0  0.44957  0.78334  0.96821  1.0000 -0.5295322419
O   O64       1.0  0.55043  0.21666  0.96821  1.0000 -0.5295322419
O   O65       1.0  0.21666  0.03179  0.44957  1.0000 -0.5295322419
O   O66       1.0  0.78334  0.96821  0.44957  1.0000 -0.5295322419
O   O67       1.0  0.78334  0.03179  0.55043  1.0000 -0.5295322419
O   O68       1.0  0.21666  0.96821  0.55043  1.0000 -0.5295322419
O   O69       1.0  0.96821  0.55043  0.21666  1.0000 -0.5295322419
O   O70       1.0  0.96821  0.44957  0.78334  1.0000 -0.5295322419
O   O71       1.0  0.03179  0.44957  0.21666  1.0000 -0.5295322419
O   O72       1.0  0.03179  0.55043  0.78334  1.0000 -0.5295322419
O   O73       1.0  0.78575  0.05010  0.46802  1.0000 -0.4891653135
O   O74       1.0  0.21425  0.94990  0.46802  1.0000 -0.4891653135
O   O75       1.0  0.78575  0.94990  0.53198  1.0000 -0.4891653135
O   O76       1.0  0.21425  0.05010  0.53198  1.0000 -0.4891653135
O   O77       1.0  0.46802  0.78575  0.05010  1.0000 -0.4891653135
O   O78       1.0  0.53198  0.21425  0.05010  1.0000 -0.4891653135
O   O79       1.0  0.46802  0.21425  0.94990  1.0000 -0.4891653135
O   O80       1.0  0.53198  0.78575  0.94990  1.0000 -0.4891653135
O   O81       1.0  0.05010  0.46802  0.78575  1.0000 -0.4891653135
O   O82       1.0  0.05010  0.53198  0.21425  1.0000 -0.4891653135
O   O83       1.0  0.94990  0.53198  0.78575  1.0000 -0.4891653135
O   O84       1.0  0.94990  0.46802  0.21425  1.0000 -0.4891653135
O   O85       1.0  0.55010  0.71425  0.03198  1.0000 -0.4891653135
O   O86       1.0  0.44990  0.28575  0.03198  1.0000 -0.4891653135
O   O87       1.0  0.44990  0.71425  0.96802  1.0000 -0.4891653135
O   O88       1.0  0.55010  0.28575  0.96802  1.0000 -0.4891653135
O   O89       1.0  0.28575  0.03198  0.44990  1.0000 -0.4891653135
O   O90       1.0  0.71425  0.96802  0.44990  1.0000 -0.4891653135
O   O91       1.0  0.71425  0.03198  0.55010  1.0000 -0.4891653135
O   O92       1.0  0.28575  0.96802  0.55010  1.0000 -0.4891653135
O   O93       1.0  0.96802  0.55010  0.28575  1.0000 -0.4891653135
O   O94       1.0  0.96802  0.44990  0.71425  1.0000 -0.4891653135
O   O95       1.0  0.03198  0.44990  0.28575  1.0000 -0.4891653135
O   O96       1.0  0.03198  0.55010  0.71425  1.0000 -0.4891653135
