# DDEC6 charges by PACMAN v1.1 (https://github.com/mtap-research/PACMAN-charge/)
data_2013[Nd][nan]3[ASR]2
_chemical_formula_sum              "Nd4 C6 S4 O28"
_cell_length_a       7.0649
_cell_length_b       11.2771
_cell_length_c       11.8318
_cell_angle_alpha    67.37
_cell_angle_beta     80.035
_cell_angle_gamma    82.821

_symmetry_space_group_name_H-M    "P 1"
_symmetry_Int_Tables_number       1

loop_
  _symmetry_equiv_pos_as_xyz
  'x, y, z'

loop_
  _atom_site_type_symbol
  _atom_site_label
  _atom_site_symmetry_multiplicity
  _atom_site_fract_x
  _atom_site_fract_y
  _atom_site_fract_z
  _atom_site_occupancy
  _atom_site_charge
Nd  Nd1       1.0  0.22242  0.54693  0.57401  1.0000 2.198966176
Nd  Nd2       1.0  0.77758  0.45307  0.42599  1.0000 2.198966176
Nd  Nd3       1.0  0.28686  0.01011  0.75214  1.0000 2.1291525669
Nd  Nd4       1.0  0.71314  0.98989  0.24786  1.0000 2.1291525669
C   C1        1.0  0.21320  0.82320  0.60370  1.0000 0.5316543288
C   C2        1.0  0.78680  0.17680  0.39630  1.0000 0.5316543288
C   C3        1.0  0.25540  0.72650  0.73180  1.0000 0.5531288094
C   C4        1.0  0.74460  0.27350  0.26820  1.0000 0.5531288094
C   C5        1.0  0.98040  0.93100  0.01350  1.0000 0.5316543288
C   C6        1.0  0.01960  0.06900  0.98650  1.0000 0.5316543288
S   S1        1.0  0.28932  0.32141  0.46149  1.0000 1.5095519729
S   S2        1.0  0.71068  0.67859  0.53851  1.0000 1.5095519729
S   S3        1.0  0.44432  0.71615  0.25258  1.0000 1.4511652894
S   S4        1.0  0.55568  0.28385  0.74742  1.0000 1.4511652894
O   O1        1.0  0.44090  0.39790  0.46940  1.0000 -0.8474978797
O   O2        1.0  0.55910  0.60210  0.53060  1.0000 -0.8474978797
O   O3        1.0  0.10650  0.39390  0.48960  1.0000 -0.8157850199
O   O4        1.0  0.89350  0.60610  0.51040  1.0000 -0.8149055533
O   O5        1.0  0.29900  0.19290  0.55680  1.0000 -0.7069380276
O   O6        1.0  0.70100  0.80710  0.44320  1.0000 -0.7069380276
O   O7        1.0  0.30580  0.31670  0.34040  1.0000 -0.5313996665
O   O8        1.0  0.69420  0.68330  0.65960  1.0000 -0.5313996665
O   O9        1.0  0.28600  0.65990  0.35120  1.0000 -0.7385981374
O   O10       1.0  0.71400  0.34010  0.64880  1.0000 -0.7385981374
O   O11       1.0  0.47160  0.84540  0.24490  1.0000 -0.7313013368
O   O12       1.0  0.52840  0.15460  0.75510  1.0000 -0.7313013368
O   O13       1.0  0.62260  0.63480  0.27570  1.0000 -0.7522993378
O   O14       1.0  0.37740  0.36520  0.72430  1.0000 -0.7522993378
O   O15       1.0  0.39090  0.72190  0.13600  1.0000 -0.5521115952
O   O16       1.0  0.60910  0.27810  0.86400  1.0000 -0.5521115952
O   O17       1.0  0.16980  0.77820  0.53090  1.0000 -0.5436025851
O   O18       1.0  0.83020  0.22180  0.46910  1.0000 -0.5436025851
O   O19       1.0  0.23790  0.60960  0.75050  1.0000 -0.5635427229
O   O20       1.0  0.76210  0.39040  0.24950  1.0000 -0.5635427229
O   O21       1.0  0.22860  0.93920  0.58320  1.0000 -0.5521115952
O   O22       1.0  0.77140  0.06080  0.41680  1.0000 -0.5521115952
O   O23       1.0  0.30070  0.76950  0.80420  1.0000 -0.4870140396
O   O24       1.0  0.69930  0.23050  0.19580  1.0000 -0.4870140396
O   O25       1.0  0.06490  0.88560  0.93540  1.0000 -0.5313996665
O   O26       1.0  0.93510  0.11440  0.06460  1.0000 -0.5313996665
O   O27       1.0  0.87480  0.87110  0.11160  1.0000 -0.5521115952
O   O28       1.0  0.12520  0.12890  0.88840  1.0000 -0.5521115952
