# DDEC6 charges by PACMAN v1.1 (https://github.com/mtap-research/PACMAN-charge/)
data_2013[Zn][ths]3[ASR]8
_chemical_formula_sum              "Zn12 H96 C144 I24 N48"
_cell_length_a       14.907
_cell_length_b       18.608
_cell_length_c       32.92
_cell_angle_alpha    103.269
_cell_angle_beta     93.089
_cell_angle_gamma    108.97

_symmetry_space_group_name_H-M    "P 1"
_symmetry_Int_Tables_number       1

loop_
  _symmetry_equiv_pos_as_xyz
  'x, y, z'

loop_
  _atom_site_type_symbol
  _atom_site_label
  _atom_site_symmetry_multiplicity
  _atom_site_fract_x
  _atom_site_fract_y
  _atom_site_fract_z
  _atom_site_occupancy
  _atom_site_charge
Zn  Zn1       1.0  0.20144  0.73505  0.06710  1.0000 0.462041379
Zn  Zn2       1.0  0.67197  0.16433  0.22129  1.0000 0.4494710873
Zn  Zn3       1.0  0.29991  0.33012  0.89888  1.0000 0.4683858837
Zn  Zn4       1.0  0.96467  0.14478  0.72896  1.0000 0.4494710873
Zn  Zn5       1.0  0.48076  0.22937  0.42815  1.0000 0.4683858837
Zn  Zn6       1.0  0.04417  0.73926  0.55287  1.0000 0.462041379
Zn  Zn7       1.0  0.79856  0.26495  0.93290  1.0000 0.462041379
Zn  Zn8       1.0  0.32803  0.83567  0.77871  1.0000 0.4494710873
Zn  Zn9       1.0  0.70009  0.66988  0.10112  1.0000 0.4683858837
Zn  Zn10      1.0  0.03533  0.85522  0.27104  1.0000 0.4494710873
Zn  Zn11      1.0  0.51924  0.77063  0.57185  1.0000 0.4683858837
Zn  Zn12      1.0  0.95583  0.26074  0.44713  1.0000 0.462041379
H   H1        1.0  0.31850  0.88050  0.13610  1.0000 0.1091653081
H   H2        1.0  0.30190  0.98220  0.18430  1.0000 0.1307467573
H   H3        1.0  0.02770  0.90950  0.13220  1.0000 0.139338024
H   H4        1.0  0.05620  0.81220  0.08280  1.0000 0.1091653081
H   H5        1.0  0.27890  0.21740  0.39590  1.0000 0.1091653081
H   H6        1.0  0.17560  0.17230  0.33400  1.0000 0.1307467573
H   H7        1.0  0.38830  0.13470  0.27220  1.0000 0.139338024
H   H8        1.0  0.49150  0.18660  0.33570  1.0000 0.1091653081
H   H9        1.0  0.75570  0.05320  0.16940  1.0000 0.1091653081
H   H10       1.0  0.89230  0.02280  0.17160  1.0000 0.139338024
H   H11       1.0  0.01590  0.21130  0.27020  1.0000 0.139338024
H   H12       1.0  0.86590  0.22700  0.27000  1.0000 0.1015922217
H   H13       1.0  0.79920  0.31170  0.20900  1.0000 0.1015922217
H   H14       1.0  0.82380  0.39250  0.16400  1.0000 0.139338024
H   H15       1.0  0.58320  0.24270  0.09380  1.0000 0.139338024
H   H16       1.0  0.57080  0.16340  0.13800  1.0000 0.1015922217
H   H17       1.0  0.03210  0.62120  0.00390  1.0000 0.1091653081
H   H18       1.0  0.88470  0.52710  0.00250  1.0000 0.139338024
H   H19       1.0  0.94230  0.56040  0.12790  1.0000 0.139338024
H   H20       1.0  0.08960  0.65590  0.12610  1.0000 0.1015922217
H   H21       1.0  0.35870  0.26460  0.96640  1.0000 0.1091653081
H   H22       1.0  0.49120  0.27880  0.01080  1.0000 0.139338024
H   H23       1.0  0.63090  0.48260  0.98210  1.0000 0.139338024
H   H24       1.0  0.49970  0.45610  0.93170  1.0000 0.1091653081
H   H25       1.0  0.46250  0.29070  0.87070  1.0000 0.1015922217
H   H26       1.0  0.50740  0.21180  0.81700  1.0000 0.1307467573
H   H27       1.0  0.22650  0.08750  0.77600  1.0000 0.1307467573
H   H28       1.0  0.19110  0.17630  0.82980  1.0000 0.1091653081
H   H29       1.0  0.78130  0.02410  0.67260  1.0000 0.1091653081
H   H30       1.0  0.61730  0.99590  0.66980  1.0000 0.139338024
H   H31       1.0  0.66360  0.16720  0.77720  1.0000 0.139338024
H   H32       1.0  0.82360  0.19730  0.77650  1.0000 0.1091653081
H   H33       1.0  0.06140  0.85540  0.63670  1.0000 0.1091653081
H   H34       1.0  0.17260  0.94640  0.69020  1.0000 0.1307467573
H   H35       1.0  0.37960  0.89540  0.62670  1.0000 0.1307467573
H   H36       1.0  0.25620  0.79880  0.57470  1.0000 0.1091653081
H   H37       1.0  0.08280  0.13960  0.65810  1.0000 0.1091653081
H   H38       1.0  0.15010  0.21490  0.61420  1.0000 0.1307467573
H   H39       1.0  0.00600  0.36270  0.65680  1.0000 0.139338024
H   H40       1.0  0.94960  0.28420  0.70520  1.0000 0.1015922217
H   H41       1.0  0.45000  0.38390  0.46370  1.0000 0.1161377291
H   H42       1.0  0.35860  0.43260  0.50520  1.0000 0.139338024
H   H43       1.0  0.24700  0.22310  0.53050  1.0000 0.139338024
H   H44       1.0  0.34660  0.17780  0.48940  1.0000 0.1015922217
H   H45       1.0  0.03170  0.63810  0.61130  1.0000 0.1091653081
H   H46       1.0  0.05850  0.52620  0.61890  1.0000 0.139338024
H   H47       1.0  0.15000  0.50560  0.50390  1.0000 0.139338024
H   H48       1.0  0.10980  0.61730  0.50010  1.0000 0.1015922217
H   H49       1.0  0.68150  0.11950  0.86390  1.0000 0.1091653081
H   H50       1.0  0.69810  0.01780  0.81570  1.0000 0.1307467573
H   H51       1.0  0.97230  0.09050  0.86780  1.0000 0.139338024
H   H52       1.0  0.94380  0.18780  0.91720  1.0000 0.1091653081
H   H53       1.0  0.72110  0.78260  0.60410  1.0000 0.1091653081
H   H54       1.0  0.82440  0.82770  0.66600  1.0000 0.1307467573
H   H55       1.0  0.61170  0.86530  0.72780  1.0000 0.139338024
H   H56       1.0  0.50850  0.81340  0.66430  1.0000 0.1091653081
H   H57       1.0  0.24430  0.94680  0.83060  1.0000 0.1091653081
H   H58       1.0  0.10770  0.97720  0.82840  1.0000 0.139338024
H   H59       1.0  0.98410  0.78870  0.72980  1.0000 0.139338024
H   H60       1.0  0.13410  0.77300  0.73000  1.0000 0.1015922217
H   H61       1.0  0.20080  0.68830  0.79100  1.0000 0.1015922217
H   H62       1.0  0.17620  0.60750  0.83600  1.0000 0.139338024
H   H63       1.0  0.41680  0.75730  0.90620  1.0000 0.139338024
H   H64       1.0  0.42920  0.83660  0.86200  1.0000 0.1015922217
H   H65       1.0  0.96790  0.37880  0.99610  1.0000 0.1091653081
H   H66       1.0  0.11530  0.47290  0.99750  1.0000 0.139338024
H   H67       1.0  0.05770  0.43960  0.87210  1.0000 0.139338024
H   H68       1.0  0.91040  0.34410  0.87390  1.0000 0.1015922217
H   H69       1.0  0.64130  0.73540  0.03360  1.0000 0.1091653081
H   H70       1.0  0.50880  0.72120  0.98920  1.0000 0.139338024
H   H71       1.0  0.36910  0.51740  0.01790  1.0000 0.139338024
H   H72       1.0  0.50030  0.54390  0.06830  1.0000 0.1091653081
H   H73       1.0  0.53750  0.70930  0.12930  1.0000 0.1015922217
H   H74       1.0  0.49260  0.78820  0.18300  1.0000 0.1307467573
H   H75       1.0  0.77350  0.91250  0.22400  1.0000 0.1307467573
H   H76       1.0  0.80890  0.82370  0.17020  1.0000 0.1091653081
H   H77       1.0  0.21870  0.97590  0.32740  1.0000 0.1091653081
H   H78       1.0  0.38270  0.00410  0.33020  1.0000 0.139338024
H   H79       1.0  0.33640  0.83280  0.22280  1.0000 0.139338024
H   H80       1.0  0.17640  0.80270  0.22350  1.0000 0.1091653081
H   H81       1.0  0.93860  0.14460  0.36330  1.0000 0.1091653081
H   H82       1.0  0.82740  0.05360  0.30980  1.0000 0.1307467573
H   H83       1.0  0.62040  0.10460  0.37330  1.0000 0.1307467573
H   H84       1.0  0.74380  0.20120  0.42530  1.0000 0.1091653081
H   H85       1.0  0.91720  0.86040  0.34190  1.0000 0.1091653081
H   H86       1.0  0.84990  0.78510  0.38580  1.0000 0.1307467573
H   H87       1.0  0.99400  0.63730  0.34320  1.0000 0.139338024
H   H88       1.0  0.05040  0.71580  0.29480  1.0000 0.1015922217
H   H89       1.0  0.55000  0.61610  0.53630  1.0000 0.1161377291
H   H90       1.0  0.64140  0.56740  0.49480  1.0000 0.139338024
H   H91       1.0  0.75300  0.77690  0.46950  1.0000 0.139338024
H   H92       1.0  0.65340  0.82220  0.51060  1.0000 0.1015922217
H   H93       1.0  0.96830  0.36190  0.38870  1.0000 0.1091653081
H   H94       1.0  0.94150  0.47380  0.38110  1.0000 0.139338024
H   H95       1.0  0.85000  0.49440  0.49610  1.0000 0.139338024
H   H96       1.0  0.89020  0.38270  0.49990  1.0000 0.1015922217
C   C1        1.0  0.25700  0.88530  0.13610  1.0000 0.0787776677
C   C2        1.0  0.24840  0.94670  0.16450  1.0000 -0.1497143492
C   C3        1.0  0.16260  0.95700  0.16440  1.0000 0.0516644451
C   C4        1.0  0.08900  0.90440  0.13370  1.0000 -0.1327901945
C   C5        1.0  0.10530  0.84510  0.10540  1.0000 0.0787776677
C   C6        1.0  0.14880  0.02110  0.19540  1.0000 0.3622093037
C   C7        1.0  0.20230  0.11430  0.25650  1.0000 0.3677641647
C   C8        1.0  0.06120  0.09360  0.22180  1.0000 0.3622093037
C   C9        1.0  0.30200  0.20080  0.37040  1.0000 0.05993219
C   C10       1.0  0.23990  0.17400  0.33360  1.0000 -0.1327901945
C   C11       1.0  0.27140  0.14950  0.29630  1.0000 0.05993219
C   C12       1.0  0.36520  0.15270  0.29750  1.0000 -0.1497143492
C   C13       1.0  0.42630  0.18250  0.33580  1.0000 0.0907096656
C   C14       1.0  0.80720  0.08410  0.19130  1.0000 0.0704543769
C   C15       1.0  0.89050  0.06780  0.19170  1.0000 -0.1605906886
C   C16       1.0  0.97050  0.11290  0.21940  1.0000 0.0704543769
C   C17       1.0  0.96300  0.17630  0.24990  1.0000 -0.1605906886
C   C18       1.0  0.87250  0.18560  0.24870  1.0000 0.0704543769
C   C19       1.0  0.75450  0.29700  0.18420  1.0000 0.0704543769
C   C20       1.0  0.76930  0.34570  0.15780  1.0000 -0.1605906886
C   C21       1.0  0.70420  0.32610  0.12220  1.0000 0.0907096656
C   C22       1.0  0.63160  0.25880  0.11730  1.0000 -0.1809776457
C   C23       1.0  0.62280  0.21200  0.14420  1.0000 0.1015922217
C   C24       1.0  0.71530  0.37180  0.09020  1.0000 0.3441204662
C   C25       1.0  0.80770  0.46460  0.06380  1.0000 0.3677641647
C   C26       1.0  0.65680  0.39880  0.03610  1.0000 0.3522547568
C   C27       1.0  0.01300  0.60960  0.02940  1.0000 0.0787776677
C   C28       1.0  0.92680  0.55210  0.02830  1.0000 -0.1497143492
C   C29       1.0  0.90070  0.53010  0.06510  1.0000 0.0787776677
C   C30       1.0  0.95950  0.57110  0.10200  1.0000 -0.1327901945
C   C31       1.0  0.04630  0.62960  0.10080  1.0000 0.1015922217
C   C32       1.0  0.41550  0.30830  0.96860  1.0000 0.0704543769
C   C33       1.0  0.49290  0.31790  0.99640  1.0000 -0.1403358514
C   C34       1.0  0.57280  0.38420  0.00330  1.0000 0.0704543769
C   C35       1.0  0.57590  0.43690  0.97870  1.0000 -0.1403358514
C   C36       1.0  0.49660  0.42110  0.94900  1.0000 0.0704543769
C   C37       1.0  0.41370  0.24970  0.85070  1.0000 0.0787776677
C   C38       1.0  0.44150  0.20310  0.81910  1.0000 -0.1403358514
C   C39       1.0  0.37000  0.14250  0.79010  1.0000 0.05993219
C   C40       1.0  0.27650  0.13030  0.79460  1.0000 -0.1497143492
C   C41       1.0  0.25630  0.18290  0.82740  1.0000 0.0907096656
C   C42       1.0  0.39820  0.09060  0.75540  1.0000 0.3824180648
C   C43       1.0  0.51620  0.06140  0.72350  1.0000 0.3677641647
C   C44       1.0  0.36380  0.99030  0.69640  1.0000 0.3677641647
C   C45       1.0  0.75700  0.05450  0.69340  1.0000 0.0787776677
C   C46       1.0  0.65940  0.03740  0.69200  1.0000 -0.1605906886
C   C47       1.0  0.62120  0.08010  0.72300  1.0000 0.0704543769
C   C48       1.0  0.68610  0.13850  0.75480  1.0000 -0.1403358514
C   C49       1.0  0.78080  0.15530  0.75470  1.0000 0.0704543769
C   C50       1.0  0.12710  0.86450  0.63420  1.0000 0.0704543769
C   C51       1.0  0.19210  0.91870  0.66640  1.0000 -0.1497143492
C   C52       1.0  0.28910  0.93210  0.66300  1.0000 0.0516644451
C   C53       1.0  0.31420  0.88820  0.62910  1.0000 -0.1239231145
C   C54       1.0  0.23980  0.83140  0.59760  1.0000 0.0907096656
C   C55       1.0  0.06770  0.18540  0.65800  1.0000 0.0787776677
C   C56       1.0  0.10650  0.22950  0.63150  1.0000 -0.1497143492
C   C57       1.0  0.08370  0.29630  0.62900  1.0000 0.05993219
C   C58       1.0  0.02340  0.31780  0.65670  1.0000 -0.1403358514
C   C59       1.0  0.98820  0.26940  0.68520  1.0000 0.0907096656
C   C60       1.0  0.12550  0.34140  0.60020  1.0000 0.3622093037
C   C61       1.0  0.22320  0.35870  0.55010  1.0000 0.3824180648
C   C62       1.0  0.14050  0.44080  0.56920  1.0000 0.3824180648
C   C63       1.0  0.40720  0.35030  0.47750  1.0000 0.0516644451
C   C64       1.0  0.35400  0.37930  0.50170  1.0000 -0.1497143492
C   C65       1.0  0.28840  0.33010  0.52300  1.0000 0.0704543769
C   C66       1.0  0.28890  0.25750  0.51690  1.0000 -0.1403358514
C   C67       1.0  0.34700  0.22980  0.49190  1.0000 0.0907096656
C   C68       1.0  0.05570  0.61020  0.58920  1.0000 0.0704543769
C   C69       1.0  0.07330  0.54480  0.59460  1.0000 -0.1403358514
C   C70       1.0  0.11280  0.50740  0.56370  1.0000 0.0516644451
C   C71       1.0  0.12620  0.53220  0.52660  1.0000 -0.1497143492
C   C72       1.0  0.10200  0.59940  0.52490  1.0000 0.1015922217
C   C73       1.0  0.74300  0.11470  0.86390  1.0000 0.0787776677
C   C74       1.0  0.75160  0.05330  0.83550  1.0000 -0.1497143492
C   C75       1.0  0.83740  0.04300  0.83560  1.0000 0.0516644451
C   C76       1.0  0.91100  0.09560  0.86630  1.0000 -0.1327901945
C   C77       1.0  0.89470  0.15490  0.89460  1.0000 0.0787776677
C   C78       1.0  0.85120  0.97890  0.80460  1.0000 0.3622093037
C   C79       1.0  0.79770  0.88570  0.74350  1.0000 0.3677641647
C   C80       1.0  0.93880  0.90640  0.77820  1.0000 0.3622093037
C   C81       1.0  0.69800  0.79920  0.62960  1.0000 0.05993219
C   C82       1.0  0.76010  0.82600  0.66640  1.0000 -0.1327901945
C   C83       1.0  0.72860  0.85050  0.70370  1.0000 0.05993219
C   C84       1.0  0.63480  0.84730  0.70250  1.0000 -0.1497143492
C   C85       1.0  0.57370  0.81750  0.66420  1.0000 0.0907096656
C   C86       1.0  0.19280  0.91590  0.80870  1.0000 0.0704543769
C   C87       1.0  0.10950  0.93220  0.80830  1.0000 -0.1605906886
C   C88       1.0  0.02950  0.88710  0.78060  1.0000 0.0787776677
C   C89       1.0  0.03700  0.82370  0.75010  1.0000 -0.1605906886
C   C90       1.0  0.12750  0.81440  0.75130  1.0000 0.0704543769
C   C91       1.0  0.24550  0.70300  0.81580  1.0000 0.0704543769
C   C92       1.0  0.23070  0.65430  0.84220  1.0000 -0.1605906886
C   C93       1.0  0.29580  0.67390  0.87780  1.0000 0.0787776677
C   C94       1.0  0.36840  0.74120  0.88270  1.0000 -0.1809776457
C   C95       1.0  0.37720  0.78800  0.85580  1.0000 0.1015922217
C   C96       1.0  0.28470  0.62820  0.90980  1.0000 0.3441204662
C   C97       1.0  0.19230  0.53540  0.93620  1.0000 0.3677641647
C   C98       1.0  0.34320  0.60120  0.96390  1.0000 0.3522547568
C   C99       1.0  0.98700  0.39040  0.97060  1.0000 0.0787776677
C   C100      1.0  0.07320  0.44790  0.97170  1.0000 -0.1497143492
C   C101      1.0  0.09930  0.46990  0.93490  1.0000 0.0787776677
C   C102      1.0  0.04050  0.42890  0.89800  1.0000 -0.1327901945
C   C103      1.0  0.95370  0.37040  0.89920  1.0000 0.1015922217
C   C104      1.0  0.58450  0.69170  0.03140  1.0000 0.0704543769
C   C105      1.0  0.50710  0.68210  0.00360  1.0000 -0.1403358514
C   C106      1.0  0.42720  0.61580  0.99670  1.0000 0.0704543769
C   C107      1.0  0.42410  0.56310  0.02130  1.0000 -0.1403358514
C   C108      1.0  0.50340  0.57890  0.05100  1.0000 0.0704543769
C   C109      1.0  0.58630  0.75030  0.14930  1.0000 0.0787776677
C   C110      1.0  0.55850  0.79690  0.18090  1.0000 -0.1403358514
C   C111      1.0  0.63000  0.85750  0.20990  1.0000 0.05993219
C   C112      1.0  0.72350  0.86970  0.20540  1.0000 -0.1497143492
C   C113      1.0  0.74370  0.81710  0.17260  1.0000 0.0907096656
C   C114      1.0  0.60180  0.90940  0.24460  1.0000 0.3824180648
C   C115      1.0  0.48380  0.93860  0.27650  1.0000 0.3677641647
C   C116      1.0  0.63620  0.00970  0.30360  1.0000 0.3677641647
C   C117      1.0  0.24300  0.94550  0.30660  1.0000 0.0787776677
C   C118      1.0  0.34060  0.96260  0.30800  1.0000 -0.1605906886
C   C119      1.0  0.37880  0.91990  0.27700  1.0000 0.0704543769
C   C120      1.0  0.31390  0.86150  0.24520  1.0000 -0.1403358514
C   C121      1.0  0.21920  0.84470  0.24530  1.0000 0.0704543769
C   C122      1.0  0.87290  0.13550  0.36580  1.0000 0.0704543769
C   C123      1.0  0.80790  0.08130  0.33360  1.0000 -0.1497143492
C   C124      1.0  0.71090  0.06790  0.33700  1.0000 0.0516644451
C   C125      1.0  0.68580  0.11180  0.37090  1.0000 -0.1239231145
C   C126      1.0  0.76020  0.16860  0.40240  1.0000 0.0907096656
C   C127      1.0  0.93230  0.81460  0.34200  1.0000 0.0787776677
C   C128      1.0  0.89350  0.77050  0.36850  1.0000 -0.1403358514
C   C129      1.0  0.91630  0.70370  0.37100  1.0000 0.05993219
C   C130      1.0  0.97660  0.68220  0.34330  1.0000 -0.1403358514
C   C131      1.0  0.01180  0.73060  0.31480  1.0000 0.0907096656
C   C132      1.0  0.87450  0.65860  0.39980  1.0000 0.3622093037
C   C133      1.0  0.77680  0.64130  0.44990  1.0000 0.3824180648
C   C134      1.0  0.85950  0.55920  0.43080  1.0000 0.3824180648
C   C135      1.0  0.59280  0.64970  0.52250  1.0000 0.0516644451
C   C136      1.0  0.64600  0.62070  0.49830  1.0000 -0.1497143492
C   C137      1.0  0.71160  0.66990  0.47700  1.0000 0.0704543769
C   C138      1.0  0.71110  0.74250  0.48310  1.0000 -0.1403358514
C   C139      1.0  0.65300  0.77020  0.50810  1.0000 0.0907096656
C   C140      1.0  0.94430  0.38980  0.41080  1.0000 0.0704543769
C   C141      1.0  0.92670  0.45520  0.40540  1.0000 -0.1403358514
C   C142      1.0  0.88720  0.49260  0.43630  1.0000 0.0516644451
C   C143      1.0  0.87380  0.46780  0.47340  1.0000 -0.1497143492
C   C144      1.0  0.89800  0.40060  0.47510  1.0000 0.1015922217
I   I1        1.0  0.32843  0.70150  0.10322  1.0000 -0.4470041955
I   I2        1.0  0.21229  0.75712  0.99385  1.0000 -0.4470041955
I   I3        1.0  0.53017  0.03892  0.18940  1.0000 -0.43899473
I   I4        1.0  0.67843  0.25035  0.29478  1.0000 -0.43899473
I   I5        1.0  0.15581  0.27297  0.93257  1.0000 -0.43899473
I   I6        1.0  0.32759  0.44172  0.86321  1.0000 -0.43899473
I   I7        1.0  0.03527  0.24113  0.80167  1.0000 -0.43899473
I   I8        1.0  0.01394  0.02345  0.70947  1.0000 -0.4314683219
I   I9        1.0  0.63914  0.33026  0.42521  1.0000 -0.4314683219
I   I10       1.0  0.46911  0.09226  0.43642  1.0000 -0.4616574014
I   I11       1.0  0.88270  0.72657  0.57748  1.0000 -0.4470041955
I   I12       1.0  0.07970  0.76753  0.48241  1.0000 -0.4616574014
I   I13       1.0  0.67157  0.29850  0.89678  1.0000 -0.4470041955
I   I14       1.0  0.78771  0.24288  0.00615  1.0000 -0.4470041955
I   I15       1.0  0.46983  0.96108  0.81060  1.0000 -0.43899473
I   I16       1.0  0.32157  0.74965  0.70522  1.0000 -0.43899473
I   I17       1.0  0.84419  0.72703  0.06743  1.0000 -0.43899473
I   I18       1.0  0.67241  0.55828  0.13679  1.0000 -0.43899473
I   I19       1.0  0.96473  0.75887  0.19833  1.0000 -0.43899473
I   I20       1.0  0.98606  0.97655  0.29053  1.0000 -0.4314683219
I   I21       1.0  0.36086  0.66974  0.57479  1.0000 -0.4314683219
I   I22       1.0  0.53089  0.90774  0.56358  1.0000 -0.4616574014
I   I23       1.0  0.11730  0.27343  0.42252  1.0000 -0.4470041955
I   I24       1.0  0.92030  0.23247  0.51759  1.0000 -0.4663558667
N   N1        1.0  0.18740  0.83190  0.10850  1.0000 -0.1809776457
N   N2        1.0  0.21890  0.05900  0.22770  1.0000 -0.3807524359
N   N3        1.0  0.12670  0.13730  0.25510  1.0000 -0.3880403315
N   N4        1.0  0.06800  0.03680  0.19070  1.0000 -0.3880403315
N   N5        1.0  0.39630  0.20520  0.37220  1.0000 -0.1809776457
N   N6        1.0  0.79610  0.14200  0.22070  1.0000 -0.1809776457
N   N7        1.0  0.68130  0.23100  0.17690  1.0000 -0.1809776457
N   N8        1.0  0.80410  0.42800  0.09330  1.0000 -0.3807524359
N   N9        1.0  0.73840  0.45500  0.03340  1.0000 -0.3880403315
N   N10       1.0  0.64240  0.35530  0.06290  1.0000 -0.3604416912
N   N11       1.0  0.07030  0.64960  0.06560  1.0000 -0.1877754917
N   N12       1.0  0.41560  0.35810  0.94400  1.0000 -0.2010726844
N   N13       1.0  0.32310  0.24150  0.85540  1.0000 -0.1809776457
N   N14       1.0  0.49370  0.10880  0.75490  1.0000 -0.400411354
N   N15       1.0  0.45470  0.00280  0.69280  1.0000 -0.3807524359
N   N16       1.0  0.32900  0.03460  0.72770  1.0000 -0.3880403315
N   N17       1.0  0.81800  0.11420  0.72430  1.0000 -0.1809776457
N   N18       1.0  0.14750  0.82260  0.59930  1.0000 -0.1809776457
N   N19       1.0  0.00910  0.20480  0.68380  1.0000 -0.1877754917
N   N20       1.0  0.18710  0.31680  0.57730  1.0000 -0.400411354
N   N21       1.0  0.20040  0.42050  0.54360  1.0000 -0.3880403315
N   N22       1.0  0.10300  0.40440  0.59770  1.0000 -0.400411354
N   N23       1.0  0.40480  0.27530  0.47080  1.0000 -0.1809776457
N   N24       1.0  0.07010  0.63730  0.55510  1.0000 -0.1877754917
N   N25       1.0  0.81260  0.16810  0.89150  1.0000 -0.1809776457
N   N26       1.0  0.78110  0.94100  0.77230  1.0000 -0.3807524359
N   N27       1.0  0.87330  0.86270  0.74490  1.0000 -0.3880403315
N   N28       1.0  0.93200  0.96320  0.80930  1.0000 -0.3880403315
N   N29       1.0  0.60370  0.79480  0.62780  1.0000 -0.1809776457
N   N30       1.0  0.20390  0.85800  0.77930  1.0000 -0.1809776457
N   N31       1.0  0.31870  0.76900  0.82310  1.0000 -0.1809776457
N   N32       1.0  0.19590  0.57200  0.90670  1.0000 -0.3807524359
N   N33       1.0  0.26160  0.54500  0.96660  1.0000 -0.3880403315
N   N34       1.0  0.35760  0.64470  0.93710  1.0000 -0.3604416912
N   N35       1.0  0.92970  0.35040  0.93440  1.0000 -0.1877754917
N   N36       1.0  0.58440  0.64190  0.05600  1.0000 -0.2010726844
N   N37       1.0  0.67690  0.75850  0.14460  1.0000 -0.1809776457
N   N38       1.0  0.50630  0.89120  0.24510  1.0000 -0.400411354
N   N39       1.0  0.54530  0.99720  0.30720  1.0000 -0.3807524359
N   N40       1.0  0.67100  0.96540  0.27230  1.0000 -0.3880403315
N   N41       1.0  0.18200  0.88580  0.27570  1.0000 -0.1809776457
N   N42       1.0  0.85250  0.17740  0.40070  1.0000 -0.1809776457
N   N43       1.0  0.99090  0.79520  0.31620  1.0000 -0.1877754917
N   N44       1.0  0.81290  0.68320  0.42270  1.0000 -0.400411354
N   N45       1.0  0.79960  0.57950  0.45640  1.0000 -0.3880403315
N   N46       1.0  0.89700  0.59560  0.40230  1.0000 -0.400411354
N   N47       1.0  0.59520  0.72470  0.52920  1.0000 -0.1809776457
N   N48       1.0  0.92990  0.36270  0.44490  1.0000 -0.1877754917
