# DDEC6 charges by PACMAN v1.1 (https://github.com/mtap-research/PACMAN-charge/)
data_2013[Cu][tbo]3[ASR]4
_chemical_formula_sum              "Cu12 H24 C72 O48"
_cell_length_a       18.6229
_cell_length_b       18.6229
_cell_length_c       18.6229
_cell_angle_alpha    60
_cell_angle_beta     60
_cell_angle_gamma    60

_symmetry_space_group_name_H-M    "P 1"
_symmetry_Int_Tables_number       1

loop_
  _symmetry_equiv_pos_as_xyz
  'x, y, z'

loop_
  _atom_site_type_symbol
  _atom_site_label
  _atom_site_symmetry_multiplicity
  _atom_site_fract_x
  _atom_site_fract_y
  _atom_site_fract_z
  _atom_site_occupancy
  _atom_site_charge
Cu  Cu1       1.0  0.57080  0.00000  0.42920  1.0000 0.8622212699
Cu  Cu2       1.0  0.00000  0.57080  0.00000  1.0000 0.8622212699
Cu  Cu3       1.0  0.42920  0.00000  0.57080  1.0000 0.8622212699
Cu  Cu4       1.0  0.00000  0.42920  0.00000  1.0000 0.8622212699
Cu  Cu5       1.0  0.42920  0.57080  0.00000  1.0000 0.8622212699
Cu  Cu6       1.0  0.00000  0.00000  0.57080  1.0000 0.8622212699
Cu  Cu7       1.0  0.57080  0.42920  0.00000  1.0000 0.8622212699
Cu  Cu8       1.0  0.00000  0.00000  0.42920  1.0000 0.8622212699
Cu  Cu9       1.0  0.00000  0.42920  0.57080  1.0000 0.8622212699
Cu  Cu10      1.0  0.57080  0.00000  0.00000  1.0000 0.8622212699
Cu  Cu11      1.0  0.00000  0.57080  0.42920  1.0000 0.8622212699
Cu  Cu12      1.0  0.42920  0.00000  0.00000  1.0000 0.8622212699
H   H1        1.0  0.49010  0.27410  0.27410  1.0000 0.1366651012
H   H2        1.0  0.27410  0.49010  0.96170  1.0000 0.1366651012
H   H3        1.0  0.27410  0.96170  0.49010  1.0000 0.1366651012
H   H4        1.0  0.96170  0.27410  0.27410  1.0000 0.1366651012
H   H5        1.0  0.27410  0.49010  0.27410  1.0000 0.1366651012
H   H6        1.0  0.96170  0.27410  0.49010  1.0000 0.1366651012
H   H7        1.0  0.49010  0.27410  0.96170  1.0000 0.1366651012
H   H8        1.0  0.27410  0.96170  0.27410  1.0000 0.1366651012
H   H9        1.0  0.27410  0.27410  0.49010  1.0000 0.1366651012
H   H10       1.0  0.49010  0.96170  0.27410  1.0000 0.1366651012
H   H11       1.0  0.96170  0.49010  0.27410  1.0000 0.1366651012
H   H12       1.0  0.27410  0.27410  0.96170  1.0000 0.1366651012
H   H13       1.0  0.50990  0.72590  0.03830  1.0000 0.1366651012
H   H14       1.0  0.72590  0.50990  0.72590  1.0000 0.1366651012
H   H15       1.0  0.72590  0.03830  0.72590  1.0000 0.1366651012
H   H16       1.0  0.03830  0.72590  0.50990  1.0000 0.1366651012
H   H17       1.0  0.72590  0.50990  0.03830  1.0000 0.1366651012
H   H18       1.0  0.03830  0.72590  0.72590  1.0000 0.1366651012
H   H19       1.0  0.50990  0.72590  0.72590  1.0000 0.1366651012
H   H20       1.0  0.72590  0.03830  0.50990  1.0000 0.1366651012
H   H21       1.0  0.72590  0.72590  0.03830  1.0000 0.1366651012
H   H22       1.0  0.50990  0.03830  0.72590  1.0000 0.1366651012
H   H23       1.0  0.03830  0.50990  0.72590  1.0000 0.1366651012
H   H24       1.0  0.72590  0.72590  0.50990  1.0000 0.1366651012
C   C1        1.0  0.38890  0.25790  0.38890  1.0000 -0.059243947
C   C2        1.0  0.25790  0.38890  0.96430  1.0000 -0.059243947
C   C3        1.0  0.38890  0.96430  0.38890  1.0000 -0.059243947
C   C4        1.0  0.96430  0.38890  0.25790  1.0000 -0.059243947
C   C5        1.0  0.38890  0.38890  0.25790  1.0000 -0.059243947
C   C6        1.0  0.96430  0.25790  0.38890  1.0000 -0.059243947
C   C7        1.0  0.38890  0.38890  0.96430  1.0000 -0.059243947
C   C8        1.0  0.25790  0.96430  0.38890  1.0000 -0.059243947
C   C9        1.0  0.25790  0.38890  0.38890  1.0000 -0.059243947
C   C10       1.0  0.38890  0.96430  0.25790  1.0000 -0.059243947
C   C11       1.0  0.96430  0.38890  0.38890  1.0000 -0.059243947
C   C12       1.0  0.38890  0.25790  0.96430  1.0000 -0.059243947
C   C13       1.0  0.61110  0.74210  0.03570  1.0000 -0.059243947
C   C14       1.0  0.74210  0.61110  0.61110  1.0000 -0.059243947
C   C15       1.0  0.61110  0.03570  0.74210  1.0000 -0.059243947
C   C16       1.0  0.03570  0.61110  0.61110  1.0000 -0.059243947
C   C17       1.0  0.61110  0.61110  0.03570  1.0000 -0.059243947
C   C18       1.0  0.03570  0.74210  0.61110  1.0000 -0.059243947
C   C19       1.0  0.61110  0.61110  0.74210  1.0000 -0.059243947
C   C20       1.0  0.74210  0.03570  0.61110  1.0000 -0.059243947
C   C21       1.0  0.74210  0.61110  0.03570  1.0000 -0.059243947
C   C22       1.0  0.61110  0.03570  0.61110  1.0000 -0.059243947
C   C23       1.0  0.03570  0.61110  0.74210  1.0000 -0.059243947
C   C24       1.0  0.61110  0.74210  0.61110  1.0000 -0.059243947
C   C25       1.0  0.43200  0.30240  0.30240  1.0000 -0.059243947
C   C26       1.0  0.30240  0.43200  0.96320  1.0000 -0.059243947
C   C27       1.0  0.30240  0.96320  0.43200  1.0000 -0.059243947
C   C28       1.0  0.96320  0.30240  0.30240  1.0000 -0.059243947
C   C29       1.0  0.30240  0.43200  0.30240  1.0000 -0.059243947
C   C30       1.0  0.96320  0.30240  0.43200  1.0000 -0.059243947
C   C31       1.0  0.43200  0.30240  0.96320  1.0000 -0.059243947
C   C32       1.0  0.30240  0.96320  0.30240  1.0000 -0.059243947
C   C33       1.0  0.30240  0.30240  0.43200  1.0000 -0.059243947
C   C34       1.0  0.43200  0.96320  0.30240  1.0000 -0.059243947
C   C35       1.0  0.96320  0.43200  0.30240  1.0000 -0.059243947
C   C36       1.0  0.30240  0.30240  0.96320  1.0000 -0.059243947
C   C37       1.0  0.56800  0.69760  0.03680  1.0000 -0.059243947
C   C38       1.0  0.69760  0.56800  0.69760  1.0000 -0.059243947
C   C39       1.0  0.69760  0.03680  0.69760  1.0000 -0.059243947
C   C40       1.0  0.03680  0.69760  0.56800  1.0000 -0.059243947
C   C41       1.0  0.69760  0.56800  0.03680  1.0000 -0.059243947
C   C42       1.0  0.03680  0.69760  0.69760  1.0000 -0.059243947
C   C43       1.0  0.56800  0.69760  0.69760  1.0000 -0.059243947
C   C44       1.0  0.69760  0.03680  0.56800  1.0000 -0.059243947
C   C45       1.0  0.69760  0.69760  0.03680  1.0000 -0.059243947
C   C46       1.0  0.56800  0.03680  0.69760  1.0000 -0.059243947
C   C47       1.0  0.03680  0.56800  0.69760  1.0000 -0.059243947
C   C48       1.0  0.69760  0.69760  0.56800  1.0000 -0.059243947
C   C49       1.0  0.43140  0.16400  0.43140  1.0000 0.5826345474
C   C50       1.0  0.16400  0.43140  0.97320  1.0000 0.5826345474
C   C51       1.0  0.43140  0.97320  0.43140  1.0000 0.5826345474
C   C52       1.0  0.97320  0.43140  0.16400  1.0000 0.5826345474
C   C53       1.0  0.43140  0.43140  0.16400  1.0000 0.5826345474
C   C54       1.0  0.97320  0.16400  0.43140  1.0000 0.5826345474
C   C55       1.0  0.43140  0.43140  0.97320  1.0000 0.5826345474
C   C56       1.0  0.16400  0.97320  0.43140  1.0000 0.5826345474
C   C57       1.0  0.16400  0.43140  0.43140  1.0000 0.5826345474
C   C58       1.0  0.43140  0.97320  0.16400  1.0000 0.5826345474
C   C59       1.0  0.97320  0.43140  0.43140  1.0000 0.5826345474
C   C60       1.0  0.43140  0.16400  0.97320  1.0000 0.5826345474
C   C61       1.0  0.56860  0.83600  0.02680  1.0000 0.5826345474
C   C62       1.0  0.83600  0.56860  0.56860  1.0000 0.5826345474
C   C63       1.0  0.56860  0.02680  0.83600  1.0000 0.5826345474
C   C64       1.0  0.02680  0.56860  0.56860  1.0000 0.5826345474
C   C65       1.0  0.56860  0.56860  0.02680  1.0000 0.5826345474
C   C66       1.0  0.02680  0.83600  0.56860  1.0000 0.5826345474
C   C67       1.0  0.56860  0.56860  0.83600  1.0000 0.5826345474
C   C68       1.0  0.83600  0.02680  0.56860  1.0000 0.5826345474
C   C69       1.0  0.83600  0.56860  0.02680  1.0000 0.5826345474
C   C70       1.0  0.56860  0.02680  0.56860  1.0000 0.5826345474
C   C71       1.0  0.02680  0.56860  0.83600  1.0000 0.5826345474
C   C72       1.0  0.56860  0.83600  0.56860  1.0000 0.5826345474
O   O1        1.0  0.50747  0.12611  0.38783  1.0000 -0.5159611947
O   O2        1.0  0.12611  0.50747  0.97859  1.0000 -0.5159611947
O   O3        1.0  0.38783  0.97859  0.50747  1.0000 -0.5159611947
O   O4        1.0  0.97859  0.38783  0.12611  1.0000 -0.5159611947
O   O5        1.0  0.38783  0.50747  0.12611  1.0000 -0.5159611947
O   O6        1.0  0.97859  0.12611  0.50747  1.0000 -0.5159611947
O   O7        1.0  0.50747  0.38783  0.97859  1.0000 -0.5159611947
O   O8        1.0  0.12611  0.97859  0.38783  1.0000 -0.5159611947
O   O9        1.0  0.12611  0.38783  0.50747  1.0000 -0.5159611947
O   O10       1.0  0.50747  0.97859  0.12611  1.0000 -0.5159611947
O   O11       1.0  0.97859  0.50747  0.38783  1.0000 -0.5159611947
O   O12       1.0  0.38783  0.12611  0.97859  1.0000 -0.5159611947
O   O13       1.0  0.49253  0.87389  0.02141  1.0000 -0.5159611947
O   O14       1.0  0.87389  0.49253  0.61217  1.0000 -0.5159611947
O   O15       1.0  0.61217  0.02141  0.87389  1.0000 -0.5159611947
O   O16       1.0  0.02141  0.61217  0.49253  1.0000 -0.5159611947
O   O17       1.0  0.61217  0.49253  0.02141  1.0000 -0.5159611947
O   O18       1.0  0.02141  0.87389  0.61217  1.0000 -0.5159611947
O   O19       1.0  0.49253  0.61217  0.87389  1.0000 -0.5159611947
O   O20       1.0  0.87389  0.02141  0.49253  1.0000 -0.5159611947
O   O21       1.0  0.87389  0.61217  0.02141  1.0000 -0.5159611947
O   O22       1.0  0.49253  0.02141  0.61217  1.0000 -0.5159611947
O   O23       1.0  0.02141  0.49253  0.87389  1.0000 -0.5159611947
O   O24       1.0  0.61217  0.87389  0.49253  1.0000 -0.5159611947
O   O25       1.0  0.49253  0.87389  0.61217  1.0000 -0.5159611947
O   O26       1.0  0.87389  0.49253  0.02141  1.0000 -0.5159611947
O   O27       1.0  0.61217  0.02141  0.49253  1.0000 -0.5159611947
O   O28       1.0  0.02141  0.61217  0.87389  1.0000 -0.5159611947
O   O29       1.0  0.61217  0.49253  0.87389  1.0000 -0.5159611947
O   O30       1.0  0.02141  0.87389  0.49253  1.0000 -0.5159611947
O   O31       1.0  0.49253  0.61217  0.02141  1.0000 -0.5159611947
O   O32       1.0  0.87389  0.02141  0.61217  1.0000 -0.5159611947
O   O33       1.0  0.87389  0.61217  0.49253  1.0000 -0.5159611947
O   O34       1.0  0.49253  0.02141  0.87389  1.0000 -0.5159611947
O   O35       1.0  0.02141  0.49253  0.61217  1.0000 -0.5159611947
O   O36       1.0  0.61217  0.87389  0.02141  1.0000 -0.5159611947
O   O37       1.0  0.50747  0.12611  0.97859  1.0000 -0.5159611947
O   O38       1.0  0.12611  0.50747  0.38783  1.0000 -0.5159611947
O   O39       1.0  0.38783  0.97859  0.12611  1.0000 -0.5159611947
O   O40       1.0  0.97859  0.38783  0.50747  1.0000 -0.5159611947
O   O41       1.0  0.38783  0.50747  0.97859  1.0000 -0.5159611947
O   O42       1.0  0.97859  0.12611  0.38783  1.0000 -0.5159611947
O   O43       1.0  0.50747  0.38783  0.12611  1.0000 -0.5159611947
O   O44       1.0  0.12611  0.97859  0.50747  1.0000 -0.5159611947
O   O45       1.0  0.12611  0.38783  0.97859  1.0000 -0.5159611947
O   O46       1.0  0.50747  0.97859  0.38783  1.0000 -0.5159611947
O   O47       1.0  0.97859  0.50747  0.12611  1.0000 -0.5159611947
O   O48       1.0  0.38783  0.12611  0.50747  1.0000 -0.5159611947
