# DDEC6 charges by PACMAN v1.1 (https://github.com/mtap-research/PACMAN-charge/)
data_2013[La][llj]3[ASR]1
_chemical_formula_sum              "La16 B16 H576 C532 O108"
_cell_length_a       18.4835
_cell_length_b       27.1472
_cell_length_c       37.927
_cell_angle_alpha    90
_cell_angle_beta     90
_cell_angle_gamma    90

_symmetry_space_group_name_H-M    "P 1"
_symmetry_Int_Tables_number       1

loop_
  _symmetry_equiv_pos_as_xyz
  'x, y, z'

loop_
  _atom_site_type_symbol
  _atom_site_label
  _atom_site_symmetry_multiplicity
  _atom_site_fract_x
  _atom_site_fract_y
  _atom_site_fract_z
  _atom_site_occupancy
  _atom_site_charge
La  La1       1.0  0.62619  0.74087  0.02339  1.0000 1.9280320708
La  La2       1.0  0.62619  0.25913  0.47661  1.0000 1.9280320708
La  La3       1.0  0.87381  0.75913  0.02339  1.0000 1.9280320708
La  La4       1.0  0.87381  0.24087  0.47661  1.0000 1.9280320708
La  La5       1.0  0.37381  0.25913  0.97661  1.0000 1.9280320708
La  La6       1.0  0.37381  0.74087  0.52339  1.0000 1.9280320708
La  La7       1.0  0.12619  0.24087  0.97661  1.0000 1.9280320708
La  La8       1.0  0.12619  0.75913  0.52339  1.0000 1.9280320708
La  La9       1.0  0.61948  0.74851  0.90057  1.0000 1.8581839506
La  La10      1.0  0.61948  0.25149  0.59943  1.0000 1.8581839506
La  La11      1.0  0.88052  0.75149  0.90057  1.0000 1.8531206553
La  La12      1.0  0.88052  0.24851  0.59943  1.0000 1.8581839506
La  La13      1.0  0.38052  0.25149  0.09943  1.0000 1.8581839506
La  La14      1.0  0.38052  0.74851  0.40057  1.0000 1.8581839506
La  La15      1.0  0.11948  0.24851  0.09943  1.0000 1.8581839506
La  La16      1.0  0.11948  0.75149  0.40057  1.0000 1.8531206553
B   B1        1.0  0.24420  0.56340  0.96750  1.0000 0.4360425358
B   B2        1.0  0.24420  0.43660  0.53250  1.0000 0.4360425358
B   B3        1.0  0.25580  0.93660  0.96750  1.0000 0.4360425358
B   B4        1.0  0.25580  0.06340  0.53250  1.0000 0.4360425358
B   B5        1.0  0.75580  0.43660  0.03250  1.0000 0.4360425358
B   B6        1.0  0.75580  0.56340  0.46750  1.0000 0.4360425358
B   B7        1.0  0.74420  0.06340  0.03250  1.0000 0.4360425358
B   B8        1.0  0.74420  0.93660  0.46750  1.0000 0.4360425358
B   B9        1.0  0.25000  0.75000  0.75320  1.0000 0.4360425358
B   B10       1.0  0.25000  0.25000  0.74680  1.0000 0.4335846607
B   B11       1.0  0.75000  0.25000  0.24680  1.0000 0.4335846607
B   B12       1.0  0.75000  0.75000  0.25320  1.0000 0.4360425358
B   B13       1.0  0.75000  0.75000  0.67500  1.0000 0.423793674
B   B14       1.0  0.75000  0.25000  0.82500  1.0000 0.423793674
B   B15       1.0  0.25000  0.25000  0.32500  1.0000 0.423793674
B   B16       1.0  0.25000  0.75000  0.17500  1.0000 0.423793674
H   H1        1.0  0.44460  0.72340  0.00720  1.0000 0.1318044756
H   H2        1.0  0.44460  0.27660  0.49280  1.0000 0.1318044756
H   H3        1.0  0.05540  0.77660  0.00720  1.0000 0.1318044756
H   H4        1.0  0.05540  0.22340  0.49280  1.0000 0.1318044756
H   H5        1.0  0.55540  0.27660  0.99280  1.0000 0.1318044756
H   H6        1.0  0.55540  0.72340  0.50720  1.0000 0.1318044756
H   H7        1.0  0.94460  0.22340  0.99280  1.0000 0.1318044756
H   H8        1.0  0.94460  0.77660  0.50720  1.0000 0.1318044756
H   H9        1.0  0.36060  0.73060  0.00420  1.0000 0.1391346754
H   H10       1.0  0.36060  0.26940  0.49580  1.0000 0.1391346754
H   H11       1.0  0.13940  0.76940  0.00420  1.0000 0.1391346754
H   H12       1.0  0.13940  0.23060  0.49580  1.0000 0.1391346754
H   H13       1.0  0.63940  0.26940  0.99580  1.0000 0.1391346754
H   H14       1.0  0.63940  0.73060  0.50420  1.0000 0.1391346754
H   H15       1.0  0.86060  0.23060  0.99580  1.0000 0.1391346754
H   H16       1.0  0.86060  0.76940  0.50420  1.0000 0.1391346754
H   H17       1.0  0.39320  0.70000  0.03550  1.0000 0.1479706962
H   H18       1.0  0.39320  0.30000  0.46450  1.0000 0.1391346754
H   H19       1.0  0.10680  0.80000  0.03550  1.0000 0.1479706962
H   H20       1.0  0.10680  0.20000  0.46450  1.0000 0.1391346754
H   H21       1.0  0.60680  0.30000  0.96450  1.0000 0.1391346754
H   H22       1.0  0.60680  0.70000  0.53550  1.0000 0.1391346754
H   H23       1.0  0.89320  0.20000  0.96450  1.0000 0.1391346754
H   H24       1.0  0.89320  0.80000  0.53550  1.0000 0.1391346754
H   H25       1.0  0.29030  0.67500  0.03070  1.0000 0.1318044756
H   H26       1.0  0.29030  0.32500  0.46930  1.0000 0.1318044756
H   H27       1.0  0.20970  0.82500  0.03070  1.0000 0.1318044756
H   H28       1.0  0.20970  0.17500  0.46930  1.0000 0.1318044756
H   H29       1.0  0.70970  0.32500  0.96930  1.0000 0.1318044756
H   H30       1.0  0.70970  0.67500  0.53070  1.0000 0.1318044756
H   H31       1.0  0.79030  0.17500  0.96930  1.0000 0.1318044756
H   H32       1.0  0.79030  0.82500  0.53070  1.0000 0.1318044756
H   H33       1.0  0.22840  0.65160  0.00790  1.0000 0.1391346754
H   H34       1.0  0.22840  0.34840  0.49210  1.0000 0.1391346754
H   H35       1.0  0.27160  0.84840  0.00790  1.0000 0.1391346754
H   H36       1.0  0.27160  0.15160  0.49210  1.0000 0.1391346754
H   H37       1.0  0.77160  0.34840  0.99210  1.0000 0.1391346754
H   H38       1.0  0.77160  0.65160  0.50790  1.0000 0.1391346754
H   H39       1.0  0.72840  0.15160  0.99210  1.0000 0.1391346754
H   H40       1.0  0.72840  0.84840  0.50790  1.0000 0.1391346754
H   H41       1.0  0.27090  0.61910  0.03510  1.0000 0.1391346754
H   H42       1.0  0.27090  0.38090  0.46490  1.0000 0.1391346754
H   H43       1.0  0.22910  0.88090  0.03510  1.0000 0.1391346754
H   H44       1.0  0.22910  0.11910  0.46490  1.0000 0.1391346754
H   H45       1.0  0.72910  0.38090  0.96490  1.0000 0.1391346754
H   H46       1.0  0.72910  0.61910  0.53510  1.0000 0.1391346754
H   H47       1.0  0.77090  0.11910  0.96490  1.0000 0.1391346754
H   H48       1.0  0.77090  0.88090  0.53510  1.0000 0.1391346754
H   H49       1.0  0.31900  0.52210  0.92130  1.0000 0.1205404765
H   H50       1.0  0.31900  0.47790  0.57870  1.0000 0.1205404765
H   H51       1.0  0.18100  0.97790  0.92130  1.0000 0.1205404765
H   H52       1.0  0.18100  0.02210  0.57870  1.0000 0.1205404765
H   H53       1.0  0.68100  0.47790  0.07870  1.0000 0.1205404765
H   H54       1.0  0.68100  0.52210  0.42130  1.0000 0.1205404765
H   H55       1.0  0.81900  0.02210  0.07870  1.0000 0.1205404765
H   H56       1.0  0.81900  0.97790  0.42130  1.0000 0.1205404765
H   H57       1.0  0.36400  0.55260  0.89390  1.0000 0.1318044756
H   H58       1.0  0.36400  0.44740  0.60610  1.0000 0.1318044756
H   H59       1.0  0.13600  0.94740  0.89390  1.0000 0.1318044756
H   H60       1.0  0.13600  0.05260  0.60610  1.0000 0.1318044756
H   H61       1.0  0.63600  0.44740  0.10610  1.0000 0.1318044756
H   H62       1.0  0.63600  0.55260  0.39390  1.0000 0.1318044756
H   H63       1.0  0.86400  0.05260  0.10610  1.0000 0.1318044756
H   H64       1.0  0.86400  0.94740  0.39390  1.0000 0.1318044756
H   H65       1.0  0.40300  0.51460  0.91860  1.0000 0.1391346754
H   H66       1.0  0.40300  0.48540  0.58140  1.0000 0.1391346754
H   H67       1.0  0.09700  0.98540  0.91860  1.0000 0.1391346754
H   H68       1.0  0.09700  0.01460  0.58140  1.0000 0.1391346754
H   H69       1.0  0.59700  0.48540  0.08140  1.0000 0.1391346754
H   H70       1.0  0.59700  0.51460  0.41860  1.0000 0.1391346754
H   H71       1.0  0.90300  0.01460  0.08140  1.0000 0.1391346754
H   H72       1.0  0.90300  0.98540  0.41860  1.0000 0.1391346754
H   H73       1.0  0.48870  0.56170  0.90560  1.0000 0.1205404765
H   H74       1.0  0.48870  0.43830  0.59440  1.0000 0.1205404765
H   H75       1.0  0.01130  0.93830  0.90560  1.0000 0.1205404765
H   H76       1.0  0.01130  0.06170  0.59440  1.0000 0.1205404765
H   H77       1.0  0.51130  0.43830  0.09440  1.0000 0.1205404765
H   H78       1.0  0.51130  0.56170  0.40560  1.0000 0.1205404765
H   H79       1.0  0.98870  0.06170  0.09440  1.0000 0.1205404765
H   H80       1.0  0.98870  0.93830  0.40560  1.0000 0.1205404765
H   H81       1.0  0.51520  0.61650  0.90310  1.0000 0.1479706962
H   H82       1.0  0.51520  0.38350  0.59690  1.0000 0.1479706962
H   H83       1.0  0.98480  0.88350  0.90310  1.0000 0.1479706962
H   H84       1.0  0.98480  0.11650  0.59690  1.0000 0.1479706962
H   H85       1.0  0.48480  0.38350  0.09690  1.0000 0.1479706962
H   H86       1.0  0.48480  0.61650  0.40310  1.0000 0.1479706962
H   H87       1.0  0.01520  0.11650  0.09690  1.0000 0.1479706962
H   H88       1.0  0.01520  0.88350  0.40310  1.0000 0.1479706962
H   H89       1.0  0.54410  0.58220  0.93330  1.0000 0.1318044756
H   H90       1.0  0.54410  0.41780  0.56670  1.0000 0.1318044756
H   H91       1.0  0.95590  0.91780  0.93330  1.0000 0.1318044756
H   H92       1.0  0.95590  0.08220  0.56670  1.0000 0.1318044756
H   H93       1.0  0.45590  0.41780  0.06670  1.0000 0.1318044756
H   H94       1.0  0.45590  0.58220  0.43330  1.0000 0.1318044756
H   H95       1.0  0.04410  0.08220  0.06670  1.0000 0.1318044756
H   H96       1.0  0.04410  0.91780  0.43330  1.0000 0.1318044756
H   H97       1.0  0.31440  0.54080  0.02240  1.0000 0.1205404765
H   H98       1.0  0.31440  0.45920  0.47760  1.0000 0.1205404765
H   H99       1.0  0.18560  0.95920  0.02240  1.0000 0.1205404765
H   H100      1.0  0.18560  0.04080  0.47760  1.0000 0.1205404765
H   H101      1.0  0.68560  0.45920  0.97760  1.0000 0.1205404765
H   H102      1.0  0.68560  0.54080  0.52240  1.0000 0.1205404765
H   H103      1.0  0.81440  0.04080  0.97760  1.0000 0.1205404765
H   H104      1.0  0.81440  0.95920  0.52240  1.0000 0.1205404765
H   H105      1.0  0.29060  0.49980  0.04910  1.0000 0.1318044756
H   H106      1.0  0.29060  0.50020  0.45090  1.0000 0.1318044756
H   H107      1.0  0.20940  0.00020  0.04910  1.0000 0.1318044756
H   H108      1.0  0.20940  0.99980  0.45090  1.0000 0.1318044756
H   H109      1.0  0.70940  0.50020  0.95090  1.0000 0.1318044756
H   H110      1.0  0.70940  0.49980  0.54910  1.0000 0.1318044756
H   H111      1.0  0.79060  0.99980  0.95090  1.0000 0.1318044756
H   H112      1.0  0.79060  0.00020  0.54910  1.0000 0.1318044756
H   H113      1.0  0.36330  0.49440  0.02820  1.0000 0.1318044756
H   H114      1.0  0.36330  0.50560  0.47180  1.0000 0.1318044756
H   H115      1.0  0.13670  0.00560  0.02820  1.0000 0.1318044756
H   H116      1.0  0.13670  0.99440  0.47180  1.0000 0.1318044756
H   H117      1.0  0.63670  0.50560  0.97180  1.0000 0.1318044756
H   H118      1.0  0.63670  0.49440  0.52820  1.0000 0.1318044756
H   H119      1.0  0.86330  0.99440  0.97180  1.0000 0.1318044756
H   H120      1.0  0.86330  0.00560  0.52820  1.0000 0.1318044756
H   H121      1.0  0.29080  0.36440  0.02750  1.0000 0.1391346754
H   H122      1.0  0.29080  0.63560  0.47250  1.0000 0.1391346754
H   H123      1.0  0.20920  0.13560  0.02750  1.0000 0.1391346754
H   H124      1.0  0.20920  0.86440  0.47250  1.0000 0.1391346754
H   H125      1.0  0.70920  0.63560  0.97250  1.0000 0.1391346754
H   H126      1.0  0.70920  0.36440  0.52750  1.0000 0.1391346754
H   H127      1.0  0.79080  0.86440  0.97250  1.0000 0.1391346754
H   H128      1.0  0.79080  0.13560  0.52750  1.0000 0.1391346754
H   H129      1.0  0.35110  0.40460  0.03170  1.0000 0.1391346754
H   H130      1.0  0.35110  0.59540  0.46830  1.0000 0.1391346754
H   H131      1.0  0.14890  0.09540  0.03170  1.0000 0.1391346754
H   H132      1.0  0.14890  0.90460  0.46830  1.0000 0.1391346754
H   H133      1.0  0.64890  0.59540  0.96830  1.0000 0.1391346754
H   H134      1.0  0.64890  0.40460  0.53170  1.0000 0.1391346754
H   H135      1.0  0.85110  0.90460  0.96830  1.0000 0.1391346754
H   H136      1.0  0.85110  0.09540  0.53170  1.0000 0.1391346754
H   H137      1.0  0.27760  0.41000  0.05200  1.0000 0.1391346754
H   H138      1.0  0.27760  0.59000  0.44800  1.0000 0.1391346754
H   H139      1.0  0.22240  0.09000  0.05200  1.0000 0.1391346754
H   H140      1.0  0.22240  0.91000  0.44800  1.0000 0.1391346754
H   H141      1.0  0.72240  0.59000  0.94800  1.0000 0.1391346754
H   H142      1.0  0.72240  0.41000  0.55200  1.0000 0.1391346754
H   H143      1.0  0.77760  0.91000  0.94800  1.0000 0.1391346754
H   H144      1.0  0.77760  0.09000  0.55200  1.0000 0.1391346754
H   H145      1.0  0.15520  0.36420  0.92260  1.0000 0.1479706962
H   H146      1.0  0.15520  0.63580  0.57740  1.0000 0.1479706962
H   H147      1.0  0.34480  0.13580  0.92260  1.0000 0.1479706962
H   H148      1.0  0.34480  0.86420  0.57740  1.0000 0.1479706962
H   H149      1.0  0.84480  0.63580  0.07740  1.0000 0.1479706962
H   H150      1.0  0.84480  0.36420  0.42260  1.0000 0.1479706962
H   H151      1.0  0.65520  0.86420  0.07740  1.0000 0.1479706962
H   H152      1.0  0.65520  0.13580  0.42260  1.0000 0.1479706962
H   H153      1.0  0.10460  0.40990  0.91680  1.0000 0.1391346754
H   H154      1.0  0.10460  0.59010  0.58320  1.0000 0.1391346754
H   H155      1.0  0.39540  0.09010  0.91680  1.0000 0.1391346754
H   H156      1.0  0.39540  0.90990  0.58320  1.0000 0.1391346754
H   H157      1.0  0.89540  0.59010  0.08320  1.0000 0.1391346754
H   H158      1.0  0.89540  0.40990  0.41680  1.0000 0.1391346754
H   H159      1.0  0.60460  0.90990  0.08320  1.0000 0.1391346754
H   H160      1.0  0.60460  0.09010  0.41680  1.0000 0.1391346754
H   H161      1.0  0.17590  0.40440  0.89470  1.0000 0.1318044756
H   H162      1.0  0.17590  0.59560  0.60530  1.0000 0.1318044756
H   H163      1.0  0.32410  0.09560  0.89470  1.0000 0.1318044756
H   H164      1.0  0.32410  0.90440  0.60530  1.0000 0.1318044756
H   H165      1.0  0.82410  0.59560  0.10530  1.0000 0.1318044756
H   H166      1.0  0.82410  0.40440  0.39470  1.0000 0.1318044756
H   H167      1.0  0.67590  0.90440  0.10530  1.0000 0.1318044756
H   H168      1.0  0.67590  0.09560  0.39470  1.0000 0.1391346754
H   H169      1.0  0.14180  0.48100  0.89780  1.0000 0.1126539787
H   H170      1.0  0.14180  0.51900  0.60220  1.0000 0.1126539787
H   H171      1.0  0.35820  0.01900  0.89780  1.0000 0.1126539787
H   H172      1.0  0.35820  0.98100  0.60220  1.0000 0.1126539787
H   H173      1.0  0.85820  0.51900  0.10220  1.0000 0.1126539787
H   H174      1.0  0.85820  0.48100  0.39780  1.0000 0.1126539787
H   H175      1.0  0.64180  0.98100  0.10220  1.0000 0.1126539787
H   H176      1.0  0.64180  0.01900  0.39780  1.0000 0.1126539787
H   H177      1.0  0.13130  0.52840  0.92080  1.0000 0.1391346754
H   H178      1.0  0.13130  0.47160  0.57920  1.0000 0.1391346754
H   H179      1.0  0.36870  0.97160  0.92080  1.0000 0.1391346754
H   H180      1.0  0.36870  0.02840  0.57920  1.0000 0.1391346754
H   H181      1.0  0.86870  0.47160  0.07920  1.0000 0.1391346754
H   H182      1.0  0.86870  0.52840  0.42080  1.0000 0.1391346754
H   H183      1.0  0.63130  0.02840  0.07920  1.0000 0.1391346754
H   H184      1.0  0.63130  0.97160  0.42080  1.0000 0.1391346754
H   H185      1.0  0.20230  0.52150  0.89870  1.0000 0.1318044756
H   H186      1.0  0.20230  0.47850  0.60130  1.0000 0.1318044756
H   H187      1.0  0.29770  0.97850  0.89870  1.0000 0.1318044756
H   H188      1.0  0.29770  0.02150  0.60130  1.0000 0.1318044756
H   H189      1.0  0.79770  0.47850  0.10130  1.0000 0.1318044756
H   H190      1.0  0.79770  0.52150  0.39870  1.0000 0.1318044756
H   H191      1.0  0.70230  0.02150  0.10130  1.0000 0.1318044756
H   H192      1.0  0.70230  0.97850  0.39870  1.0000 0.1318044756
H   H193      1.0  0.15760  0.52430  0.01240  1.0000 0.1318044756
H   H194      1.0  0.15760  0.47570  0.48760  1.0000 0.1318044756
H   H195      1.0  0.34240  0.97570  0.01240  1.0000 0.1318044756
H   H196      1.0  0.34240  0.02430  0.48760  1.0000 0.1318044756
H   H197      1.0  0.84240  0.47570  0.98760  1.0000 0.1318044756
H   H198      1.0  0.84240  0.52430  0.51240  1.0000 0.1318044756
H   H199      1.0  0.65760  0.02430  0.98760  1.0000 0.1318044756
H   H200      1.0  0.65760  0.97570  0.51240  1.0000 0.1318044756
H   H201      1.0  0.11110  0.55670  0.03810  1.0000 0.1391346754
H   H202      1.0  0.11110  0.44330  0.46190  1.0000 0.1391346754
H   H203      1.0  0.38890  0.94330  0.03810  1.0000 0.1391346754
H   H204      1.0  0.38890  0.05670  0.46190  1.0000 0.1391346754
H   H205      1.0  0.88890  0.44330  0.96190  1.0000 0.1391346754
H   H206      1.0  0.88890  0.55670  0.53810  1.0000 0.1391346754
H   H207      1.0  0.61110  0.05670  0.96190  1.0000 0.1391346754
H   H208      1.0  0.61110  0.94330  0.53810  1.0000 0.1391346754
H   H209      1.0  0.07300  0.52120  0.01120  1.0000 0.1318044756
H   H210      1.0  0.07300  0.47880  0.48880  1.0000 0.1318044756
H   H211      1.0  0.42700  0.97880  0.01120  1.0000 0.1318044756
H   H212      1.0  0.42700  0.02120  0.48880  1.0000 0.1318044756
H   H213      1.0  0.92700  0.47880  0.98880  1.0000 0.1318044756
H   H214      1.0  0.92700  0.52120  0.51120  1.0000 0.1318044756
H   H215      1.0  0.57300  0.02120  0.98880  1.0000 0.1318044756
H   H216      1.0  0.57300  0.97880  0.51120  1.0000 0.1318044756
H   H217      1.0  0.94670  0.62620  0.00530  1.0000 0.1391346754
H   H218      1.0  0.94670  0.37380  0.49470  1.0000 0.1391346754
H   H219      1.0  0.55330  0.87380  0.00530  1.0000 0.1391346754
H   H220      1.0  0.55330  0.12620  0.49470  1.0000 0.1391346754
H   H221      1.0  0.05330  0.37380  0.99470  1.0000 0.1391346754
H   H222      1.0  0.05330  0.62620  0.50530  1.0000 0.1391346754
H   H223      1.0  0.44670  0.12620  0.99470  1.0000 0.1391346754
H   H224      1.0  0.44670  0.87380  0.50530  1.0000 0.1391346754
H   H225      1.0  0.96430  0.57010  0.00030  1.0000 0.1391346754
H   H226      1.0  0.96430  0.42990  0.49970  1.0000 0.1391346754
H   H227      1.0  0.53570  0.92990  0.00030  1.0000 0.1391346754
H   H228      1.0  0.53570  0.07010  0.49970  1.0000 0.1391346754
H   H229      1.0  0.03570  0.42990  0.99970  1.0000 0.1391346754
H   H230      1.0  0.03570  0.57010  0.50030  1.0000 0.1391346754
H   H231      1.0  0.46430  0.07010  0.99970  1.0000 0.1391346754
H   H232      1.0  0.46430  0.92990  0.50030  1.0000 0.1391346754
H   H233      1.0  0.99500  0.59860  0.03300  1.0000 0.1391346754
H   H234      1.0  0.99500  0.40140  0.46700  1.0000 0.1391346754
H   H235      1.0  0.50500  0.90140  0.03300  1.0000 0.1391346754
H   H236      1.0  0.50500  0.09860  0.46700  1.0000 0.1391346754
H   H237      1.0  0.00500  0.40140  0.96700  1.0000 0.1391346754
H   H238      1.0  0.00500  0.59860  0.53300  1.0000 0.1391346754
H   H239      1.0  0.49500  0.09860  0.96700  1.0000 0.1391346754
H   H240      1.0  0.49500  0.90140  0.53300  1.0000 0.1391346754
H   H241      1.0  0.06490  0.73270  0.92550  1.0000 0.1391346754
H   H242      1.0  0.06490  0.26730  0.57450  1.0000 0.1391346754
H   H243      1.0  0.43510  0.76730  0.92550  1.0000 0.1391346754
H   H244      1.0  0.43510  0.23270  0.57450  1.0000 0.1391346754
H   H245      1.0  0.93510  0.26730  0.07450  1.0000 0.1391346754
H   H246      1.0  0.93510  0.73270  0.42550  1.0000 0.1391346754
H   H247      1.0  0.56490  0.23270  0.07450  1.0000 0.1391346754
H   H248      1.0  0.56490  0.76730  0.42550  1.0000 0.1391346754
H   H249      1.0  0.14850  0.73660  0.93160  1.0000 0.1391346754
H   H250      1.0  0.14850  0.26340  0.56840  1.0000 0.1391346754
H   H251      1.0  0.35150  0.76340  0.93160  1.0000 0.1391346754
H   H252      1.0  0.35150  0.23660  0.56840  1.0000 0.1391346754
H   H253      1.0  0.85150  0.26340  0.06840  1.0000 0.1391346754
H   H254      1.0  0.85150  0.73660  0.43160  1.0000 0.1391346754
H   H255      1.0  0.64850  0.23660  0.06840  1.0000 0.1391346754
H   H256      1.0  0.64850  0.76340  0.43160  1.0000 0.1391346754
H   H257      1.0  0.11850  0.70870  0.89850  1.0000 0.1479706962
H   H258      1.0  0.11850  0.29130  0.60150  1.0000 0.1391346754
H   H259      1.0  0.38150  0.79130  0.89850  1.0000 0.1391346754
H   H260      1.0  0.38150  0.20870  0.60150  1.0000 0.1391346754
H   H261      1.0  0.88150  0.29130  0.10150  1.0000 0.1391346754
H   H262      1.0  0.88150  0.70870  0.39850  1.0000 0.1479706962
H   H263      1.0  0.61850  0.20870  0.10150  1.0000 0.1391346754
H   H264      1.0  0.61850  0.79130  0.39850  1.0000 0.1391346754
H   H265      1.0  0.26670  0.62450  0.91910  1.0000 0.1318044756
H   H266      1.0  0.26670  0.37550  0.58090  1.0000 0.1318044756
H   H267      1.0  0.23330  0.87550  0.91910  1.0000 0.1318044756
H   H268      1.0  0.23330  0.12450  0.58090  1.0000 0.1318044756
H   H269      1.0  0.73330  0.37550  0.08090  1.0000 0.1318044756
H   H270      1.0  0.73330  0.62450  0.41910  1.0000 0.1318044756
H   H271      1.0  0.76670  0.12450  0.08090  1.0000 0.1318044756
H   H272      1.0  0.76670  0.87550  0.41910  1.0000 0.1318044756
H   H273      1.0  0.20730  0.64450  0.89330  1.0000 0.1391346754
H   H274      1.0  0.20730  0.35550  0.60670  1.0000 0.1391346754
H   H275      1.0  0.29270  0.85550  0.89330  1.0000 0.1391346754
H   H276      1.0  0.29270  0.14450  0.60670  1.0000 0.1391346754
H   H277      1.0  0.79270  0.35550  0.10670  1.0000 0.1391346754
H   H278      1.0  0.79270  0.64450  0.39330  1.0000 0.1391346754
H   H279      1.0  0.70730  0.14450  0.10670  1.0000 0.1391346754
H   H280      1.0  0.70730  0.85550  0.39330  1.0000 0.1391346754
H   H281      1.0  0.24600  0.68050  0.91960  1.0000 0.1318044756
H   H282      1.0  0.24600  0.31950  0.58040  1.0000 0.1318044756
H   H283      1.0  0.25400  0.81950  0.91960  1.0000 0.1318044756
H   H284      1.0  0.25400  0.18050  0.58040  1.0000 0.1318044756
H   H285      1.0  0.75400  0.31950  0.08040  1.0000 0.1318044756
H   H286      1.0  0.75400  0.68050  0.41960  1.0000 0.1318044756
H   H287      1.0  0.74600  0.18050  0.08040  1.0000 0.1318044756
H   H288      1.0  0.74600  0.81950  0.41960  1.0000 0.1318044756
H   H289      1.0  0.42610  0.67830  0.87310  1.0000 0.1391346754
H   H290      1.0  0.42610  0.32170  0.62690  1.0000 0.1391346754
H   H291      1.0  0.07390  0.82170  0.87310  1.0000 0.1391346754
H   H292      1.0  0.07390  0.17830  0.62690  1.0000 0.1391346754
H   H293      1.0  0.57390  0.32170  0.12690  1.0000 0.1391346754
H   H294      1.0  0.57390  0.67830  0.37310  1.0000 0.1391346754
H   H295      1.0  0.92610  0.17830  0.12690  1.0000 0.1391346754
H   H296      1.0  0.92610  0.82170  0.37310  1.0000 0.1391346754
H   H297      1.0  0.34310  0.68940  0.87620  1.0000 0.1318044756
H   H298      1.0  0.34310  0.31060  0.62380  1.0000 0.1318044756
H   H299      1.0  0.15690  0.81060  0.87620  1.0000 0.1318044756
H   H300      1.0  0.15690  0.18940  0.62380  1.0000 0.1318044756
H   H301      1.0  0.65690  0.31060  0.12380  1.0000 0.1318044756
H   H302      1.0  0.65690  0.68940  0.37620  1.0000 0.1318044756
H   H303      1.0  0.84310  0.18940  0.12380  1.0000 0.1318044756
H   H304      1.0  0.84310  0.81060  0.37620  1.0000 0.1318044756
H   H305      1.0  0.36980  0.64310  0.85520  1.0000 0.1391346754
H   H306      1.0  0.36980  0.35690  0.64480  1.0000 0.1391346754
H   H307      1.0  0.13020  0.85690  0.85520  1.0000 0.1391346754
H   H308      1.0  0.13020  0.14310  0.64480  1.0000 0.1391346754
H   H309      1.0  0.63020  0.35690  0.14480  1.0000 0.1391346754
H   H310      1.0  0.63020  0.64310  0.35520  1.0000 0.1391346754
H   H311      1.0  0.86980  0.14310  0.14480  1.0000 0.1391346754
H   H312      1.0  0.86980  0.85690  0.35520  1.0000 0.1391346754
H   H313      1.0  0.21960  0.68310  0.79700  1.0000 0.1318044756
H   H314      1.0  0.21960  0.31690  0.70300  1.0000 0.1318044756
H   H315      1.0  0.28040  0.81690  0.79700  1.0000 0.1318044756
H   H316      1.0  0.28040  0.18310  0.70300  1.0000 0.1318044756
H   H317      1.0  0.78040  0.31690  0.20300  1.0000 0.1318044756
H   H318      1.0  0.78040  0.68310  0.29700  1.0000 0.1318044756
H   H319      1.0  0.71960  0.18310  0.20300  1.0000 0.1318044756
H   H320      1.0  0.71960  0.81690  0.29700  1.0000 0.1318044756
H   H321      1.0  0.27170  0.64350  0.81300  1.0000 0.1391346754
H   H322      1.0  0.27170  0.35650  0.68700  1.0000 0.1391346754
H   H323      1.0  0.22830  0.85650  0.81300  1.0000 0.1391346754
H   H324      1.0  0.22830  0.14350  0.68700  1.0000 0.1391346754
H   H325      1.0  0.72830  0.35650  0.18700  1.0000 0.1391346754
H   H326      1.0  0.72830  0.64350  0.31300  1.0000 0.1391346754
H   H327      1.0  0.77170  0.14350  0.18700  1.0000 0.1391346754
H   H328      1.0  0.77170  0.85650  0.31300  1.0000 0.1391346754
H   H329      1.0  0.23980  0.68500  0.83710  1.0000 0.1391346754
H   H330      1.0  0.23980  0.31500  0.66290  1.0000 0.1391346754
H   H331      1.0  0.26020  0.81500  0.83710  1.0000 0.1391346754
H   H332      1.0  0.26020  0.18500  0.66290  1.0000 0.1391346754
H   H333      1.0  0.76020  0.31500  0.16290  1.0000 0.1391346754
H   H334      1.0  0.76020  0.68500  0.33710  1.0000 0.1391346754
H   H335      1.0  0.73980  0.18500  0.16290  1.0000 0.1391346754
H   H336      1.0  0.73980  0.81500  0.33710  1.0000 0.1391346754
H   H337      1.0  0.34690  0.80020  0.72060  1.0000 0.1318044756
H   H338      1.0  0.34690  0.19980  0.77940  1.0000 0.1318044756
H   H339      1.0  0.15310  0.69980  0.72060  1.0000 0.1318044756
H   H340      1.0  0.15310  0.30020  0.77940  1.0000 0.1318044756
H   H341      1.0  0.65310  0.19980  0.27940  1.0000 0.1318044756
H   H342      1.0  0.65310  0.80020  0.22060  1.0000 0.1318044756
H   H343      1.0  0.84690  0.30020  0.27940  1.0000 0.1318044756
H   H344      1.0  0.84690  0.69980  0.22060  1.0000 0.1318044756
H   H345      1.0  0.40040  0.83450  0.74130  1.0000 0.1391346754
H   H346      1.0  0.40040  0.16550  0.75870  1.0000 0.1391346754
H   H347      1.0  0.09960  0.66550  0.74130  1.0000 0.1391346754
H   H348      1.0  0.09960  0.33450  0.75870  1.0000 0.1391346754
H   H349      1.0  0.59960  0.16550  0.25870  1.0000 0.1391346754
H   H350      1.0  0.59960  0.83450  0.24130  1.0000 0.1391346754
H   H351      1.0  0.90040  0.33450  0.25870  1.0000 0.1391346754
H   H352      1.0  0.90040  0.66550  0.24130  1.0000 0.1391346754
H   H353      1.0  0.43050  0.79120  0.71820  1.0000 0.1391346754
H   H354      1.0  0.43050  0.20880  0.78180  1.0000 0.1391346754
H   H355      1.0  0.06950  0.70880  0.71820  1.0000 0.1391346754
H   H356      1.0  0.06950  0.29120  0.78180  1.0000 0.1391346754
H   H357      1.0  0.56950  0.20880  0.28180  1.0000 0.1391346754
H   H358      1.0  0.56950  0.79120  0.21820  1.0000 0.1391346754
H   H359      1.0  0.93050  0.29120  0.28180  1.0000 0.1391346754
H   H360      1.0  0.93050  0.70880  0.21820  1.0000 0.1391346754
H   H361      1.0  0.51420  0.80560  0.75630  1.0000 0.1205404765
H   H362      1.0  0.51420  0.19440  0.74370  1.0000 0.1205404765
H   H363      1.0  0.98580  0.69440  0.75630  1.0000 0.1205404765
H   H364      1.0  0.98580  0.30560  0.74370  1.0000 0.1205404765
H   H365      1.0  0.48580  0.19440  0.24370  1.0000 0.1205404765
H   H366      1.0  0.48580  0.80560  0.25630  1.0000 0.1205404765
H   H367      1.0  0.01420  0.30560  0.24370  1.0000 0.1205404765
H   H368      1.0  0.01420  0.69440  0.25630  1.0000 0.1205404765
H   H369      1.0  0.53650  0.80810  0.79620  1.0000 0.1391346754
H   H370      1.0  0.53650  0.19190  0.70380  1.0000 0.1391346754
H   H371      1.0  0.96350  0.69190  0.79620  1.0000 0.1391346754
H   H372      1.0  0.96350  0.30810  0.70380  1.0000 0.1391346754
H   H373      1.0  0.46350  0.19190  0.20380  1.0000 0.1391346754
H   H374      1.0  0.46350  0.80810  0.29620  1.0000 0.1391346754
H   H375      1.0  0.03650  0.30810  0.20380  1.0000 0.1391346754
H   H376      1.0  0.03650  0.69190  0.29620  1.0000 0.1391346754
H   H377      1.0  0.55580  0.76150  0.77360  1.0000 0.1479706962
H   H378      1.0  0.55580  0.23850  0.72640  1.0000 0.1391346754
H   H379      1.0  0.94420  0.73850  0.77360  1.0000 0.1479706962
H   H380      1.0  0.94420  0.26150  0.72640  1.0000 0.1391346754
H   H381      1.0  0.44420  0.23850  0.22640  1.0000 0.1479706962
H   H382      1.0  0.44420  0.76150  0.27360  1.0000 0.1479706962
H   H383      1.0  0.05580  0.26150  0.22640  1.0000 0.1479706962
H   H384      1.0  0.05580  0.73850  0.27360  1.0000 0.1479706962
H   H385      1.0  0.18490  0.86210  0.69720  1.0000 0.1205404765
H   H386      1.0  0.18490  0.13790  0.80280  1.0000 0.1205404765
H   H387      1.0  0.31510  0.63790  0.69720  1.0000 0.1205404765
H   H388      1.0  0.31510  0.36210  0.80280  1.0000 0.1205404765
H   H389      1.0  0.81510  0.13790  0.30280  1.0000 0.1205404765
H   H390      1.0  0.81510  0.86210  0.19720  1.0000 0.1205404765
H   H391      1.0  0.68490  0.36210  0.30280  1.0000 0.1205404765
H   H392      1.0  0.68490  0.63790  0.19720  1.0000 0.1205404765
H   H393      1.0  0.16070  0.82840  0.72870  1.0000 0.1318044756
H   H394      1.0  0.16070  0.17160  0.77130  1.0000 0.1318044756
H   H395      1.0  0.33930  0.67160  0.72870  1.0000 0.1318044756
H   H396      1.0  0.33930  0.32840  0.77130  1.0000 0.1318044756
H   H397      1.0  0.83930  0.17160  0.27130  1.0000 0.1318044756
H   H398      1.0  0.83930  0.82840  0.22870  1.0000 0.1318044756
H   H399      1.0  0.66070  0.32840  0.27130  1.0000 0.1318044756
H   H400      1.0  0.66070  0.67160  0.22870  1.0000 0.1318044756
H   H401      1.0  0.23970  0.84930  0.72740  1.0000 0.1318044756
H   H402      1.0  0.23970  0.15070  0.77260  1.0000 0.1318044756
H   H403      1.0  0.26030  0.65070  0.72740  1.0000 0.1318044756
H   H404      1.0  0.26030  0.34930  0.77260  1.0000 0.1318044756
H   H405      1.0  0.76030  0.15070  0.27260  1.0000 0.1318044756
H   H406      1.0  0.76030  0.84930  0.22740  1.0000 0.1318044756
H   H407      1.0  0.73970  0.34930  0.27260  1.0000 0.1318044756
H   H408      1.0  0.73970  0.65070  0.22740  1.0000 0.1318044756
H   H409      1.0  0.18810  0.86310  0.64940  1.0000 0.1318044756
H   H410      1.0  0.18810  0.13690  0.85060  1.0000 0.1205404765
H   H411      1.0  0.31190  0.63690  0.64940  1.0000 0.1318044756
H   H412      1.0  0.31190  0.36310  0.85060  1.0000 0.1205404765
H   H413      1.0  0.81190  0.13690  0.35060  1.0000 0.1205404765
H   H414      1.0  0.81190  0.86310  0.14940  1.0000 0.1318044756
H   H415      1.0  0.68810  0.36310  0.35060  1.0000 0.1205404765
H   H416      1.0  0.68810  0.63690  0.14940  1.0000 0.1318044756
H   H417      1.0  0.24380  0.84790  0.62010  1.0000 0.1391346754
H   H418      1.0  0.24380  0.15210  0.87990  1.0000 0.1391346754
H   H419      1.0  0.25620  0.65210  0.62010  1.0000 0.1391346754
H   H420      1.0  0.25620  0.34790  0.87990  1.0000 0.1391346754
H   H421      1.0  0.75620  0.15210  0.37990  1.0000 0.1391346754
H   H422      1.0  0.75620  0.84790  0.12010  1.0000 0.1391346754
H   H423      1.0  0.74380  0.34790  0.37990  1.0000 0.1391346754
H   H424      1.0  0.74380  0.65210  0.12010  1.0000 0.1391346754
H   H425      1.0  0.16420  0.82810  0.61870  1.0000 0.1391346754
H   H426      1.0  0.16420  0.17190  0.88130  1.0000 0.1391346754
H   H427      1.0  0.33580  0.67190  0.61870  1.0000 0.1391346754
H   H428      1.0  0.33580  0.32810  0.88130  1.0000 0.1391346754
H   H429      1.0  0.83580  0.17190  0.38130  1.0000 0.1391346754
H   H430      1.0  0.83580  0.82810  0.11870  1.0000 0.1391346754
H   H431      1.0  0.66420  0.32810  0.38130  1.0000 0.1391346754
H   H432      1.0  0.66420  0.67190  0.11870  1.0000 0.1391346754
H   H433      1.0  0.79310  0.66860  0.81820  1.0000 0.1318044756
H   H434      1.0  0.79310  0.33140  0.68180  1.0000 0.1318044756
H   H435      1.0  0.70690  0.83140  0.81820  1.0000 0.1318044756
H   H436      1.0  0.70690  0.16860  0.68180  1.0000 0.1318044756
H   H437      1.0  0.20690  0.33140  0.18180  1.0000 0.1318044756
H   H438      1.0  0.20690  0.66860  0.31820  1.0000 0.1318044756
H   H439      1.0  0.29310  0.16860  0.18180  1.0000 0.1318044756
H   H440      1.0  0.29310  0.83140  0.31820  1.0000 0.1318044756
H   H441      1.0  0.76760  0.63530  0.78680  1.0000 0.1318044756
H   H442      1.0  0.76760  0.36470  0.71320  1.0000 0.1318044756
H   H443      1.0  0.73240  0.86470  0.78680  1.0000 0.1318044756
H   H444      1.0  0.73240  0.13530  0.71320  1.0000 0.1318044756
H   H445      1.0  0.23240  0.36470  0.21320  1.0000 0.1318044756
H   H446      1.0  0.23240  0.63530  0.28680  1.0000 0.1318044756
H   H447      1.0  0.26760  0.13530  0.21320  1.0000 0.1318044756
H   H448      1.0  0.26760  0.86470  0.28680  1.0000 0.1318044756
H   H449      1.0  0.84730  0.65490  0.78800  1.0000 0.1205404765
H   H450      1.0  0.84730  0.34510  0.71200  1.0000 0.1205404765
H   H451      1.0  0.65270  0.84510  0.78800  1.0000 0.1205404765
H   H452      1.0  0.65270  0.15490  0.71200  1.0000 0.1205404765
H   H453      1.0  0.15270  0.34510  0.21200  1.0000 0.1205404765
H   H454      1.0  0.15270  0.65490  0.28800  1.0000 0.1205404765
H   H455      1.0  0.34730  0.15490  0.21200  1.0000 0.1205404765
H   H456      1.0  0.34730  0.84510  0.28800  1.0000 0.1205404765
H   H457      1.0  0.82340  0.64050  0.73480  1.0000 0.1126539787
H   H458      1.0  0.82340  0.35950  0.76520  1.0000 0.1126539787
H   H459      1.0  0.67660  0.85950  0.73480  1.0000 0.1126539787
H   H460      1.0  0.67660  0.14050  0.76520  1.0000 0.1205404765
H   H461      1.0  0.17660  0.35950  0.26520  1.0000 0.1126539787
H   H462      1.0  0.17660  0.64050  0.23480  1.0000 0.1126539787
H   H463      1.0  0.32340  0.14050  0.26520  1.0000 0.1205404765
H   H464      1.0  0.32340  0.85950  0.23480  1.0000 0.1126539787
H   H465      1.0  0.77230  0.64940  0.70240  1.0000 0.1318044756
H   H466      1.0  0.77230  0.35060  0.79760  1.0000 0.1318044756
H   H467      1.0  0.72770  0.85060  0.70240  1.0000 0.1318044756
H   H468      1.0  0.72770  0.14940  0.79760  1.0000 0.1318044756
H   H469      1.0  0.22770  0.35060  0.29760  1.0000 0.1318044756
H   H470      1.0  0.22770  0.64940  0.20240  1.0000 0.1318044756
H   H471      1.0  0.27230  0.14940  0.29760  1.0000 0.1318044756
H   H472      1.0  0.27230  0.85060  0.20240  1.0000 0.1318044756
H   H473      1.0  0.84920  0.67360  0.70330  1.0000 0.1391346754
H   H474      1.0  0.84920  0.32640  0.79670  1.0000 0.1391346754
H   H475      1.0  0.65080  0.82640  0.70330  1.0000 0.1391346754
H   H476      1.0  0.65080  0.17360  0.79670  1.0000 0.1318044756
H   H477      1.0  0.15080  0.32640  0.29670  1.0000 0.1391346754
H   H478      1.0  0.15080  0.67360  0.20330  1.0000 0.1391346754
H   H479      1.0  0.34920  0.17360  0.29670  1.0000 0.1318044756
H   H480      1.0  0.34920  0.82640  0.20330  1.0000 0.1391346754
H   H481      1.0  0.83490  0.81220  0.70250  1.0000 0.1205404765
H   H482      1.0  0.83490  0.18780  0.79750  1.0000 0.1205404765
H   H483      1.0  0.66510  0.68780  0.70250  1.0000 0.1205404765
H   H484      1.0  0.66510  0.31220  0.79750  1.0000 0.1205404765
H   H485      1.0  0.16510  0.18780  0.29750  1.0000 0.1205404765
H   H486      1.0  0.16510  0.81220  0.20250  1.0000 0.1205404765
H   H487      1.0  0.33490  0.31220  0.29750  1.0000 0.1205404765
H   H488      1.0  0.33490  0.68780  0.20250  1.0000 0.1205404765
H   H489      1.0  0.91800  0.80600  0.70960  1.0000 0.1391346754
H   H490      1.0  0.91800  0.19400  0.79040  1.0000 0.1391346754
H   H491      1.0  0.58200  0.69400  0.70960  1.0000 0.1391346754
H   H492      1.0  0.58200  0.30600  0.79040  1.0000 0.1391346754
H   H493      1.0  0.08200  0.19400  0.29040  1.0000 0.1391346754
H   H494      1.0  0.08200  0.80600  0.20960  1.0000 0.1391346754
H   H495      1.0  0.41800  0.30600  0.29040  1.0000 0.1391346754
H   H496      1.0  0.41800  0.69400  0.20960  1.0000 0.1391346754
H   H497      1.0  0.89100  0.84290  0.68070  1.0000 0.1391346754
H   H498      1.0  0.89100  0.15710  0.81930  1.0000 0.1391346754
H   H499      1.0  0.60900  0.65710  0.68070  1.0000 0.1391346754
H   H500      1.0  0.60900  0.34290  0.81930  1.0000 0.1391346754
H   H501      1.0  0.10900  0.15710  0.31930  1.0000 0.1391346754
H   H502      1.0  0.10900  0.84290  0.18070  1.0000 0.1391346754
H   H503      1.0  0.39100  0.34290  0.31930  1.0000 0.1391346754
H   H504      1.0  0.39100  0.65710  0.18070  1.0000 0.1391346754
H   H505      1.0  0.00280  0.81880  0.67470  1.0000 0.1205404765
H   H506      1.0  0.00280  0.18120  0.82530  1.0000 0.1205404765
H   H507      1.0  0.49720  0.68120  0.67470  1.0000 0.1205404765
H   H508      1.0  0.49720  0.31880  0.82530  1.0000 0.1205404765
H   H509      1.0  0.99720  0.18120  0.32530  1.0000 0.1205404765
H   H510      1.0  0.99720  0.81880  0.17470  1.0000 0.1205404765
H   H511      1.0  0.50280  0.31880  0.32530  1.0000 0.1205404765
H   H512      1.0  0.50280  0.68120  0.17470  1.0000 0.1205404765
H   H513      1.0  0.05580  0.77750  0.66170  1.0000 0.1479706962
H   H514      1.0  0.05580  0.22250  0.83830  1.0000 0.1479706962
H   H515      1.0  0.44420  0.72250  0.66170  1.0000 0.1479706962
H   H516      1.0  0.44420  0.27750  0.83830  1.0000 0.1479706962
H   H517      1.0  0.94420  0.22250  0.33830  1.0000 0.1479706962
H   H518      1.0  0.94420  0.77750  0.16170  1.0000 0.1479706962
H   H519      1.0  0.55580  0.27750  0.33830  1.0000 0.1479706962
H   H520      1.0  0.55580  0.72250  0.16170  1.0000 0.1479706962
H   H521      1.0  0.02790  0.81760  0.63530  1.0000 0.1391346754
H   H522      1.0  0.02790  0.18240  0.86470  1.0000 0.1391346754
H   H523      1.0  0.47210  0.68240  0.63530  1.0000 0.1391346754
H   H524      1.0  0.47210  0.31760  0.86470  1.0000 0.1391346754
H   H525      1.0  0.97210  0.18240  0.36470  1.0000 0.1391346754
H   H526      1.0  0.97210  0.81760  0.13530  1.0000 0.1391346754
H   H527      1.0  0.52790  0.31760  0.36470  1.0000 0.1391346754
H   H528      1.0  0.52790  0.68240  0.13530  1.0000 0.1391346754
H   H529      1.0  0.95000  0.66500  0.56860  1.0000 0.1391346754
H   H530      1.0  0.95000  0.33500  0.93140  1.0000 0.1391346754
H   H531      1.0  0.55000  0.83500  0.56860  1.0000 0.1391346754
H   H532      1.0  0.55000  0.16500  0.93140  1.0000 0.1391346754
H   H533      1.0  0.05000  0.33500  0.43140  1.0000 0.1391346754
H   H534      1.0  0.05000  0.66500  0.06860  1.0000 0.1391346754
H   H535      1.0  0.45000  0.16500  0.43140  1.0000 0.1391346754
H   H536      1.0  0.45000  0.83500  0.06860  1.0000 0.1391346754
H   H537      1.0  0.89180  0.63180  0.58700  1.0000 0.1391346754
H   H538      1.0  0.89180  0.36820  0.91300  1.0000 0.1318044756
H   H539      1.0  0.60820  0.86820  0.58700  1.0000 0.1391346754
H   H540      1.0  0.60820  0.13180  0.91300  1.0000 0.1318044756
H   H541      1.0  0.10820  0.36820  0.41300  1.0000 0.1391346754
H   H542      1.0  0.10820  0.63180  0.08700  1.0000 0.1391346754
H   H543      1.0  0.39180  0.13180  0.41300  1.0000 0.1391346754
H   H544      1.0  0.39180  0.86820  0.08700  1.0000 0.1391346754
H   H545      1.0  0.86770  0.67220  0.55990  1.0000 0.1391346754
H   H546      1.0  0.86770  0.32780  0.94010  1.0000 0.1391346754
H   H547      1.0  0.63230  0.82780  0.55990  1.0000 0.1391346754
H   H548      1.0  0.63230  0.17220  0.94010  1.0000 0.1391346754
H   H549      1.0  0.13230  0.32780  0.44010  1.0000 0.1391346754
H   H550      1.0  0.13230  0.67220  0.05990  1.0000 0.1391346754
H   H551      1.0  0.36770  0.17220  0.44010  1.0000 0.1391346754
H   H552      1.0  0.36770  0.82780  0.05990  1.0000 0.1391346754
H   H553      1.0  0.78130  0.65510  0.59640  1.0000 0.1205404765
H   H554      1.0  0.78130  0.34490  0.90360  1.0000 0.1205404765
H   H555      1.0  0.71870  0.84490  0.59640  1.0000 0.1205404765
H   H556      1.0  0.71870  0.15510  0.90360  1.0000 0.1205404765
H   H557      1.0  0.21870  0.34490  0.40360  1.0000 0.1205404765
H   H558      1.0  0.21870  0.65510  0.09640  1.0000 0.1205404765
H   H559      1.0  0.28130  0.15510  0.40360  1.0000 0.1205404765
H   H560      1.0  0.28130  0.84490  0.09640  1.0000 0.1205404765
H   H561      1.0  0.75190  0.65520  0.63520  1.0000 0.1391346754
H   H562      1.0  0.75190  0.34480  0.86480  1.0000 0.1391346754
H   H563      1.0  0.74810  0.84480  0.63520  1.0000 0.1391346754
H   H564      1.0  0.74810  0.15520  0.86480  1.0000 0.1391346754
H   H565      1.0  0.24810  0.34480  0.36480  1.0000 0.1391346754
H   H566      1.0  0.24810  0.65520  0.13520  1.0000 0.1391346754
H   H567      1.0  0.25190  0.15520  0.36480  1.0000 0.1391346754
H   H568      1.0  0.25190  0.84480  0.13520  1.0000 0.1391346754
H   H569      1.0  0.72660  0.69580  0.60850  1.0000 0.1391346754
H   H570      1.0  0.72660  0.30420  0.89150  1.0000 0.1391346754
H   H571      1.0  0.77340  0.80420  0.60850  1.0000 0.1391346754
H   H572      1.0  0.77340  0.19580  0.89150  1.0000 0.1391346754
H   H573      1.0  0.27340  0.30420  0.39150  1.0000 0.1391346754
H   H574      1.0  0.27340  0.69580  0.10850  1.0000 0.1391346754
H   H575      1.0  0.22660  0.19580  0.39150  1.0000 0.1391346754
H   H576      1.0  0.22660  0.80420  0.10850  1.0000 0.1391346754
C   C1        1.0  0.51660  0.67750  0.96340  1.0000 0.6337667589
C   C2        1.0  0.51660  0.32250  0.53660  1.0000 0.6337667589
C   C3        1.0  0.98340  0.82250  0.96340  1.0000 0.6337667589
C   C4        1.0  0.98340  0.17750  0.53660  1.0000 0.6337667589
C   C5        1.0  0.48340  0.32250  0.03660  1.0000 0.6337667589
C   C6        1.0  0.48340  0.67750  0.46340  1.0000 0.6337667589
C   C7        1.0  0.01660  0.17750  0.03660  1.0000 0.6337667589
C   C8        1.0  0.01660  0.82250  0.46340  1.0000 0.6337667589
C   C9        1.0  0.44750  0.64738  0.96486  1.0000 -0.141826908
C   C10       1.0  0.44750  0.35262  0.53514  1.0000 -0.141826908
C   C11       1.0  0.05250  0.85262  0.96486  1.0000 -0.141826908
C   C12       1.0  0.05250  0.14738  0.53514  1.0000 -0.141826908
C   C13       1.0  0.55250  0.35262  0.03514  1.0000 -0.141826908
C   C14       1.0  0.55250  0.64738  0.46486  1.0000 -0.141826908
C   C15       1.0  0.94750  0.14738  0.03514  1.0000 -0.141826908
C   C16       1.0  0.94750  0.85262  0.46486  1.0000 -0.141826908
C   C17       1.0  0.39290  0.66029  0.98831  1.0000 0.1014152975
C   C18       1.0  0.39290  0.33971  0.51169  1.0000 0.1014152975
C   C19       1.0  0.10710  0.83971  0.98831  1.0000 0.1014152975
C   C20       1.0  0.10710  0.16029  0.51169  1.0000 0.1014152975
C   C21       1.0  0.60710  0.33971  0.01169  1.0000 0.1014152975
C   C22       1.0  0.60710  0.66029  0.48831  1.0000 0.1014152975
C   C23       1.0  0.89290  0.16029  0.01169  1.0000 0.1014152975
C   C24       1.0  0.89290  0.83971  0.48831  1.0000 0.1014152975
C   C25       1.0  0.32990  0.63246  0.98994  1.0000 0.1205404765
C   C26       1.0  0.32990  0.36754  0.51006  1.0000 0.1205404765
C   C27       1.0  0.17010  0.86754  0.98994  1.0000 0.1205404765
C   C28       1.0  0.17010  0.13246  0.51006  1.0000 0.1205404765
C   C29       1.0  0.67010  0.36754  0.01006  1.0000 0.1126539787
C   C30       1.0  0.67010  0.63246  0.48994  1.0000 0.1205404765
C   C31       1.0  0.82990  0.13246  0.01006  1.0000 0.1205404765
C   C32       1.0  0.82990  0.86754  0.48994  1.0000 0.1205404765
C   C33       1.0  0.32140  0.59172  0.96812  1.0000 -0.2091790936
C   C34       1.0  0.32140  0.40828  0.53188  1.0000 -0.2091790936
C   C35       1.0  0.17860  0.90828  0.96812  1.0000 -0.2091790936
C   C36       1.0  0.17860  0.09172  0.53188  1.0000 -0.2091790936
C   C37       1.0  0.67860  0.40828  0.03188  1.0000 -0.2091790936
C   C38       1.0  0.67860  0.59172  0.46812  1.0000 -0.2091790936
C   C39       1.0  0.82140  0.09172  0.03188  1.0000 -0.2091790936
C   C40       1.0  0.82140  0.90828  0.46812  1.0000 -0.2091790936
C   C41       1.0  0.37600  0.57881  0.94467  1.0000 0.1014152975
C   C42       1.0  0.37600  0.42119  0.55533  1.0000 0.1014152975
C   C43       1.0  0.12400  0.92119  0.94467  1.0000 0.1014152975
C   C44       1.0  0.12400  0.07881  0.55533  1.0000 0.1014152975
C   C45       1.0  0.62400  0.42119  0.05533  1.0000 0.1014152975
C   C46       1.0  0.62400  0.57881  0.44467  1.0000 0.1014152975
C   C47       1.0  0.87600  0.07881  0.05533  1.0000 0.1014152975
C   C48       1.0  0.87600  0.92119  0.44467  1.0000 0.1014152975
C   C49       1.0  0.43910  0.60664  0.94304  1.0000 0.0901493848
C   C50       1.0  0.43910  0.39336  0.55696  1.0000 0.0901493848
C   C51       1.0  0.06090  0.89336  0.94304  1.0000 0.0901493848
C   C52       1.0  0.06090  0.10664  0.55696  1.0000 0.0901493848
C   C53       1.0  0.56090  0.39336  0.05696  1.0000 0.0901493848
C   C54       1.0  0.56090  0.60664  0.44304  1.0000 0.0901493848
C   C55       1.0  0.93910  0.10664  0.05696  1.0000 0.0901493848
C   C56       1.0  0.93910  0.89336  0.44304  1.0000 0.0901493848
C   C57       1.0  0.39830  0.70820  0.01100  1.0000 -0.4387806103
C   C58       1.0  0.39830  0.29180  0.48900  1.0000 -0.4387806103
C   C59       1.0  0.10170  0.79180  0.01100  1.0000 -0.4387806103
C   C60       1.0  0.10170  0.20820  0.48900  1.0000 -0.4387806103
C   C61       1.0  0.60170  0.29180  0.98900  1.0000 -0.4387806103
C   C62       1.0  0.60170  0.70820  0.51100  1.0000 -0.4387806103
C   C63       1.0  0.89830  0.20820  0.98900  1.0000 -0.4387806103
C   C64       1.0  0.89830  0.79180  0.51100  1.0000 -0.4387806103
C   C65       1.0  0.27470  0.64580  0.01859  1.0000 -0.4601007975
C   C66       1.0  0.27470  0.35420  0.48141  1.0000 -0.4601007975
C   C67       1.0  0.22530  0.85420  0.01859  1.0000 -0.4601007975
C   C68       1.0  0.22530  0.14580  0.48141  1.0000 -0.4601007975
C   C69       1.0  0.72530  0.35420  0.98141  1.0000 -0.4601007975
C   C70       1.0  0.72530  0.64580  0.51859  1.0000 -0.4601007975
C   C71       1.0  0.77470  0.14580  0.98141  1.0000 -0.4601007975
C   C72       1.0  0.77470  0.85420  0.51859  1.0000 -0.4601007975
C   C73       1.0  0.36440  0.53820  0.91702  1.0000 -0.4387806103
C   C74       1.0  0.36440  0.46180  0.58298  1.0000 -0.4387806103
C   C75       1.0  0.13560  0.96180  0.91702  1.0000 -0.4387806103
C   C76       1.0  0.13560  0.03820  0.58298  1.0000 -0.4387806103
C   C77       1.0  0.63560  0.46180  0.08298  1.0000 -0.4387806103
C   C78       1.0  0.63560  0.53820  0.41702  1.0000 -0.4387806103
C   C79       1.0  0.86440  0.03820  0.08298  1.0000 -0.4387806103
C   C80       1.0  0.86440  0.96180  0.41702  1.0000 -0.4387806103
C   C81       1.0  0.50290  0.59020  0.91900  1.0000 -0.4297466627
C   C82       1.0  0.50290  0.40980  0.58100  1.0000 -0.4297466627
C   C83       1.0  0.99710  0.90980  0.91900  1.0000 -0.4297466627
C   C84       1.0  0.99710  0.09020  0.58100  1.0000 -0.4297466627
C   C85       1.0  0.49710  0.40980  0.08100  1.0000 -0.4297466627
C   C86       1.0  0.49710  0.59020  0.41900  1.0000 -0.4297466627
C   C87       1.0  0.00290  0.09020  0.08100  1.0000 -0.4297466627
C   C88       1.0  0.00290  0.90980  0.41900  1.0000 -0.4297466627
C   C89       1.0  0.24060  0.50411  0.96943  1.0000 -0.2206395229
C   C90       1.0  0.24060  0.49589  0.53057  1.0000 -0.2278068414
C   C91       1.0  0.25940  0.99589  0.96943  1.0000 -0.2206395229
C   C92       1.0  0.25940  0.00411  0.53057  1.0000 -0.2206395229
C   C93       1.0  0.75940  0.49589  0.03057  1.0000 -0.2278068414
C   C94       1.0  0.75940  0.50411  0.46943  1.0000 -0.2278068414
C   C95       1.0  0.74060  0.00411  0.03057  1.0000 -0.2278068414
C   C96       1.0  0.74060  0.99589  0.46943  1.0000 -0.2278068414
C   C97       1.0  0.27350  0.47872  0.99691  1.0000 0.1014152975
C   C98       1.0  0.27350  0.52128  0.50309  1.0000 0.1014152975
C   C99       1.0  0.22650  0.02128  0.99691  1.0000 0.1014152975
C   C100      1.0  0.22650  0.97872  0.50309  1.0000 0.1014152975
C   C101      1.0  0.72650  0.52128  0.00309  1.0000 0.1014152975
C   C102      1.0  0.72650  0.47872  0.49691  1.0000 0.1014152975
C   C103      1.0  0.77350  0.97872  0.00309  1.0000 0.1014152975
C   C104      1.0  0.77350  0.02128  0.49691  1.0000 0.1014152975
C   C105      1.0  0.26770  0.42775  0.99888  1.0000 0.0901493848
C   C106      1.0  0.26770  0.57225  0.50112  1.0000 0.0821516347
C   C107      1.0  0.23230  0.07225  0.99888  1.0000 0.0821516347
C   C108      1.0  0.23230  0.92775  0.50112  1.0000 0.0821516347
C   C109      1.0  0.73230  0.57225  0.00112  1.0000 0.0821516347
C   C110      1.0  0.73230  0.42775  0.49888  1.0000 0.0821516347
C   C111      1.0  0.76770  0.92775  0.00112  1.0000 0.0821516347
C   C112      1.0  0.76770  0.07225  0.49888  1.0000 0.0821516347
C   C113      1.0  0.22900  0.40216  0.97337  1.0000 -0.1268951162
C   C114      1.0  0.22900  0.59784  0.52663  1.0000 -0.1268951162
C   C115      1.0  0.27100  0.09784  0.97337  1.0000 -0.1268951162
C   C116      1.0  0.27100  0.90216  0.52663  1.0000 -0.1268951162
C   C117      1.0  0.77100  0.59784  0.02663  1.0000 -0.1268951162
C   C118      1.0  0.77100  0.40216  0.47337  1.0000 -0.1268951162
C   C119      1.0  0.72900  0.90216  0.02663  1.0000 -0.1268951162
C   C120      1.0  0.72900  0.09784  0.47337  1.0000 -0.1268951162
C   C121      1.0  0.19600  0.42755  0.94589  1.0000 0.0821516347
C   C122      1.0  0.19600  0.57245  0.55411  1.0000 0.0901493848
C   C123      1.0  0.30400  0.07245  0.94589  1.0000 0.0901493848
C   C124      1.0  0.30400  0.92755  0.55411  1.0000 0.0821516347
C   C125      1.0  0.80400  0.57245  0.05411  1.0000 0.0901493848
C   C126      1.0  0.80400  0.42755  0.44589  1.0000 0.0821516347
C   C127      1.0  0.69600  0.92755  0.05411  1.0000 0.0821516347
C   C128      1.0  0.69600  0.07245  0.44589  1.0000 0.0901493848
C   C129      1.0  0.20180  0.47853  0.94392  1.0000 0.1014152975
C   C130      1.0  0.20180  0.52147  0.55608  1.0000 0.1014152975
C   C131      1.0  0.29820  0.02147  0.94392  1.0000 0.1014152975
C   C132      1.0  0.29820  0.97853  0.55608  1.0000 0.1014152975
C   C133      1.0  0.79820  0.52147  0.05608  1.0000 0.1014152975
C   C134      1.0  0.79820  0.47853  0.44392  1.0000 0.1014152975
C   C135      1.0  0.70180  0.97853  0.05608  1.0000 0.1014152975
C   C136      1.0  0.70180  0.02147  0.44392  1.0000 0.1014152975
C   C137      1.0  0.31440  0.50600  0.02702  1.0000 -0.4387806103
C   C138      1.0  0.31440  0.49400  0.47298  1.0000 -0.4387806103
C   C139      1.0  0.18560  0.99400  0.02702  1.0000 -0.4387806103
C   C140      1.0  0.18560  0.00600  0.47298  1.0000 -0.4387806103
C   C141      1.0  0.68560  0.49400  0.97298  1.0000 -0.4387806103
C   C142      1.0  0.68560  0.50600  0.52702  1.0000 -0.4387806103
C   C143      1.0  0.81440  0.00600  0.97298  1.0000 -0.4387806103
C   C144      1.0  0.81440  0.99400  0.52702  1.0000 -0.4387806103
C   C145      1.0  0.29990  0.39890  0.03053  1.0000 -0.4297466627
C   C146      1.0  0.29990  0.60110  0.46947  1.0000 -0.4297466627
C   C147      1.0  0.20010  0.10110  0.03053  1.0000 -0.4297466627
C   C148      1.0  0.20010  0.89890  0.46947  1.0000 -0.4297466627
C   C149      1.0  0.70010  0.60110  0.96947  1.0000 -0.4297466627
C   C150      1.0  0.70010  0.39890  0.53053  1.0000 -0.4297466627
C   C151      1.0  0.79990  0.89890  0.96947  1.0000 -0.4297466627
C   C152      1.0  0.79990  0.10110  0.53053  1.0000 -0.4297466627
C   C153      1.0  0.15390  0.39880  0.91727  1.0000 -0.4297466627
C   C154      1.0  0.15390  0.60120  0.58273  1.0000 -0.4297466627
C   C155      1.0  0.34610  0.10120  0.91727  1.0000 -0.4297466627
C   C156      1.0  0.34610  0.89880  0.58273  1.0000 -0.4297466627
C   C157      1.0  0.84610  0.60120  0.08273  1.0000 -0.4297466627
C   C158      1.0  0.84610  0.39880  0.41727  1.0000 -0.4297466627
C   C159      1.0  0.65390  0.89880  0.08273  1.0000 -0.4297466627
C   C160      1.0  0.65390  0.10120  0.41727  1.0000 -0.4297466627
C   C161      1.0  0.16590  0.50490  0.91232  1.0000 -0.4387806103
C   C162      1.0  0.16590  0.49510  0.58768  1.0000 -0.4387806103
C   C163      1.0  0.33410  0.99510  0.91232  1.0000 -0.4387806103
C   C164      1.0  0.33410  0.00490  0.58768  1.0000 -0.4387806103
C   C165      1.0  0.83410  0.49510  0.08768  1.0000 -0.4387806103
C   C166      1.0  0.83410  0.50490  0.41232  1.0000 -0.4387806103
C   C167      1.0  0.66590  0.00490  0.08768  1.0000 -0.4387806103
C   C168      1.0  0.66590  0.99510  0.41232  1.0000 -0.4387806103
C   C169      1.0  0.22400  0.34628  0.97498  1.0000 0.6337667589
C   C170      1.0  0.22400  0.65372  0.52502  1.0000 0.6337667589
C   C171      1.0  0.27600  0.15372  0.97498  1.0000 0.6337667589
C   C172      1.0  0.27600  0.84628  0.52502  1.0000 0.6337667589
C   C173      1.0  0.77600  0.65372  0.02502  1.0000 0.6337667589
C   C174      1.0  0.77600  0.34628  0.47498  1.0000 0.6337667589
C   C175      1.0  0.72400  0.84628  0.02502  1.0000 0.6337667589
C   C176      1.0  0.72400  0.15372  0.47498  1.0000 0.6337667589
C   C177      1.0  0.17080  0.59561  0.96579  1.0000 -0.2206395229
C   C178      1.0  0.17080  0.40439  0.53421  1.0000 -0.2206395229
C   C179      1.0  0.32920  0.90439  0.96579  1.0000 -0.2206395229
C   C180      1.0  0.32920  0.09561  0.53421  1.0000 -0.2206395229
C   C181      1.0  0.82920  0.40439  0.03421  1.0000 -0.2206395229
C   C182      1.0  0.82920  0.59561  0.46579  1.0000 -0.2206395229
C   C183      1.0  0.67080  0.09561  0.03421  1.0000 -0.2206395229
C   C184      1.0  0.67080  0.90439  0.46579  1.0000 -0.2206395229
C   C185      1.0  0.11190  0.58447  0.98713  1.0000 0.1014152975
C   C186      1.0  0.11190  0.41553  0.51287  1.0000 0.1014152975
C   C187      1.0  0.38810  0.91553  0.98713  1.0000 0.1014152975
C   C188      1.0  0.38810  0.08447  0.51287  1.0000 0.1014152975
C   C189      1.0  0.88810  0.41553  0.01287  1.0000 0.1014152975
C   C190      1.0  0.88810  0.58447  0.48713  1.0000 0.1014152975
C   C191      1.0  0.61190  0.08447  0.01287  1.0000 0.1014152975
C   C192      1.0  0.61190  0.91553  0.48713  1.0000 0.1014152975
C   C193      1.0  0.05140  0.61485  0.98703  1.0000 0.1014152975
C   C194      1.0  0.05140  0.38515  0.51297  1.0000 0.1014152975
C   C195      1.0  0.44860  0.88515  0.98703  1.0000 0.1014152975
C   C196      1.0  0.44860  0.11485  0.51297  1.0000 0.1014152975
C   C197      1.0  0.94860  0.38515  0.01297  1.0000 0.1014152975
C   C198      1.0  0.94860  0.61485  0.48703  1.0000 0.1014152975
C   C199      1.0  0.55140  0.11485  0.01297  1.0000 0.1014152975
C   C200      1.0  0.55140  0.88515  0.48703  1.0000 0.1014152975
C   C201      1.0  0.04980  0.65637  0.96560  1.0000 -0.141826908
C   C202      1.0  0.04980  0.34363  0.53440  1.0000 -0.141826908
C   C203      1.0  0.45020  0.84363  0.96560  1.0000 -0.141826908
C   C204      1.0  0.45020  0.15637  0.53440  1.0000 -0.141826908
C   C205      1.0  0.95020  0.34363  0.03440  1.0000 -0.141826908
C   C206      1.0  0.95020  0.65637  0.46560  1.0000 -0.141826908
C   C207      1.0  0.54980  0.15637  0.03440  1.0000 -0.141826908
C   C208      1.0  0.54980  0.84363  0.46560  1.0000 -0.141826908
C   C209      1.0  0.10870  0.66751  0.94426  1.0000 0.1014152975
C   C210      1.0  0.10870  0.33249  0.55574  1.0000 0.1014152975
C   C211      1.0  0.39130  0.83249  0.94426  1.0000 0.1014152975
C   C212      1.0  0.39130  0.16751  0.55574  1.0000 0.1014152975
C   C213      1.0  0.89130  0.33249  0.05574  1.0000 0.1014152975
C   C214      1.0  0.89130  0.66751  0.44426  1.0000 0.1014152975
C   C215      1.0  0.60870  0.16751  0.05574  1.0000 0.1014152975
C   C216      1.0  0.60870  0.83249  0.44426  1.0000 0.1014152975
C   C217      1.0  0.16920  0.63713  0.94436  1.0000 0.1126539787
C   C218      1.0  0.16920  0.36287  0.55564  1.0000 0.1126539787
C   C219      1.0  0.33080  0.86287  0.94436  1.0000 0.1126539787
C   C220      1.0  0.33080  0.13713  0.55564  1.0000 0.1126539787
C   C221      1.0  0.83080  0.36287  0.05564  1.0000 0.1126539787
C   C222      1.0  0.83080  0.63713  0.44436  1.0000 0.1126539787
C   C223      1.0  0.66920  0.13713  0.05564  1.0000 0.1126539787
C   C224      1.0  0.66920  0.86287  0.44436  1.0000 0.1126539787
C   C225      1.0  0.11360  0.54270  0.01484  1.0000 -0.4491099158
C   C226      1.0  0.11360  0.45730  0.48516  1.0000 -0.4491099158
C   C227      1.0  0.38640  0.95730  0.01484  1.0000 -0.4491099158
C   C228      1.0  0.38640  0.04270  0.48516  1.0000 -0.4491099158
C   C229      1.0  0.88640  0.45730  0.98516  1.0000 -0.4491099158
C   C230      1.0  0.88640  0.54270  0.51484  1.0000 -0.4491099158
C   C231      1.0  0.61360  0.04270  0.98516  1.0000 -0.4491099158
C   C232      1.0  0.61360  0.95730  0.51484  1.0000 -0.4491099158
C   C233      1.0  0.98280  0.60110  0.00844  1.0000 -0.4387806103
C   C234      1.0  0.98280  0.39890  0.49156  1.0000 -0.4387806103
C   C235      1.0  0.51720  0.89890  0.00844  1.0000 -0.4387806103
C   C236      1.0  0.51720  0.10110  0.49156  1.0000 -0.4387806103
C   C237      1.0  0.01720  0.39890  0.99156  1.0000 -0.4387806103
C   C238      1.0  0.01720  0.60110  0.50844  1.0000 -0.4387806103
C   C239      1.0  0.48280  0.10110  0.99156  1.0000 -0.4387806103
C   C240      1.0  0.48280  0.89890  0.50844  1.0000 -0.4387806103
C   C241      1.0  0.11030  0.71599  0.92296  1.0000 -0.4387806103
C   C242      1.0  0.11030  0.28401  0.57704  1.0000 -0.4387806103
C   C243      1.0  0.38970  0.78401  0.92296  1.0000 -0.4491099158
C   C244      1.0  0.38970  0.21599  0.57704  1.0000 -0.4387806103
C   C245      1.0  0.88970  0.28401  0.07704  1.0000 -0.4387806103
C   C246      1.0  0.88970  0.71599  0.42296  1.0000 -0.4387806103
C   C247      1.0  0.61030  0.21599  0.07704  1.0000 -0.4387806103
C   C248      1.0  0.61030  0.78401  0.42296  1.0000 -0.4491099158
C   C249      1.0  0.22780  0.64764  0.91649  1.0000 -0.4601007975
C   C250      1.0  0.22780  0.35236  0.58351  1.0000 -0.4601007975
C   C251      1.0  0.27220  0.85236  0.91649  1.0000 -0.4601007975
C   C252      1.0  0.27220  0.14764  0.58351  1.0000 -0.4601007975
C   C253      1.0  0.77220  0.35236  0.08351  1.0000 -0.4601007975
C   C254      1.0  0.77220  0.64764  0.41649  1.0000 -0.4601007975
C   C255      1.0  0.72780  0.14764  0.08351  1.0000 -0.4601007975
C   C256      1.0  0.72780  0.85236  0.41649  1.0000 -0.4601007975
C   C257      1.0  0.98400  0.68990  0.96521  1.0000 0.643270493
C   C258      1.0  0.98400  0.31010  0.53479  1.0000 0.643270493
C   C259      1.0  0.51600  0.81010  0.96521  1.0000 0.643270493
C   C260      1.0  0.51600  0.18990  0.53479  1.0000 0.643270493
C   C261      1.0  0.01600  0.31010  0.03479  1.0000 0.643270493
C   C262      1.0  0.01600  0.68990  0.46521  1.0000 0.643270493
C   C263      1.0  0.48400  0.18990  0.03479  1.0000 0.643270493
C   C264      1.0  0.48400  0.81010  0.46521  1.0000 0.643270493
C   C265      1.0  0.50700  0.73800  0.84440  1.0000 0.5737138097
C   C266      1.0  0.50700  0.26200  0.65560  1.0000 0.5737138097
C   C267      1.0  0.99300  0.76200  0.84440  1.0000 0.5737138097
C   C268      1.0  0.99300  0.23800  0.65560  1.0000 0.5737138097
C   C269      1.0  0.49300  0.26200  0.15560  1.0000 0.5737138097
C   C270      1.0  0.49300  0.73800  0.34440  1.0000 0.5737138097
C   C271      1.0  0.00700  0.23800  0.15560  1.0000 0.5737138097
C   C272      1.0  0.00700  0.76200  0.34440  1.0000 0.5737138097
C   C273      1.0  0.44630  0.73410  0.81811  1.0000 -0.1199806328
C   C274      1.0  0.44630  0.26590  0.68189  1.0000 -0.1199806328
C   C275      1.0  0.05370  0.76590  0.81811  1.0000 -0.1199806328
C   C276      1.0  0.05370  0.23410  0.68189  1.0000 -0.1199806328
C   C277      1.0  0.55370  0.26590  0.18189  1.0000 -0.1199806328
C   C278      1.0  0.55370  0.73410  0.31811  1.0000 -0.1199806328
C   C279      1.0  0.94630  0.23410  0.18189  1.0000 -0.1199806328
C   C280      1.0  0.94630  0.76590  0.31811  1.0000 -0.1199806328
C   C281      1.0  0.38410  0.70810  0.82675  1.0000 0.0821516347
C   C282      1.0  0.38410  0.29190  0.67325  1.0000 0.0821516347
C   C283      1.0  0.11590  0.79190  0.82675  1.0000 0.0821516347
C   C284      1.0  0.11590  0.20810  0.67325  1.0000 0.0821516347
C   C285      1.0  0.61590  0.29190  0.17325  1.0000 0.0821516347
C   C286      1.0  0.61590  0.70810  0.32675  1.0000 0.0821516347
C   C287      1.0  0.88410  0.20810  0.17325  1.0000 0.0821516347
C   C288      1.0  0.88410  0.79190  0.32675  1.0000 0.0821516347
C   C289      1.0  0.32350  0.71090  0.80515  1.0000 0.1126539787
C   C290      1.0  0.32350  0.28910  0.69485  1.0000 0.1126539787
C   C291      1.0  0.17650  0.78910  0.80515  1.0000 0.1205404765
C   C292      1.0  0.17650  0.21090  0.69485  1.0000 0.1205404765
C   C293      1.0  0.67650  0.28910  0.19485  1.0000 0.1126539787
C   C294      1.0  0.67650  0.71090  0.30515  1.0000 0.1205404765
C   C295      1.0  0.82350  0.21090  0.19485  1.0000 0.1205404765
C   C296      1.0  0.82350  0.78910  0.30515  1.0000 0.1205404765
C   C297      1.0  0.32510  0.73982  0.77492  1.0000 -0.2278068414
C   C298      1.0  0.32510  0.26018  0.72508  1.0000 -0.2278068414
C   C299      1.0  0.17490  0.76018  0.77492  1.0000 -0.2278068414
C   C300      1.0  0.17490  0.23982  0.72508  1.0000 -0.2278068414
C   C301      1.0  0.67490  0.26018  0.22508  1.0000 -0.2278068414
C   C302      1.0  0.67490  0.73982  0.27492  1.0000 -0.2278068414
C   C303      1.0  0.82510  0.23982  0.22508  1.0000 -0.2278068414
C   C304      1.0  0.82510  0.76018  0.27492  1.0000 -0.2278068414
C   C305      1.0  0.38730  0.76590  0.76628  1.0000 0.1126539787
C   C306      1.0  0.38730  0.23410  0.73372  1.0000 0.1126539787
C   C307      1.0  0.11270  0.73410  0.76628  1.0000 0.1126539787
C   C308      1.0  0.11270  0.26590  0.73372  1.0000 0.1126539787
C   C309      1.0  0.61270  0.23410  0.23372  1.0000 0.1126539787
C   C310      1.0  0.61270  0.76590  0.26628  1.0000 0.1126539787
C   C311      1.0  0.88730  0.26590  0.23372  1.0000 0.1126539787
C   C312      1.0  0.88730  0.73410  0.26628  1.0000 0.1126539787
C   C313      1.0  0.44800  0.76306  0.78787  1.0000 0.0821516347
C   C314      1.0  0.44800  0.23694  0.71213  1.0000 0.0821516347
C   C315      1.0  0.05200  0.73694  0.78787  1.0000 0.0821516347
C   C316      1.0  0.05200  0.26306  0.71213  1.0000 0.0821516347
C   C317      1.0  0.55200  0.23694  0.21213  1.0000 0.0821516347
C   C318      1.0  0.55200  0.76306  0.28787  1.0000 0.0821516347
C   C319      1.0  0.94800  0.26306  0.21213  1.0000 0.0821516347
C   C320      1.0  0.94800  0.73694  0.28787  1.0000 0.0821516347
C   C321      1.0  0.38040  0.67670  0.86110  1.0000 -0.4297466627
C   C322      1.0  0.38040  0.32330  0.63890  1.0000 -0.4297466627
C   C323      1.0  0.11960  0.82330  0.86110  1.0000 -0.4297466627
C   C324      1.0  0.11960  0.17670  0.63890  1.0000 -0.4297466627
C   C325      1.0  0.61960  0.32330  0.13890  1.0000 -0.4297466627
C   C326      1.0  0.61960  0.67670  0.36110  1.0000 -0.4297466627
C   C327      1.0  0.88040  0.17670  0.13890  1.0000 -0.4297466627
C   C328      1.0  0.88040  0.82330  0.36110  1.0000 -0.4297466627
C   C329      1.0  0.25730  0.67740  0.81388  1.0000 -0.4491099158
C   C330      1.0  0.25730  0.32260  0.68612  1.0000 -0.4491099158
C   C331      1.0  0.24270  0.82260  0.81388  1.0000 -0.4491099158
C   C332      1.0  0.24270  0.17740  0.68612  1.0000 -0.4491099158
C   C333      1.0  0.74270  0.32260  0.18612  1.0000 -0.4491099158
C   C334      1.0  0.74270  0.67740  0.31388  1.0000 -0.4491099158
C   C335      1.0  0.75730  0.17740  0.18612  1.0000 -0.4491099158
C   C336      1.0  0.75730  0.82260  0.31388  1.0000 -0.4491099158
C   C337      1.0  0.39170  0.80142  0.73338  1.0000 -0.4387806103
C   C338      1.0  0.39170  0.19858  0.76662  1.0000 -0.4387806103
C   C339      1.0  0.10830  0.69858  0.73338  1.0000 -0.4387806103
C   C340      1.0  0.10830  0.30142  0.76662  1.0000 -0.4387806103
C   C341      1.0  0.60830  0.19858  0.26662  1.0000 -0.4387806103
C   C342      1.0  0.60830  0.80142  0.23338  1.0000 -0.4387806103
C   C343      1.0  0.89170  0.30142  0.26662  1.0000 -0.4387806103
C   C344      1.0  0.89170  0.69858  0.23338  1.0000 -0.4387806103
C   C345      1.0  0.52040  0.78679  0.77751  1.0000 -0.4297466627
C   C346      1.0  0.52040  0.21321  0.72249  1.0000 -0.4297466627
C   C347      1.0  0.97960  0.71321  0.77751  1.0000 -0.4297466627
C   C348      1.0  0.97960  0.28679  0.72249  1.0000 -0.4297466627
C   C349      1.0  0.47960  0.21321  0.22249  1.0000 -0.4297466627
C   C350      1.0  0.47960  0.78679  0.27751  1.0000 -0.4297466627
C   C351      1.0  0.02040  0.28679  0.22249  1.0000 -0.4297466627
C   C352      1.0  0.02040  0.71321  0.27751  1.0000 -0.4297466627
C   C353      1.0  0.25000  0.75000  0.71137  1.0000 -0.2206395229
C   C354      1.0  0.25000  0.25000  0.78863  1.0000 -0.2278068414
C   C355      1.0  0.75000  0.25000  0.28863  1.0000 -0.2278068414
C   C356      1.0  0.75000  0.75000  0.21137  1.0000 -0.2206395229
C   C357      1.0  0.22500  0.79120  0.69280  1.0000 0.1014152975
C   C358      1.0  0.22500  0.20880  0.80720  1.0000 0.1014152975
C   C359      1.0  0.27500  0.70880  0.69280  1.0000 0.1014152975
C   C360      1.0  0.27500  0.29120  0.80720  1.0000 0.1014152975
C   C361      1.0  0.77500  0.20880  0.30720  1.0000 0.1014152975
C   C362      1.0  0.77500  0.79120  0.19280  1.0000 0.1014152975
C   C363      1.0  0.72500  0.29120  0.30720  1.0000 0.1014152975
C   C364      1.0  0.72500  0.70880  0.19280  1.0000 0.1014152975
C   C365      1.0  0.22580  0.79210  0.65615  1.0000 0.0821516347
C   C366      1.0  0.22580  0.20790  0.84385  1.0000 0.0821516347
C   C367      1.0  0.27420  0.70790  0.65615  1.0000 0.0821516347
C   C368      1.0  0.27420  0.29210  0.84385  1.0000 0.0821516347
C   C369      1.0  0.77420  0.20790  0.34385  1.0000 0.0821516347
C   C370      1.0  0.77420  0.79210  0.15615  1.0000 0.0821516347
C   C371      1.0  0.72580  0.29210  0.34385  1.0000 0.0821516347
C   C372      1.0  0.72580  0.70790  0.15615  1.0000 0.0821516347
C   C373      1.0  0.25000  0.75000  0.63833  1.0000 -0.0666217948
C   C374      1.0  0.25000  0.25000  0.86167  1.0000 -0.0666217948
C   C375      1.0  0.75000  0.25000  0.36167  1.0000 -0.0666217948
C   C376      1.0  0.75000  0.75000  0.13833  1.0000 -0.0666217948
C   C377      1.0  0.20020  0.83710  0.71350  1.0000 -0.4297466627
C   C378      1.0  0.20020  0.16290  0.78650  1.0000 -0.4297466627
C   C379      1.0  0.29980  0.66290  0.71350  1.0000 -0.4297466627
C   C380      1.0  0.29980  0.33710  0.78650  1.0000 -0.4297466627
C   C381      1.0  0.79980  0.16290  0.28650  1.0000 -0.4297466627
C   C382      1.0  0.79980  0.83710  0.21350  1.0000 -0.4297466627
C   C383      1.0  0.70020  0.33710  0.28650  1.0000 -0.4297466627
C   C384      1.0  0.70020  0.66290  0.21350  1.0000 -0.4297466627
C   C385      1.0  0.20340  0.83700  0.63400  1.0000 -0.4231176372
C   C386      1.0  0.20340  0.16300  0.86600  1.0000 -0.4231176372
C   C387      1.0  0.29660  0.66300  0.63400  1.0000 -0.4231176372
C   C388      1.0  0.29660  0.33700  0.86600  1.0000 -0.4231176372
C   C389      1.0  0.79660  0.16300  0.36600  1.0000 -0.4231176372
C   C390      1.0  0.79660  0.83700  0.13400  1.0000 -0.4231176372
C   C391      1.0  0.70340  0.33700  0.36600  1.0000 -0.4231176372
C   C392      1.0  0.70340  0.66300  0.13400  1.0000 -0.4231176372
C   C393      1.0  0.25000  0.75000  0.59785  1.0000 0.6136997645
C   C394      1.0  0.25000  0.25000  0.90215  1.0000 0.6136997645
C   C395      1.0  0.75000  0.25000  0.40215  1.0000 0.6136997645
C   C396      1.0  0.75000  0.75000  0.09785  1.0000 0.6136997645
C   C397      1.0  0.75000  0.75000  0.83068  1.0000 0.6337667589
C   C398      1.0  0.75000  0.25000  0.66932  1.0000 0.6337667589
C   C399      1.0  0.25000  0.25000  0.16932  1.0000 0.6337667589
C   C400      1.0  0.25000  0.75000  0.33068  1.0000 0.6337667589
C   C401      1.0  0.75000  0.75000  0.79076  1.0000 -0.141826908
C   C402      1.0  0.75000  0.25000  0.70924  1.0000 -0.141826908
C   C403      1.0  0.25000  0.25000  0.20924  1.0000 -0.141826908
C   C404      1.0  0.25000  0.75000  0.29076  1.0000 -0.141826908
C   C405      1.0  0.77450  0.70900  0.77261  1.0000 0.0821516347
C   C406      1.0  0.77450  0.29100  0.72739  1.0000 0.0821516347
C   C407      1.0  0.72550  0.79100  0.77261  1.0000 0.0821516347
C   C408      1.0  0.72550  0.20900  0.72739  1.0000 0.0821516347
C   C409      1.0  0.22550  0.29100  0.22739  1.0000 0.0821516347
C   C410      1.0  0.22550  0.70900  0.27261  1.0000 0.0821516347
C   C411      1.0  0.27450  0.20900  0.22739  1.0000 0.0821516347
C   C412      1.0  0.27450  0.79100  0.27261  1.0000 0.0821516347
C   C413      1.0  0.77660  0.70930  0.73560  1.0000 0.1014152975
C   C414      1.0  0.77660  0.29070  0.76440  1.0000 0.1014152975
C   C415      1.0  0.72340  0.79070  0.73560  1.0000 0.1014152975
C   C416      1.0  0.72340  0.20930  0.76440  1.0000 0.1014152975
C   C417      1.0  0.22340  0.29070  0.26440  1.0000 0.1014152975
C   C418      1.0  0.22340  0.70930  0.23560  1.0000 0.1014152975
C   C419      1.0  0.27660  0.20930  0.26440  1.0000 0.1014152975
C   C420      1.0  0.27660  0.79070  0.23560  1.0000 0.1014152975
C   C421      1.0  0.75000  0.75000  0.71682  1.0000 -0.2278068414
C   C422      1.0  0.75000  0.25000  0.78318  1.0000 -0.2278068414
C   C423      1.0  0.25000  0.25000  0.28318  1.0000 -0.2278068414
C   C424      1.0  0.25000  0.75000  0.21682  1.0000 -0.2278068414
C   C425      1.0  0.79780  0.66250  0.79335  1.0000 -0.4075140799
C   C426      1.0  0.79780  0.33750  0.70665  1.0000 -0.4075140799
C   C427      1.0  0.70220  0.83750  0.79335  1.0000 -0.4075140799
C   C428      1.0  0.70220  0.16250  0.70665  1.0000 -0.4075140799
C   C429      1.0  0.20220  0.33750  0.20665  1.0000 -0.4075140799
C   C430      1.0  0.20220  0.66250  0.29335  1.0000 -0.4075140799
C   C431      1.0  0.29780  0.16250  0.20665  1.0000 -0.4075140799
C   C432      1.0  0.29780  0.83750  0.29335  1.0000 -0.4075140799
C   C433      1.0  0.80830  0.66400  0.71733  1.0000 -0.4387806103
C   C434      1.0  0.80830  0.33600  0.78267  1.0000 -0.4387806103
C   C435      1.0  0.69170  0.83600  0.71733  1.0000 -0.4387806103
C   C436      1.0  0.69170  0.16400  0.78267  1.0000 -0.4387806103
C   C437      1.0  0.19170  0.33600  0.28267  1.0000 -0.4387806103
C   C438      1.0  0.19170  0.66400  0.21733  1.0000 -0.4387806103
C   C439      1.0  0.30830  0.16400  0.28267  1.0000 -0.4387806103
C   C440      1.0  0.30830  0.83600  0.21733  1.0000 -0.4387806103
C   C441      1.0  0.82550  0.74250  0.65463  1.0000 -0.2278068414
C   C442      1.0  0.82550  0.25750  0.84537  1.0000 -0.2278068414
C   C443      1.0  0.67450  0.75750  0.65463  1.0000 -0.2278068414
C   C444      1.0  0.67450  0.24250  0.84537  1.0000 -0.2278068414
C   C445      1.0  0.17450  0.25750  0.34537  1.0000 -0.2278068414
C   C446      1.0  0.17450  0.74250  0.15463  1.0000 -0.2278068414
C   C447      1.0  0.32550  0.24250  0.34537  1.0000 -0.2278068414
C   C448      1.0  0.32550  0.75750  0.15463  1.0000 -0.2278068414
C   C449      1.0  0.88540  0.77060  0.66404  1.0000 0.1014152975
C   C450      1.0  0.88540  0.22940  0.83596  1.0000 0.1014152975
C   C451      1.0  0.61460  0.72940  0.66404  1.0000 0.1014152975
C   C452      1.0  0.61460  0.27060  0.83596  1.0000 0.1014152975
C   C453      1.0  0.11460  0.22940  0.33596  1.0000 0.1014152975
C   C454      1.0  0.11460  0.77060  0.16404  1.0000 0.1014152975
C   C455      1.0  0.38540  0.27060  0.33596  1.0000 0.1014152975
C   C456      1.0  0.38540  0.72940  0.16404  1.0000 0.1014152975
C   C457      1.0  0.95030  0.76480  0.64599  1.0000 0.0901493848
C   C458      1.0  0.95030  0.23520  0.85401  1.0000 0.0901493848
C   C459      1.0  0.54970  0.73520  0.64599  1.0000 0.0901493848
C   C460      1.0  0.54970  0.26480  0.85401  1.0000 0.0901493848
C   C461      1.0  0.04970  0.23520  0.35401  1.0000 0.0901493848
C   C462      1.0  0.04970  0.76480  0.14599  1.0000 0.0901493848
C   C463      1.0  0.45030  0.26480  0.35401  1.0000 0.0901493848
C   C464      1.0  0.45030  0.73520  0.14599  1.0000 0.0901493848
C   C465      1.0  0.95530  0.73110  0.61853  1.0000 -0.141826908
C   C466      1.0  0.95530  0.26890  0.88147  1.0000 -0.141826908
C   C467      1.0  0.54470  0.76890  0.61853  1.0000 -0.141826908
C   C468      1.0  0.54470  0.23110  0.88147  1.0000 -0.141826908
C   C469      1.0  0.04470  0.26890  0.38147  1.0000 -0.141826908
C   C470      1.0  0.04470  0.73110  0.11853  1.0000 -0.141826908
C   C471      1.0  0.45530  0.23110  0.38147  1.0000 -0.141826908
C   C472      1.0  0.45530  0.76890  0.11853  1.0000 -0.141826908
C   C473      1.0  0.89540  0.70310  0.60912  1.0000 0.0901493848
C   C474      1.0  0.89540  0.29690  0.89088  1.0000 0.0901493848
C   C475      1.0  0.60460  0.79690  0.60912  1.0000 0.0901493848
C   C476      1.0  0.60460  0.20310  0.89088  1.0000 0.0901493848
C   C477      1.0  0.10460  0.29690  0.39088  1.0000 0.0901493848
C   C478      1.0  0.10460  0.70310  0.10912  1.0000 0.0901493848
C   C479      1.0  0.39540  0.20310  0.39088  1.0000 0.0901493848
C   C480      1.0  0.39540  0.79690  0.10912  1.0000 0.0901493848
C   C481      1.0  0.83050  0.70880  0.62717  1.0000 0.1014152975
C   C482      1.0  0.83050  0.29120  0.87283  1.0000 0.1014152975
C   C483      1.0  0.66950  0.79120  0.62717  1.0000 0.1014152975
C   C484      1.0  0.66950  0.20880  0.87283  1.0000 0.1014152975
C   C485      1.0  0.16950  0.29120  0.37283  1.0000 0.1014152975
C   C486      1.0  0.16950  0.70880  0.12717  1.0000 0.1014152975
C   C487      1.0  0.33050  0.20880  0.37283  1.0000 0.1014152975
C   C488      1.0  0.33050  0.79120  0.12717  1.0000 0.1014152975
C   C489      1.0  0.88200  0.81180  0.69180  1.0000 -0.4491099158
C   C490      1.0  0.88200  0.18820  0.80820  1.0000 -0.4491099158
C   C491      1.0  0.61800  0.68820  0.69180  1.0000 -0.4491099158
C   C492      1.0  0.61800  0.31180  0.80820  1.0000 -0.4491099158
C   C493      1.0  0.11800  0.18820  0.30820  1.0000 -0.4491099158
C   C494      1.0  0.11800  0.81180  0.19180  1.0000 -0.4491099158
C   C495      1.0  0.38200  0.31180  0.30820  1.0000 -0.4491099158
C   C496      1.0  0.38200  0.68820  0.19180  1.0000 -0.4491099158
C   C497      1.0  0.01530  0.79780  0.65530  1.0000 -0.4387806103
C   C498      1.0  0.01530  0.20220  0.84470  1.0000 -0.4387806103
C   C499      1.0  0.48470  0.70220  0.65530  1.0000 -0.4387806103
C   C500      1.0  0.48470  0.29780  0.84470  1.0000 -0.4387806103
C   C501      1.0  0.98470  0.20220  0.34470  1.0000 -0.4387806103
C   C502      1.0  0.98470  0.79780  0.15530  1.0000 -0.4387806103
C   C503      1.0  0.51530  0.29780  0.34470  1.0000 -0.4387806103
C   C504      1.0  0.51530  0.70220  0.15530  1.0000 -0.4387806103
C   C505      1.0  0.90190  0.66420  0.57810  1.0000 -0.4387806103
C   C506      1.0  0.90190  0.33580  0.92190  1.0000 -0.4387806103
C   C507      1.0  0.59810  0.83580  0.57810  1.0000 -0.4387806103
C   C508      1.0  0.59810  0.16420  0.92190  1.0000 -0.4387806103
C   C509      1.0  0.09810  0.33580  0.42190  1.0000 -0.4387806103
C   C510      1.0  0.09810  0.66420  0.07810  1.0000 -0.4387806103
C   C511      1.0  0.40190  0.16420  0.42190  1.0000 -0.4387806103
C   C512      1.0  0.40190  0.83580  0.07810  1.0000 -0.4387806103
C   C513      1.0  0.76650  0.67560  0.61570  1.0000 -0.4491099158
C   C514      1.0  0.76650  0.32440  0.88430  1.0000 -0.4491099158
C   C515      1.0  0.73350  0.82440  0.61570  1.0000 -0.4491099158
C   C516      1.0  0.73350  0.17560  0.88430  1.0000 -0.4491099158
C   C517      1.0  0.23350  0.32440  0.38430  1.0000 -0.4491099158
C   C518      1.0  0.23350  0.67560  0.11570  1.0000 -0.4491099158
C   C519      1.0  0.26650  0.17560  0.38430  1.0000 -0.4491099158
C   C520      1.0  0.26650  0.82440  0.11570  1.0000 -0.4491099158
C   C521      1.0  0.02560  0.72440  0.60000  1.0000 0.5853228276
C   C522      1.0  0.02560  0.27560  0.90000  1.0000 0.5849280064
C   C523      1.0  0.47440  0.77560  0.60000  1.0000 0.5849280064
C   C524      1.0  0.47440  0.22440  0.90000  1.0000 0.5849280064
C   C525      1.0  0.97440  0.27560  0.40000  1.0000 0.5853228276
C   C526      1.0  0.97440  0.72440  0.10000  1.0000 0.5853228276
C   C527      1.0  0.52560  0.22440  0.40000  1.0000 0.5849280064
C   C528      1.0  0.52560  0.77560  0.10000  1.0000 0.5849280064
C   C529      1.0  0.75000  0.75000  0.95050  1.0000 0.8420421784
C   C530      1.0  0.75000  0.25000  0.54950  1.0000 0.8420421784
C   C531      1.0  0.25000  0.25000  0.04950  1.0000 0.8420421784
C   C532      1.0  0.25000  0.75000  0.45050  1.0000 0.8420421784
O   O1        1.0  0.55520  0.67930  0.99060  1.0000 -0.6207925077
O   O2        1.0  0.55520  0.32070  0.50940  1.0000 -0.6207925077
O   O3        1.0  0.94480  0.82070  0.99060  1.0000 -0.6207925077
O   O4        1.0  0.94480  0.17930  0.50940  1.0000 -0.6207925077
O   O5        1.0  0.44480  0.32070  0.00940  1.0000 -0.6207925077
O   O6        1.0  0.44480  0.67930  0.49060  1.0000 -0.6207925077
O   O7        1.0  0.05520  0.17930  0.00940  1.0000 -0.6207925077
O   O8        1.0  0.05520  0.82070  0.49060  1.0000 -0.6207925077
O   O9        1.0  0.53210  0.69860  0.93470  1.0000 -0.6207925077
O   O10       1.0  0.53210  0.30140  0.56530  1.0000 -0.6207925077
O   O11       1.0  0.96790  0.80140  0.93470  1.0000 -0.6207925077
O   O12       1.0  0.96790  0.19860  0.56530  1.0000 -0.6207925077
O   O13       1.0  0.46790  0.30140  0.06530  1.0000 -0.6207925077
O   O14       1.0  0.46790  0.69860  0.43470  1.0000 -0.6207925077
O   O15       1.0  0.03210  0.19860  0.06530  1.0000 -0.6207925077
O   O16       1.0  0.03210  0.80140  0.43470  1.0000 -0.6207925077
O   O17       1.0  0.28080  0.32180  0.97240  1.0000 -0.6366192321
O   O18       1.0  0.28080  0.67820  0.52760  1.0000 -0.6366192321
O   O19       1.0  0.21920  0.17820  0.97240  1.0000 -0.6366192321
O   O20       1.0  0.21920  0.82180  0.52760  1.0000 -0.6366192321
O   O21       1.0  0.71920  0.67820  0.02760  1.0000 -0.6366192321
O   O22       1.0  0.71920  0.32180  0.47240  1.0000 -0.6366192321
O   O23       1.0  0.78080  0.82180  0.02760  1.0000 -0.6366192321
O   O24       1.0  0.78080  0.17820  0.47240  1.0000 -0.6366192321
O   O25       1.0  0.16310  0.32770  0.97920  1.0000 -0.5687215323
O   O26       1.0  0.16310  0.67230  0.52080  1.0000 -0.5687215323
O   O27       1.0  0.33690  0.17230  0.97920  1.0000 -0.5687215323
O   O28       1.0  0.33690  0.82770  0.52080  1.0000 -0.5687215323
O   O29       1.0  0.83690  0.67230  0.02080  1.0000 -0.5687215323
O   O30       1.0  0.83690  0.32770  0.47920  1.0000 -0.5687215323
O   O31       1.0  0.66310  0.82770  0.02080  1.0000 -0.5687215323
O   O32       1.0  0.66310  0.17230  0.47920  1.0000 -0.5687215323
O   O33       1.0  0.94860  0.69170  0.93700  1.0000 -0.6097165379
O   O34       1.0  0.94860  0.30830  0.56300  1.0000 -0.6097165379
O   O35       1.0  0.55140  0.80830  0.93700  1.0000 -0.6097165379
O   O36       1.0  0.55140  0.19170  0.56300  1.0000 -0.6097165379
O   O37       1.0  0.05140  0.30830  0.06300  1.0000 -0.6097165379
O   O38       1.0  0.05140  0.69170  0.43700  1.0000 -0.6097165379
O   O39       1.0  0.44860  0.19170  0.06300  1.0000 -0.6097165379
O   O40       1.0  0.44860  0.80830  0.43700  1.0000 -0.6097165379
O   O41       1.0  0.96880  0.71280  0.99310  1.0000 -0.6097165379
O   O42       1.0  0.96880  0.28720  0.50690  1.0000 -0.6097165379
O   O43       1.0  0.53120  0.78720  0.99310  1.0000 -0.6097165379
O   O44       1.0  0.53120  0.21280  0.50690  1.0000 -0.6097165379
O   O45       1.0  0.03120  0.28720  0.00690  1.0000 -0.6097165379
O   O46       1.0  0.03120  0.71280  0.49310  1.0000 -0.6097165379
O   O47       1.0  0.46880  0.21280  0.00690  1.0000 -0.6097165379
O   O48       1.0  0.46880  0.78720  0.49310  1.0000 -0.6097165379
O   O49       1.0  0.54190  0.70010  0.85280  1.0000 -0.5687215323
O   O50       1.0  0.54190  0.29990  0.64720  1.0000 -0.5687215323
O   O51       1.0  0.95810  0.79990  0.85280  1.0000 -0.5687215323
O   O52       1.0  0.95810  0.20010  0.64720  1.0000 -0.5687215323
O   O53       1.0  0.45810  0.29990  0.14720  1.0000 -0.5687215323
O   O54       1.0  0.45810  0.70010  0.35280  1.0000 -0.5687215323
O   O55       1.0  0.04190  0.20010  0.14720  1.0000 -0.5687215323
O   O56       1.0  0.04190  0.79990  0.35280  1.0000 -0.5687215323
O   O57       1.0  0.52190  0.77910  0.85820  1.0000 -0.5768413539
O   O58       1.0  0.52190  0.22090  0.64180  1.0000 -0.5768413539
O   O59       1.0  0.97810  0.72090  0.85820  1.0000 -0.5768413539
O   O60       1.0  0.97810  0.27910  0.64180  1.0000 -0.5768413539
O   O61       1.0  0.47810  0.22090  0.14180  1.0000 -0.5768413539
O   O62       1.0  0.47810  0.77910  0.35820  1.0000 -0.5768413539
O   O63       1.0  0.02190  0.27910  0.14180  1.0000 -0.5768413539
O   O64       1.0  0.02190  0.72090  0.35820  1.0000 -0.5768413539
O   O65       1.0  0.19170  0.73990  0.58230  1.0000 -0.5918630655
O   O66       1.0  0.19170  0.26010  0.91770  1.0000 -0.5918630655
O   O67       1.0  0.30830  0.76010  0.58230  1.0000 -0.5918630655
O   O68       1.0  0.30830  0.23990  0.91770  1.0000 -0.5918630655
O   O69       1.0  0.80830  0.26010  0.41770  1.0000 -0.5918630655
O   O70       1.0  0.80830  0.73990  0.08230  1.0000 -0.5918630655
O   O71       1.0  0.69170  0.23990  0.41770  1.0000 -0.5918630655
O   O72       1.0  0.69170  0.76010  0.08230  1.0000 -0.5918630655
O   O73       1.0  0.69000  0.74930  0.84520  1.0000 -0.6000290061
O   O74       1.0  0.69000  0.25070  0.65480  1.0000 -0.6000290061
O   O75       1.0  0.81000  0.75070  0.84520  1.0000 -0.6000290061
O   O76       1.0  0.81000  0.24930  0.65480  1.0000 -0.6000290061
O   O77       1.0  0.31000  0.25070  0.15480  1.0000 -0.6000290061
O   O78       1.0  0.31000  0.74930  0.34520  1.0000 -0.6000290061
O   O79       1.0  0.19000  0.24930  0.15480  1.0000 -0.6000290061
O   O80       1.0  0.19000  0.75070  0.34520  1.0000 -0.6000290061
O   O81       1.0  0.08120  0.71110  0.62090  1.0000 -0.5428918372
O   O82       1.0  0.08120  0.28890  0.87910  1.0000 -0.5428918372
O   O83       1.0  0.41880  0.78890  0.62090  1.0000 -0.5428918372
O   O84       1.0  0.41880  0.21110  0.87910  1.0000 -0.5428918372
O   O85       1.0  0.91880  0.28890  0.37910  1.0000 -0.5428918372
O   O86       1.0  0.91880  0.71110  0.12090  1.0000 -0.5428918372
O   O87       1.0  0.58120  0.21110  0.37910  1.0000 -0.5428918372
O   O88       1.0  0.58120  0.78890  0.12090  1.0000 -0.5428918372
O   O89       1.0  0.03270  0.73080  0.56900  1.0000 -0.5312705929
O   O90       1.0  0.03270  0.26920  0.93100  1.0000 -0.5312705929
O   O91       1.0  0.46730  0.76920  0.56900  1.0000 -0.5312705929
O   O92       1.0  0.46730  0.23080  0.93100  1.0000 -0.5312705929
O   O93       1.0  0.96730  0.26920  0.43100  1.0000 -0.5312705929
O   O94       1.0  0.96730  0.73080  0.06900  1.0000 -0.5312705929
O   O95       1.0  0.53270  0.23080  0.43100  1.0000 -0.5312705929
O   O96       1.0  0.53270  0.76920  0.06900  1.0000 -0.5312705929
O   O97       1.0  0.75000  0.75000  0.91650  1.0000 -0.7281190599
O   O98       1.0  0.75000  0.25000  0.58350  1.0000 -0.7281190599
O   O99       1.0  0.25000  0.25000  0.08350  1.0000 -0.7281190599
O   O100      1.0  0.25000  0.75000  0.41650  1.0000 -0.7281190599
O   O101      1.0  0.68900  0.74610  0.96570  1.0000 -0.7142878468
O   O102      1.0  0.68900  0.25390  0.53430  1.0000 -0.7142878468
O   O103      1.0  0.81100  0.75390  0.96570  1.0000 -0.7142878468
O   O104      1.0  0.81100  0.24610  0.53430  1.0000 -0.7142878468
O   O105      1.0  0.31100  0.25390  0.03430  1.0000 -0.7142878468
O   O106      1.0  0.31100  0.74610  0.46570  1.0000 -0.7142878468
O   O107      1.0  0.18900  0.24610  0.03430  1.0000 -0.7142878468
O   O108      1.0  0.18900  0.75390  0.46570  1.0000 -0.7142878468
