# DDEC6 charges by PACMAN v1.1 (https://github.com/mtap-research/PACMAN-charge/)
data_2013[Mn][nan]3[ASR]1
_chemical_formula_sum              "Mn12 H200 C256 N16 O76"
_cell_length_a       44.3001
_cell_length_b       37.8771
_cell_length_c       24.1489
_cell_angle_alpha    88.2663
_cell_angle_beta     58.7178
_cell_angle_gamma    33.0159

_symmetry_space_group_name_H-M    "P 1"
_symmetry_Int_Tables_number       1

loop_
  _symmetry_equiv_pos_as_xyz
  'x, y, z'

loop_
  _atom_site_type_symbol
  _atom_site_label
  _atom_site_symmetry_multiplicity
  _atom_site_fract_x
  _atom_site_fract_y
  _atom_site_fract_z
  _atom_site_occupancy
  _atom_site_charge
Mn  Mn1       1.0  0.39068  0.02256  0.87278  1.0000 0.9007032332
Mn  Mn2       1.0  0.71398  0.87278  0.02256  1.0000 0.9007032332
Mn  Mn3       1.0  0.22744  0.85932  0.53602  1.0000 0.9007032332
Mn  Mn4       1.0  0.37722  0.53602  0.85932  1.0000 0.9007032332
Mn  Mn5       1.0  0.05843  0.32409  0.20955  1.0000 1.0515933376
Mn  Mn6       1.0  0.40793  0.20955  0.32409  1.0000 1.0515933376
Mn  Mn7       1.0  0.92591  0.19157  0.84207  1.0000 1.0515933376
Mn  Mn8       1.0  0.04045  0.84207  0.19157  1.0000 1.0515933376
Mn  Mn9       1.0  0.79918  0.56424  0.53120  1.0000 0.9007032332
Mn  Mn10      1.0  0.10538  0.53120  0.56424  1.0000 0.9007032332
Mn  Mn11      1.0  0.68576  0.45082  0.14462  1.0000 0.9007032332
Mn  Mn12      1.0  0.71880  0.14462  0.45082  1.0000 0.9007032332
H   H1        1.0  0.07870  0.09170  0.07250  1.0000 0.0999742686
H   H2        1.0  0.75710  0.07250  0.09170  1.0000 0.0999742686
H   H3        1.0  0.15830  0.17130  0.49290  1.0000 0.0999742686
H   H4        1.0  0.17750  0.49290  0.17130  1.0000 0.0999742686
H   H5        1.0  0.10980  0.06040  0.10840  1.0000 0.0999742686
H   H6        1.0  0.72140  0.10840  0.06040  1.0000 0.0999742686
H   H7        1.0  0.18960  0.14020  0.52860  1.0000 0.0999742686
H   H8        1.0  0.14160  0.52860  0.14020  1.0000 0.0999742686
H   H9        1.0  0.32330  0.82450  0.80730  1.0000 0.0999742686
H   H10       1.0  0.04490  0.80730  0.82450  1.0000 0.0999742686
H   H11       1.0  0.42550  0.92670  0.20510  1.0000 0.0999742686
H   H12       1.0  0.44270  0.20510  0.92670  1.0000 0.0999742686
H   H13       1.0  0.28850  0.81750  0.84410  1.0000 0.0999742686
H   H14       1.0  0.04990  0.84410  0.81750  1.0000 0.0999742686
H   H15       1.0  0.43250  0.96150  0.20010  1.0000 0.0999742686
H   H16       1.0  0.40590  0.20010  0.96150  1.0000 0.0999742686
H   H17       1.0  0.05200  0.05120  0.16900  1.0000 0.0999742686
H   H18       1.0  0.72780  0.16900  0.05120  1.0000 0.0999742686
H   H19       1.0  0.19880  0.19800  0.52220  1.0000 0.0999742686
H   H20       1.0  0.08100  0.52220  0.19800  1.0000 0.0999742686
H   H21       1.0  0.00830  0.09770  0.14630  1.0000 0.0999742686
H   H22       1.0  0.74770  0.14630  0.09770  1.0000 0.0999742686
H   H23       1.0  0.15230  0.24170  0.50230  1.0000 0.0999742686
H   H24       1.0  0.10370  0.50230  0.24170  1.0000 0.0999742686
H   H25       1.0  0.32930  0.77610  0.90630  1.0000 0.0999742686
H   H26       1.0  0.98830  0.90630  0.77610  1.0000 0.0999742686
H   H27       1.0  0.47390  0.92070  0.26170  1.0000 0.0999742686
H   H28       1.0  0.34370  0.26170  0.92070  1.0000 0.0999742686
H   H29       1.0  0.37330  0.77330  0.86210  1.0000 0.0947128895
H   H30       1.0  0.99130  0.86210  0.77330  1.0000 0.0947128895
H   H31       1.0  0.47670  0.87670  0.25870  1.0000 0.0947128895
H   H32       1.0  0.38790  0.25870  0.87670  1.0000 0.0947128895
H   H33       1.0  0.12420  0.03520  0.21860  1.0000 0.0999742686
H   H34       1.0  0.62200  0.21860  0.03520  1.0000 0.0999742686
H   H35       1.0  0.21480  0.12580  0.62800  1.0000 0.0999742686
H   H36       1.0  0.03140  0.62800  0.12580  1.0000 0.0999742686
H   H37       1.0  0.15210  0.01290  0.25670  1.0000 0.0999742686
H   H38       1.0  0.57830  0.25670  0.01290  1.0000 0.0999742686
H   H39       1.0  0.23710  0.09790  0.67170  1.0000 0.0999742686
H   H40       1.0  0.99330  0.67170  0.09790  1.0000 0.0999742686
H   H41       1.0  0.46110  0.66930  0.98070  1.0000 0.0947128895
H   H42       1.0  0.88890  0.98070  0.66930  1.0000 0.0999742686
H   H43       1.0  0.58070  0.78890  0.36110  1.0000 0.0947128895
H   H44       1.0  0.26930  0.36110  0.78890  1.0000 0.0999742686
H   H45       1.0  0.45050  0.72070  0.98090  1.0000 0.0999742686
H   H46       1.0  0.84790  0.98090  0.72070  1.0000 0.0999742686
H   H47       1.0  0.52930  0.79950  0.40210  1.0000 0.0999742686
H   H48       1.0  0.26910  0.40210  0.79950  1.0000 0.0999742686
H   H49       1.0  0.17210  0.93150  0.25130  1.0000 0.0999742686
H   H50       1.0  0.64510  0.25130  0.93150  1.0000 0.0999742686
H   H51       1.0  0.31850  0.07790  0.60490  1.0000 0.0999742686
H   H52       1.0  0.99870  0.60490  0.07790  1.0000 0.0999742686
H   H53       1.0  0.15170  0.94430  0.20670  1.0000 0.0947128895
H   H54       1.0  0.69730  0.20670  0.94430  1.0000 0.0947128895
H   H55       1.0  0.30570  0.09830  0.55270  1.0000 0.0947128895
H   H56       1.0  0.04330  0.55270  0.09830  1.0000 0.0947128895
H   H57       1.0  0.40500  0.75800  0.92660  1.0000 0.0999742686
H   H58       1.0  0.91040  0.92660  0.75800  1.0000 0.0999742686
H   H59       1.0  0.49200  0.84500  0.33960  1.0000 0.0999742686
H   H60       1.0  0.32340  0.33960  0.84500  1.0000 0.0999742686
H   H61       1.0  0.41640  0.70580  0.92360  1.0000 0.0947128895
H   H62       1.0  0.95420  0.92360  0.70580  1.0000 0.0947128895
H   H63       1.0  0.54420  0.83360  0.29580  1.0000 0.0947128895
H   H64       1.0  0.32640  0.29580  0.83360  1.0000 0.0947128895
H   H65       1.0  0.06190  0.16570  0.12550  1.0000 0.1191425794
H   H66       1.0  0.64690  0.12550  0.16570  1.0000 0.1191425794
H   H67       1.0  0.08430  0.18810  0.60310  1.0000 0.1191425794
H   H68       1.0  0.12450  0.60310  0.18810  1.0000 0.1191425794
H   H69       1.0  0.07070  0.21670  0.13790  1.0000 0.128826046
H   H70       1.0  0.57470  0.13790  0.21670  1.0000 0.128826046
H   H71       1.0  0.03330  0.17930  0.67530  1.0000 0.128826046
H   H72       1.0  0.11210  0.67530  0.17930  1.0000 0.128826046
H   H73       1.0  0.45910  0.84150  0.76710  1.0000 0.128826046
H   H74       1.0  0.93230  0.76710  0.84150  1.0000 0.128826046
H   H75       1.0  0.40850  0.79090  0.31770  1.0000 0.128826046
H   H76       1.0  0.48290  0.31770  0.79090  1.0000 0.128826046
H   H77       1.0  0.44750  0.79310  0.76110  1.0000 0.1406568643
H   H78       1.0  0.99830  0.76110  0.79310  1.0000 0.1406568643
H   H79       1.0  0.45690  0.80250  0.25170  1.0000 0.1406568643
H   H80       1.0  0.48890  0.25170  0.80250  1.0000 0.1406568643
H   H81       1.0  0.97860  0.14400  0.01680  1.0000 0.128826046
H   H82       1.0  0.86060  0.01680  0.14400  1.0000 0.128826046
H   H83       1.0  0.10600  0.27140  0.38940  1.0000 0.128826046
H   H84       1.0  0.23320  0.38940  0.27140  1.0000 0.128826046
H   H85       1.0  0.99040  0.11860  0.91620  1.0000 0.128826046
H   H86       1.0  0.97480  0.91620  0.11860  1.0000 0.128826046
H   H87       1.0  0.13140  0.25960  0.27520  1.0000 0.128826046
H   H88       1.0  0.33380  0.27520  0.25960  1.0000 0.128826046
H   H89       1.0  0.37890  0.73470  0.58070  1.0000 0.1112709764
H   H90       1.0  0.30570  0.58070  0.73470  1.0000 0.1112709764
H   H91       1.0  0.51530  0.87110  0.94430  1.0000 0.1112709764
H   H92       1.0  0.66930  0.94430  0.87110  1.0000 0.1112709764
H   H93       1.0  0.35750  0.76770  0.69290  1.0000 0.1191425794
H   H94       1.0  0.18190  0.69290  0.76770  1.0000 0.1191425794
H   H95       1.0  0.48230  0.89250  0.06810  1.0000 0.1191425794
H   H96       1.0  0.55710  0.06810  0.89250  1.0000 0.1191425794
H   H97       1.0  0.18270  0.82810  0.97990  1.0000 0.128826046
H   H98       1.0  0.00930  0.97990  0.82810  1.0000 0.128826046
H   H99       1.0  0.42190  0.06730  0.24070  1.0000 0.1191425794
H   H100      1.0  0.27010  0.24070  0.06730  1.0000 0.128826046
H   H101      1.0  0.05740  0.89760  0.10560  1.0000 0.1191425794
H   H102      1.0  0.93940  0.10560  0.89760  1.0000 0.1191425794
H   H103      1.0  0.35240  0.19260  0.31060  1.0000 0.1191425794
H   H104      1.0  0.14440  0.31060  0.19260  1.0000 0.1191425794
H   H105      1.0  0.76270  0.23750  0.42870  1.0000 0.0999742686
H   H106      1.0  0.57110  0.42870  0.23750  1.0000 0.0999742686
H   H107      1.0  0.01250  0.48730  0.67890  1.0000 0.0999742686
H   H108      1.0  0.82130  0.67890  0.48730  1.0000 0.0999742686
H   H109      1.0  0.88380  0.17260  0.30940  1.0000 0.1112709764
H   H110      1.0  0.63420  0.30940  0.17260  1.0000 0.1112709764
H   H111      1.0  0.07740  0.36620  0.61580  1.0000 0.1112709764
H   H112      1.0  0.94060  0.61580  0.36620  1.0000 0.1112709764
H   H113      1.0  0.00260  0.19580  0.35900  1.0000 0.1191425794
H   H114      1.0  0.44260  0.35900  0.19580  1.0000 0.1191425794
H   H115      1.0  0.05420  0.24740  0.80740  1.0000 0.1191425794
H   H116      1.0  0.89100  0.80740  0.24740  1.0000 0.1191425794
H   H117      1.0  0.88640  0.35860  0.46920  1.0000 0.1191425794
H   H118      1.0  0.28580  0.46920  0.35860  1.0000 0.1191425794
H   H119      1.0  0.89140  0.36360  0.96420  1.0000 0.1191425794
H   H120      1.0  0.78080  0.96420  0.36360  1.0000 0.1191425794
H   H121      1.0  0.21200  0.09820  0.13560  1.0000 0.128826046
H   H122      1.0  0.55420  0.13560  0.09820  1.0000 0.128826046
H   H123      1.0  0.15180  0.03800  0.69580  1.0000 0.128826046
H   H124      1.0  0.11440  0.69580  0.03800  1.0000 0.128826046
H   H125      1.0  0.32670  0.93590  0.03550  1.0000 0.1406568643
H   H126      1.0  0.70190  0.03550  0.93590  1.0000 0.1406568643
H   H127      1.0  0.31410  0.92330  0.54810  1.0000 0.1406568643
H   H128      1.0  0.21450  0.54810  0.92330  1.0000 0.1406568643
H   H129      1.0  0.28500  0.86280  0.29200  1.0000 0.1406568643
H   H130      1.0  0.56020  0.29200  0.86280  1.0000 0.1406568643
H   H131      1.0  0.38720  0.96500  0.68980  1.0000 0.1406568643
H   H132      1.0  0.95800  0.68980  0.96500  1.0000 0.1406568643
H   H133      1.0  0.40860  0.73680  0.25700  1.0000 0.128826046
H   H134      1.0  0.59760  0.25700  0.73680  1.0000 0.128826046
H   H135      1.0  0.51320  0.84140  0.65240  1.0000 0.128826046
H   H136      1.0  0.99300  0.65240  0.84140  1.0000 0.128826046
H   H137      1.0  0.73020  0.41960  0.87600  1.0000 0.128826046
H   H138      1.0  0.97420  0.87600  0.41960  1.0000 0.128826046
H   H139      1.0  0.83040  0.51980  0.27580  1.0000 0.128826046
H   H140      1.0  0.37400  0.27580  0.51980  1.0000 0.128826046
H   H141      1.0  0.60300  0.55040  0.90900  1.0000 0.1191425794
H   H142      1.0  0.93760  0.90900  0.55040  1.0000 0.1191425794
H   H143      1.0  0.69960  0.64700  0.31240  1.0000 0.1191425794
H   H144      1.0  0.34100  0.31240  0.64700  1.0000 0.1191425794
H   H145      1.0  0.44680  0.58480  0.97360  1.0000 0.128826046
H   H146      1.0  0.99480  0.97360  0.58480  1.0000 0.128826046
H   H147      1.0  0.66520  0.80320  0.25520  1.0000 0.128826046
H   H148      1.0  0.27640  0.25520  0.80320  1.0000 0.128826046
H   H149      1.0  0.40810  0.56550  0.97510  1.0000 0.1191425794
H   H150      1.0  0.05130  0.97510  0.56550  1.0000 0.1191425794
H   H151      1.0  0.68450  0.84190  0.19870  1.0000 0.1191425794
H   H152      1.0  0.27490  0.19870  0.84190  1.0000 0.1191425794
H   H153      1.0  0.05530  0.93450  0.24650  1.0000 0.1191425794
H   H154      1.0  0.76370  0.24650  0.93450  1.0000 0.1191425794
H   H155      1.0  0.31550  0.19470  0.48630  1.0000 0.1191425794
H   H156      1.0  0.00350  0.48630  0.19470  1.0000 0.1191425794
H   H157      1.0  0.09120  0.95620  0.24780  1.0000 0.1191425794
H   H158      1.0  0.70480  0.24780  0.95620  1.0000 0.1191425794
H   H159      1.0  0.29380  0.15880  0.54520  1.0000 0.1191425794
H   H160      1.0  0.00220  0.54520  0.15880  1.0000 0.1191425794
H   H161      1.0  0.80590  0.61510  0.62950  1.0000 0.1191425794
H   H162      1.0  0.94950  0.62950  0.61510  1.0000 0.1191425794
H   H163      1.0  0.63490  0.44410  0.30050  1.0000 0.1191425794
H   H164      1.0  0.62050  0.30050  0.44410  1.0000 0.1191425794
H   H165      1.0  0.85020  0.47060  0.60560  1.0000 0.128826046
H   H166      1.0  0.07360  0.60560  0.47060  1.0000 0.128826046
H   H167      1.0  0.77940  0.39980  0.17640  1.0000 0.128826046
H   H168      1.0  0.64440  0.17640  0.39980  1.0000 0.128826046
H   H169      1.0  0.84690  0.49510  0.69990  1.0000 0.128826046
H   H170      1.0  0.95810  0.69990  0.49510  1.0000 0.128826046
H   H171      1.0  0.75490  0.40310  0.29190  1.0000 0.128826046
H   H172      1.0  0.55010  0.29190  0.40310  1.0000 0.128826046
H   H173      1.0  0.83660  0.54460  0.77420  1.0000 0.1191425794
H   H174      1.0  0.84460  0.77420  0.54460  1.0000 0.1191425794
H   H175      1.0  0.70540  0.41340  0.40540  1.0000 0.1191425794
H   H176      1.0  0.47580  0.40540  0.41340  1.0000 0.1191425794
H   H177      1.0  0.79520  0.62380  0.88440  1.0000 0.1191425794
H   H178      1.0  0.69660  0.88440  0.62380  1.0000 0.1191425794
H   H179      1.0  0.62620  0.45480  0.55340  1.0000 0.1191425794
H   H180      1.0  0.36560  0.55340  0.45480  1.0000 0.1191425794
H   H181      1.0  0.68220  0.80580  0.87740  1.0000 0.128826046
H   H182      1.0  0.63460  0.87740  0.80580  1.0000 0.128826046
H   H183      1.0  0.44420  0.56780  0.61540  1.0000 0.128826046
H   H184      1.0  0.37260  0.61540  0.56780  1.0000 0.128826046
H   H185      1.0  0.72090  0.72710  0.77190  1.0000 0.128826046
H   H186      1.0  0.78010  0.77190  0.72710  1.0000 0.128826046
H   H187      1.0  0.52290  0.52910  0.46990  1.0000 0.128826046
H   H188      1.0  0.47810  0.46990  0.52910  1.0000 0.128826046
H   H189      1.0  0.73230  0.79710  0.90150  1.0000 0.1191425794
H   H190      1.0  0.56910  0.90150  0.79710  1.0000 0.1191425794
H   H191      1.0  0.45290  0.51770  0.68090  1.0000 0.1191425794
H   H192      1.0  0.34850  0.68090  0.51770  1.0000 0.1191425794
H   H193      1.0  0.70640  0.74180  0.02860  1.0000 0.128826046
H   H194      1.0  0.52320  0.02860  0.74180  1.0000 0.128826046
H   H195      1.0  0.50820  0.54360  0.72680  1.0000 0.128826046
H   H196      1.0  0.22140  0.72680  0.54360  1.0000 0.128826046
H   H197      1.0  0.70130  0.80190  0.08410  1.0000 0.1112709764
H   H198      1.0  0.41270  0.08410  0.80190  1.0000 0.1112709764
H   H199      1.0  0.44810  0.54870  0.83730  1.0000 0.1112709764
H   H200      1.0  0.16590  0.83730  0.54870  1.0000 0.1112709764
C   C1        1.0  0.19864  0.93306  0.98654  1.0000 0.0652422519
C   C2        1.0  0.88176  0.98654  0.93306  1.0000 0.0652422519
C   C3        1.0  0.31694  0.05136  0.36824  1.0000 0.0652422519
C   C4        1.0  0.26346  0.36824  0.05136  1.0000 0.0652422519
C   C5        1.0  0.14592  0.02194  0.03906  1.0000 -0.0730028489
C   C6        1.0  0.79308  0.03906  0.02194  1.0000 -0.0730028489
C   C7        1.0  0.22806  0.10408  0.45692  1.0000 -0.0730028489
C   C8        1.0  0.21094  0.45692  0.10408  1.0000 -0.0815210023
C   C9        1.0  0.25340  0.87502  0.87878  1.0000 -0.1003904249
C   C10       1.0  0.99280  0.87878  0.87502  1.0000 -0.1003904249
C   C11       1.0  0.37498  0.99660  0.25720  1.0000 -0.1003904249
C   C12       1.0  0.37122  0.25720  0.99660  1.0000 -0.1003904249
C   C13       1.0  0.08119  0.02149  0.10451  1.0000 -0.0815210023
C   C14       1.0  0.79281  0.10451  0.02149  1.0000 -0.0815210023
C   C15       1.0  0.22851  0.16881  0.45719  1.0000 -0.0815210023
C   C16       1.0  0.14549  0.45719  0.16881  1.0000 -0.0886898997
C   C17       1.0  0.29902  0.82934  0.93666  1.0000 -0.0886898997
C   C18       1.0  0.93498  0.93666  0.82934  1.0000 -0.0886898997
C   C19       1.0  0.42066  0.95098  0.31502  1.0000 -0.0886898997
C   C20       1.0  0.31334  0.31502  0.95098  1.0000 -0.0886898997
C   C21       1.0  0.28897  0.84995  0.09565  1.0000 0.0462478814
C   C22       1.0  0.76543  0.09565  0.84995  1.0000 0.0462478814
C   C23       1.0  0.40005  0.96103  0.48457  1.0000 0.0440589008
C   C24       1.0  0.15435  0.48457  0.96103  1.0000 0.0440589008
C   C25       1.0  0.19294  0.97282  0.18338  1.0000 -0.0591654289
C   C26       1.0  0.65086  0.18338  0.97282  1.0000 -0.0591654289
C   C27       1.0  0.27718  0.05706  0.59914  1.0000 -0.0591654289
C   C28       1.0  0.06662  0.59914  0.05706  1.0000 -0.0591654289
C   C29       1.0  0.40145  0.74677  0.03523  1.0000 -0.0815210023
C   C30       1.0  0.81655  0.03523  0.74677  1.0000 -0.0815210023
C   C31       1.0  0.50323  0.84855  0.43345  1.0000 -0.0815210023
C   C32       1.0  0.21477  0.43345  0.84855  1.0000 -0.0815210023
C   C33       1.0  0.21711  0.88579  0.17541  1.0000 -0.0815210023
C   C34       1.0  0.72169  0.17541  0.88579  1.0000 -0.0815210023
C   C35       1.0  0.36421  0.03289  0.52831  1.0000 -0.0815210023
C   C36       1.0  0.07459  0.52831  0.03289  1.0000 -0.0815210023
C   C37       1.0  0.35606  0.78368  0.97892  1.0000 -0.1074392264
C   C38       1.0  0.88134  0.97892  0.78368  1.0000 -0.1074392264
C   C39       1.0  0.46632  0.89394  0.36866  1.0000 -0.1074392264
C   C40       1.0  0.27108  0.36866  0.89394  1.0000 -0.1003904249
C   C41       1.0  0.25261  0.97565  0.94335  1.0000 0.2391683327
C   C42       1.0  0.82839  0.94335  0.97565  1.0000 0.2391683327
C   C43       1.0  0.27435  0.99739  0.42161  1.0000 0.2391683327
C   C44       1.0  0.30665  0.42161  0.99739  1.0000 0.2391683327
C   C45       1.0  0.14254  0.09954  0.05306  1.0000 -0.2394169329
C   C46       1.0  0.70486  0.05306  0.09954  1.0000 -0.2394169329
C   C47       1.0  0.15046  0.10746  0.54514  1.0000 -0.2394169329
C   C48       1.0  0.19694  0.54514  0.10746  1.0000 -0.2394169329
C   C49       1.0  0.14733  0.13079  0.06001  1.0000 -0.0730028489
C   C50       1.0  0.66187  0.06001  0.13079  1.0000 -0.0730028489
C   C51       1.0  0.11921  0.10267  0.58813  1.0000 -0.0730028489
C   C52       1.0  0.18999  0.58813  0.10267  1.0000 -0.0730028489
C   C53       1.0  0.26358  0.03586  0.95314  1.0000 -0.040676883
C   C54       1.0  0.74742  0.95314  0.03586  1.0000 -0.040676883
C   C55       1.0  0.21414  0.98642  0.50258  1.0000 -0.040676883
C   C56       1.0  0.29686  0.50258  0.98642  1.0000 -0.040676883
C   C57       1.0  0.37844  0.90760  0.83980  1.0000 -0.0815210023
C   C58       1.0  0.87416  0.83980  0.90760  1.0000 -0.0815210023
C   C59       1.0  0.34240  0.87156  0.37584  1.0000 -0.0815210023
C   C60       1.0  0.41020  0.37584  0.87156  1.0000 -0.0815210023
C   C61       1.0  0.37045  0.87977  0.83723  1.0000 -0.2303771608
C   C62       1.0  0.91255  0.83723  0.87977  1.0000 -0.2303771608
C   C63       1.0  0.37023  0.87955  0.33745  1.0000 -0.2303771608
C   C64       1.0  0.41277  0.33745  0.87955  1.0000 -0.2303771608
C   C65       1.0  0.26695  0.07169  0.96551  1.0000 0.5781113845
C   C66       1.0  0.69585  0.96551  0.07169  1.0000 0.5781113845
C   C67       1.0  0.17831  0.98305  0.55415  1.0000 0.5781113845
C   C68       1.0  0.28449  0.55415  0.98305  1.0000 0.5781113845
C   C69       1.0  0.16743  0.95617  0.86443  1.0000 0.2391683327
C   C70       1.0  0.01197  0.86443  0.95617  1.0000 0.2391683327
C   C71       1.0  0.29383  0.08257  0.23803  1.0000 0.2391683327
C   C72       1.0  0.38557  0.23803  0.08257  1.0000 0.2391683327
C   C73       1.0  0.05984  0.06006  0.92814  1.0000 -0.2070220555
C   C74       1.0  0.95196  0.92814  0.06006  1.0000 -0.2070220555
C   C75       1.0  0.18994  0.19016  0.29804  1.0000 -0.2070220555
C   C76       1.0  0.32186  0.29804  0.19016  1.0000 -0.2070220555
C   C77       1.0  0.06624  0.04634  0.86886  1.0000 -0.0815210023
C   C78       1.0  0.01856  0.86886  0.04634  1.0000 -0.0815210023
C   C79       1.0  0.20366  0.18376  0.23144  1.0000 -0.0815210023
C   C80       1.0  0.38114  0.23144  0.18376  1.0000 -0.0815210023
C   C81       1.0  0.18584  0.92462  0.73778  1.0000 -0.0301100686
C   C82       1.0  0.15176  0.73778  0.92462  1.0000 -0.0301100686
C   C83       1.0  0.32538  0.06416  0.09824  1.0000 -0.0301100686
C   C84       1.0  0.51222  0.09824  0.06416  1.0000 -0.0301100686
C   C85       1.0  0.29642  0.81860  0.67040  1.0000 -0.1003904249
C   C86       1.0  0.21458  0.67040  0.81860  1.0000 -0.1003904249
C   C87       1.0  0.43140  0.95358  0.03542  1.0000 -0.1003904249
C   C88       1.0  0.57960  0.03542  0.95358  1.0000 -0.1003904249
C   C89       1.0  0.28311  0.83867  0.73793  1.0000 -0.2303771608
C   C90       1.0  0.14029  0.73793  0.83867  1.0000 -0.2303771608
C   C91       1.0  0.41133  0.96689  0.10971  1.0000 -0.2303771608
C   C92       1.0  0.51207  0.10971  0.96689  1.0000 -0.2303771608
C   C93       1.0  0.19910  0.90286  0.66514  1.0000 0.5524461386
C   C94       1.0  0.23290  0.66514  0.90286  1.0000 0.5524461386
C   C95       1.0  0.34714  0.05090  0.01710  1.0000 0.5524461386
C   C96       1.0  0.58486  0.01710  0.05090  1.0000 0.5524461386
C   C97       1.0  0.04613  0.99257  0.13203  1.0000 0.248203997
C   C98       1.0  0.82927  0.13203  0.99257  1.0000 0.248203997
C   C99       1.0  0.25743  0.20387  0.42073  1.0000 0.248203997
C   C100      1.0  0.11797  0.42073  0.20387  1.0000 0.248203997
C   C101      1.0  0.09775  0.91121  0.07099  1.0000 -0.2194482829
C   C102      1.0  0.92005  0.07099  0.91121  1.0000 -0.2194482829
C   C103      1.0  0.33879  0.15225  0.32995  1.0000 -0.2194482829
C   C104      1.0  0.17901  0.32995  0.15225  1.0000 -0.2194482829
C   C105      1.0  0.02194  0.95360  0.14640  1.0000 -0.0815210023
C   C106      1.0  0.87806  0.14640  0.95360  1.0000 -0.0815210023
C   C107      1.0  0.29640  0.22806  0.37194  1.0000 -0.0815210023
C   C108      1.0  0.10360  0.37194  0.22806  1.0000 -0.0815210023
C   C109      1.0  0.89940  0.07354  0.27626  1.0000 -0.040676883
C   C110      1.0  0.75080  0.27626  0.07354  1.0000 -0.040676883
C   C111      1.0  0.17646  0.35060  0.49920  1.0000 -0.040676883
C   C112      1.0  0.97374  0.49920  0.35060  1.0000 -0.040676883
C   C113      1.0  0.84794  0.15470  0.33750  1.0000 -0.1003904249
C   C114      1.0  0.65986  0.33750  0.15470  1.0000 -0.1003904249
C   C115      1.0  0.09530  0.40206  0.59014  1.0000 -0.1003904249
C   C116      1.0  0.91250  0.59014  0.40206  1.0000 -0.1003904249
C   C117      1.0  0.91961  0.11667  0.26713  1.0000 -0.2490575496
C   C118      1.0  0.69659  0.26713  0.11667  1.0000 -0.2490575496
C   C119      1.0  0.13333  0.33039  0.55341  1.0000 -0.2490575496
C   C120      1.0  0.98287  0.55341  0.33039  1.0000 -0.2490575496
C   C121      1.0  0.82086  0.11642  0.35618  1.0000 0.5619263989
C   C122      1.0  0.70654  0.35618  0.11642  1.0000 0.5619263989
C   C123      1.0  0.13358  0.42914  0.54346  1.0000 0.5619263989
C   C124      1.0  0.89382  0.54346  0.42914  1.0000 0.5619263989
C   C125      1.0  0.17479  0.05099  0.18861  1.0000 0.2077594069
C   C126      1.0  0.58561  0.18861  0.05099  1.0000 0.2077594069
C   C127      1.0  0.19901  0.07521  0.66439  1.0000 0.2077594069
C   C128      1.0  0.06139  0.66439  0.07521  1.0000 0.2077594069
C   C129      1.0  0.04595  0.17547  0.31413  1.0000 -0.2194482829
C   C130      1.0  0.46445  0.31413  0.17547  1.0000 -0.2194482829
C   C131      1.0  0.07453  0.20405  0.78555  1.0000 -0.2194482829
C   C132      1.0  0.93587  0.78555  0.20405  1.0000 -0.2194482829
C   C133      1.0  0.97508  0.27382  0.37958  1.0000 -0.0815210023
C   C134      1.0  0.37152  0.37958  0.27382  1.0000 -0.0730028489
C   C135      1.0  0.97618  0.27492  0.87848  1.0000 -0.0730028489
C   C136      1.0  0.87042  0.87848  0.27492  1.0000 -0.0730028489
C   C137      1.0  0.03547  0.24747  0.31213  1.0000 -0.0730028489
C   C138      1.0  0.40493  0.31213  0.24747  1.0000 -0.0730028489
C   C139      1.0  0.00253  0.21453  0.84507  1.0000 -0.0730028489
C   C140      1.0  0.93787  0.84507  0.21453  1.0000 -0.0730028489
C   C141      1.0  0.16779  0.11961  0.18319  1.0000 -0.0815210023
C   C142      1.0  0.52941  0.18319  0.11961  1.0000 -0.0815210023
C   C143      1.0  0.13039  0.08221  0.72059  1.0000 -0.0815210023
C   C144      1.0  0.06681  0.72059  0.08221  1.0000 -0.0815210023
C   C145      1.0  0.23620  0.02270  0.12310  1.0000 -0.2011900003
C   C146      1.0  0.61800  0.12310  0.02270  1.0000 -0.2011900003
C   C147      1.0  0.22730  0.01380  0.63200  1.0000 -0.2011900003
C   C148      1.0  0.12690  0.63200  0.01380  1.0000 -0.2011900003
C   C149      1.0  0.95820  0.35442  0.38058  1.0000 0.5524461386
C   C150      1.0  0.30680  0.38058  0.35442  1.0000 0.5524461386
C   C151      1.0  0.89558  0.29180  0.94320  1.0000 0.5524461386
C   C152      1.0  0.86942  0.94320  0.29180  1.0000 0.5524461386
C   C153      1.0  0.43417  0.71483  0.10217  1.0000 0.2391683327
C   C154      1.0  0.74883  0.10217  0.71483  1.0000 0.2391683327
C   C155      1.0  0.53517  0.81583  0.50117  1.0000 0.2391683327
C   C156      1.0  0.14783  0.50117  0.81583  1.0000 0.2391683327
C   C157      1.0  0.37511  0.77253  0.20727  1.0000 -0.2011900003
C   C158      1.0  0.64509  0.20727  0.77253  1.0000 -0.2011900003
C   C159      1.0  0.47747  0.87489  0.60491  1.0000 -0.2011900003
C   C160      1.0  0.04273  0.60491  0.87489  1.0000 -0.2011900003
C   C161      1.0  0.44904  0.69718  0.18582  1.0000 -0.0886898997
C   C162      1.0  0.66796  0.18582  0.69718  1.0000 -0.0886898997
C   C163      1.0  0.55282  0.80096  0.58204  1.0000 -0.0886898997
C   C164      1.0  0.06418  0.58204  0.80096  1.0000 -0.0886898997
C   C165      1.0  0.58031  0.56561  0.06439  1.0000 -0.0469602919
C   C166      1.0  0.78969  0.06439  0.56561  1.0000 -0.0469602919
C   C167      1.0  0.68439  0.66969  0.46031  1.0000 -0.0469602919
C   C168      1.0  0.18561  0.46031  0.66969  1.0000 -0.0469602919
C   C169      1.0  0.63939  0.50953  0.96067  1.0000 -0.0815210023
C   C170      1.0  0.89041  0.96067  0.50953  1.0000 -0.0815210023
C   C171      1.0  0.74047  0.61061  0.35959  1.0000 -0.0886898997
C   C172      1.0  0.28933  0.35959  0.61061  1.0000 -0.0815210023
C   C173      1.0  0.56306  0.58782  0.97998  1.0000 -0.2394169329
C   C174      1.0  0.86914  0.97998  0.58782  1.0000 -0.2394169329
C   C175      1.0  0.66218  0.68694  0.38086  1.0000 -0.2394169329
C   C176      1.0  0.27002  0.38086  0.68694  1.0000 -0.2394169329
C   C177      1.0  0.66436  0.47678  0.03802  1.0000 0.5889520091
C   C178      1.0  0.82084  0.03802  0.47678  1.0000 0.5889520091
C   C179      1.0  0.77322  0.58564  0.42916  1.0000 0.5889520091
C   C180      1.0  0.21198  0.42916  0.58564  1.0000 0.5889520091
C   C181      1.0  0.26738  0.77696  0.11444  1.0000 0.2251972151
C   C182      1.0  0.84122  0.11444  0.77696  1.0000 0.2251972151
C   C183      1.0  0.47304  0.98262  0.40878  1.0000 0.2251972151
C   C184      1.0  0.13556  0.40878  0.98262  1.0000 0.2251972151
C   C185      1.0  0.36755  0.65577  0.02863  1.0000 -0.2394169329
C   C186      1.0  0.94805  0.02863  0.65577  1.0000 -0.2394169329
C   C187      1.0  0.59423  0.88245  0.30195  1.0000 -0.2394169329
C   C188      1.0  0.22137  0.30195  0.88245  1.0000 -0.2394169329
C   C189      1.0  0.34450  0.64422  0.02818  1.0000 -0.1074392264
C   C190      1.0  0.98310  0.02818  0.64422  1.0000 -0.1074392264
C   C191      1.0  0.60578  0.90550  0.26690  1.0000 -0.1074392264
C   C192      1.0  0.22182  0.26690  0.90550  1.0000 -0.1074392264
C   C193      1.0  0.23155  0.74565  0.10355  1.0000 -0.040676883
C   C194      1.0  0.91925  0.10355  0.74565  1.0000 -0.040676883
C   C195      1.0  0.50435  0.01845  0.33075  1.0000 -0.040676883
C   C196      1.0  0.14645  0.33075  0.01845  1.0000 -0.040676883
C   C197      1.0  0.13636  0.86182  0.18838  1.0000 -0.0815210023
C   C198      1.0  0.81344  0.18838  0.86182  1.0000 -0.0815210023
C   C199      1.0  0.38818  0.11364  0.43656  1.0000 -0.0815210023
C   C200      1.0  0.06162  0.43656  0.11364  1.0000 -0.0815210023
C   C201      1.0  0.15710  0.87568  0.19092  1.0000 -0.2303771608
C   C202      1.0  0.77630  0.19092  0.87568  1.0000 -0.2303771608
C   C203      1.0  0.37432  0.09290  0.47370  1.0000 -0.2303771608
C   C204      1.0  0.05908  0.47370  0.09290  1.0000 -0.2303771608
C   C205      1.0  0.21891  0.72223  0.08657  1.0000 0.5729825836
C   C206      1.0  0.97229  0.08657  0.72223  1.0000 0.5729825836
C   C207      1.0  0.52777  0.03109  0.27771  1.0000 0.5729825836
C   C208      1.0  0.16343  0.27771  0.03109  1.0000 0.5729825836
C   C209      1.0  0.81337  0.58507  0.63733  1.0000 0.1191425794
C   C210      1.0  0.96423  0.63733  0.58507  1.0000 0.1191425794
C   C211      1.0  0.66493  0.43663  0.28577  1.0000 0.1191425794
C   C212      1.0  0.61267  0.28577  0.43663  1.0000 0.1191425794
C   C213      1.0  0.84048  0.50352  0.62288  1.0000 -0.040676883
C   C214      1.0  0.03312  0.62288  0.50352  1.0000 -0.040676883
C   C215      1.0  0.74648  0.40952  0.21688  1.0000 -0.040676883
C   C216      1.0  0.62712  0.21688  0.40952  1.0000 -0.040676883
C   C217      1.0  0.83524  0.51954  0.67786  1.0000 -0.1427003066
C   C218      1.0  0.96736  0.67786  0.51954  1.0000 -0.1427003066
C   C219      1.0  0.73046  0.41476  0.28264  1.0000 -0.1427003066
C   C220      1.0  0.57214  0.28264  0.41476  1.0000 -0.1427003066
C   C221      1.0  0.78408  0.62896  0.76204  1.0000 0.1406568643
C   C222      1.0  0.82492  0.76204  0.62896  1.0000 0.1406568643
C   C223      1.0  0.62104  0.46592  0.42508  1.0000 0.1406568643
C   C224      1.0  0.48796  0.42508  0.46592  1.0000 0.1406568643
C   C225      1.0  0.80582  0.59704  0.79436  1.0000 -0.2011900003
C   C226      1.0  0.80278  0.79436  0.59704  1.0000 -0.2011900003
C   C227      1.0  0.65296  0.44418  0.44722  1.0000 -0.2011900003
C   C228      1.0  0.45564  0.44722  0.44418  1.0000 -0.2011900003
C   C229      1.0  0.78064  0.64504  0.86096  1.0000 -0.1883162516
C   C230      1.0  0.71336  0.86096  0.64504  1.0000 -0.1883162516
C   C231      1.0  0.60496  0.46936  0.53664  1.0000 -0.1883162516
C   C232      1.0  0.38904  0.53664  0.46936  1.0000 -0.1883162516
C   C233      1.0  0.73557  0.72149  0.88991  1.0000 0.1406568643
C   C234      1.0  0.65303  0.88991  0.72149  1.0000 0.1406568643
C   C235      1.0  0.52851  0.51443  0.59697  1.0000 0.1406568643
C   C236      1.0  0.36009  0.59697  0.51443  1.0000 0.1406568643
C   C237      1.0  0.71310  0.75350  0.85830  1.0000 -0.1883162516
C   C238      1.0  0.67510  0.85830  0.75350  1.0000 -0.1883162516
C   C239      1.0  0.49650  0.53690  0.57490  1.0000 -0.1883162516
C   C240      1.0  0.39170  0.57490  0.53690  1.0000 -0.1883162516
C   C241      1.0  0.73856  0.70356  0.79264  1.0000 -0.18295831
C   C242      1.0  0.76524  0.79264  0.70356  1.0000 -0.18295831
C   C243      1.0  0.54644  0.51144  0.48476  1.0000 -0.18295831
C   C244      1.0  0.45736  0.48476  0.51144  1.0000 -0.18295831
C   C245      1.0  0.71888  0.79650  0.94590  1.0000 0.128826046
C   C246      1.0  0.53872  0.94590  0.79650  1.0000 0.128826046
C   C247      1.0  0.45350  0.53112  0.71128  1.0000 0.128826046
C   C248      1.0  0.30410  0.71128  0.53112  1.0000 0.128826046
C   C249      1.0  0.70847  0.76267  0.01153  1.0000 -0.1528528961
C   C250      1.0  0.51733  0.01153  0.76267  1.0000 -0.1528528961
C   C251      1.0  0.48733  0.54153  0.73267  1.0000 -0.1528528961
C   C252      1.0  0.23847  0.73267  0.54153  1.0000 -0.1528528961
C   C253      1.0  0.70265  0.79879  0.04461  1.0000 -0.0082058516
C   C254      1.0  0.45395  0.04461  0.79879  1.0000 -0.0082058516
C   C255      1.0  0.45121  0.54735  0.79605  1.0000 -0.0082058516
C   C256      1.0  0.20539  0.79605  0.54735  1.0000 -0.0082058516
N   N1        1.0  0.83002  0.54096  0.59184  1.0000 -0.3151596147
N   N2        1.0  0.03718  0.59184  0.54096  1.0000 -0.3151596147
N   N3        1.0  0.70904  0.41998  0.21282  1.0000 -0.3151596147
N   N4        1.0  0.65816  0.21282  0.41998  1.0000 -0.3140461105
N   N5        1.0  0.80828  0.58160  0.69660  1.0000 0.0021919305
N   N6        1.0  0.91352  0.69660  0.58160  1.0000 0.0021919305
N   N7        1.0  0.66840  0.44172  0.33648  1.0000 0.0021919305
N   N8        1.0  0.55340  0.33648  0.44172  1.0000 0.0021919305
N   N9        1.0  0.69946  0.82874  0.01146  1.0000 -0.2894765321
N   N10       1.0  0.46034  0.01146  0.82874  1.0000 -0.2894765321
N   N11       1.0  0.42126  0.55054  0.78966  1.0000 -0.2894765321
N   N12       1.0  0.23854  0.78966  0.55054  1.0000 -0.2894765321
N   N13       1.0  0.71779  0.76321  0.94799  1.0000 0.0021919305
N   N14       1.0  0.57101  0.94799  0.76321  1.0000 0.0021919305
N   N15       1.0  0.48679  0.53221  0.67899  1.0000 0.0021919305
N   N16       1.0  0.30201  0.67899  0.53221  1.0000 0.0021919305
O   O1        1.0  0.25211  0.87957  0.03243  1.0000 -0.2070220555
O   O2        1.0  0.83589  0.03243  0.87957  1.0000 -0.2070220555
O   O3        1.0  0.37043  0.99789  0.41411  1.0000 -0.2070220555
O   O4        1.0  0.21757  0.41411  0.99789  1.0000 -0.2070220555
O   O5        1.0  0.25998  0.93354  0.92586  1.0000 -0.18295831
O   O6        1.0  0.88062  0.92586  0.93354  1.0000 -0.18295831
O   O7        1.0  0.31646  0.99002  0.36938  1.0000 -0.18295831
O   O8        1.0  0.32414  0.36938  0.99002  1.0000 -0.18295831
O   O9        1.0  0.14506  0.98486  0.93834  1.0000 -0.18295831
O   O10       1.0  0.93174  0.93834  0.98486  1.0000 -0.18295831
O   O11       1.0  0.26514  0.10494  0.31826  1.0000 -0.18295831
O   O12       1.0  0.31166  0.31826  0.10494  1.0000 -0.18295831
O   O13       1.0  0.12969  0.94017  0.05003  1.0000 -0.2011900003
O   O14       1.0  0.88011  0.05003  0.94017  1.0000 -0.2011900003
O   O15       1.0  0.30983  0.12031  0.36989  1.0000 -0.2011900003
O   O16       1.0  0.19997  0.36989  0.12031  1.0000 -0.2011900003
O   O17       1.0  0.25318  0.94614  0.11706  1.0000 -0.1557348962
O   O18       1.0  0.68362  0.11706  0.94614  1.0000 -0.1557348962
O   O19       1.0  0.30386  0.99682  0.56638  1.0000 -0.1557348962
O   O20       1.0  0.13294  0.56638  0.99682  1.0000 -0.1557348962
O   O21       1.0  0.34623  0.80287  0.13853  1.0000 -0.2011900003
O   O22       1.0  0.71237  0.13853  0.80287  1.0000 -0.2011900003
O   O23       1.0  0.44713  0.90377  0.53763  1.0000 -0.2011900003
O   O24       1.0  0.11147  0.53763  0.90377  1.0000 -0.2011900003
O   O25       1.0  0.30467  0.77313  0.09987  1.0000 -0.18295831
O   O26       1.0  0.82233  0.09987  0.77313  1.0000 -0.18295831
O   O27       1.0  0.47687  0.94533  0.42767  1.0000 -0.18295831
O   O28       1.0  0.15013  0.42767  0.94533  1.0000 -0.18295831
O   O29       1.0  0.16140  0.18706  0.07014  1.0000 -0.5317683128
O   O30       1.0  0.58140  0.07014  0.18706  1.0000 -0.5317683128
O   O31       1.0  0.06294  0.08860  0.66860  1.0000 -0.5317683128
O   O32       1.0  0.17986  0.66860  0.08860  1.0000 -0.5317683128
O   O33       1.0  0.37818  0.97960  0.86560  1.0000 -0.5362195927
O   O34       1.0  0.77662  0.86560  0.97960  1.0000 -0.5362195927
O   O35       1.0  0.27040  0.87182  0.47338  1.0000 -0.5362195927
O   O36       1.0  0.38440  0.47338  0.87182  1.0000 -0.5362195927
O   O37       1.0  0.09885  0.99873  0.72567  1.0000 -0.5597756314
O   O38       1.0  0.17675  0.72567  0.99873  1.0000 -0.5597756314
O   O39       1.0  0.25127  0.15115  0.07325  1.0000 -0.5597756314
O   O40       1.0  0.52433  0.07325  0.15115  1.0000 -0.5597756314
O   O41       1.0  0.30743  0.79165  0.54935  1.0000 -0.4925871748
O   O42       1.0  0.35157  0.54935  0.79165  1.0000 -0.4925871748
O   O43       1.0  0.45835  0.94257  0.89843  1.0000 -0.4925871748
O   O44       1.0  0.70065  0.89843  0.94257  1.0000 -0.4925871748
O   O45       1.0  0.70111  0.23239  0.46961  1.0000 -0.5317683128
O   O46       1.0  0.59689  0.46961  0.23239  1.0000 -0.5317683128
O   O47       1.0  0.01761  0.54889  0.65311  1.0000 -0.5317683128
O   O48       1.0  0.78039  0.65311  0.54889  1.0000 -0.5317683128
O   O49       1.0  0.87835  0.03067  0.30259  1.0000 -0.5689403075
O   O50       1.0  0.78839  0.30259  0.03067  1.0000 -0.5689403075
O   O51       1.0  0.21933  0.37165  0.46161  1.0000 -0.5689403075
O   O52       1.0  0.94741  0.46161  0.37165  1.0000 -0.5689403075
O   O53       1.0  0.84281  0.46641  0.49799  1.0000 -0.484007116
O   O54       1.0  0.19279  0.49799  0.46641  1.0000 -0.484007116
O   O55       1.0  0.78359  0.40719  0.05721  1.0000 -0.484007116
O   O56       1.0  0.75201  0.05721  0.40719  1.0000 -0.484007116
O   O57       1.0  0.01499  0.32829  0.31451  1.0000 -0.5597756314
O   O58       1.0  0.34221  0.31451  0.32829  1.0000 -0.5597756314
O   O59       1.0  0.92171  0.23501  0.90779  1.0000 -0.5597756314
O   O60       1.0  0.93549  0.90779  0.23501  1.0000 -0.5597756314
O   O61       1.0  0.60311  0.53603  0.14017  1.0000 -0.5597756314
O   O62       1.0  0.72069  0.14017  0.53603  1.0000 -0.5597756314
O   O63       1.0  0.71397  0.64689  0.52931  1.0000 -0.5597756314
O   O64       1.0  0.10983  0.52931  0.64689  1.0000 -0.5597756314
O   O65       1.0  0.77951  0.36061  0.92779  1.0000 -0.5036500129
O   O66       1.0  0.93209  0.92779  0.36061  1.0000 -0.5036500129
O   O67       1.0  0.88939  0.47049  0.31791  1.0000 -0.5036500129
O   O68       1.0  0.32221  0.31791  0.47049  1.0000 -0.5036500129
O   O69       1.0  0.10427  0.82461  0.17919  1.0000 -0.5317683128
O   O70       1.0  0.89193  0.17919  0.82461  1.0000 -0.5317683128
O   O71       1.0  0.42539  0.14573  0.35807  1.0000 -0.5317683128
O   O72       1.0  0.07081  0.35807  0.14573  1.0000 -0.5317683128
O   O73       1.0  0.32097  0.60897  0.98463  1.0000 -0.5156819033
O   O74       1.0  0.08543  0.98463  0.60897  1.0000 -0.5156819033
O   O75       1.0  0.64103  0.92903  0.16457  1.0000 -0.5156819033
O   O76       1.0  0.26537  0.16457  0.92903  1.0000 -0.5156819033
