# DDEC6 charges by PACMAN v1.1 (https://github.com/mtap-research/PACMAN-charge/)
data_2013[Tb][nan]3[ASR]1
_chemical_formula_sum              "Tb2 H24 C24 N6 O18"
_cell_length_a       7.9418
_cell_length_b       12.087
_cell_length_c       13.358
_cell_angle_alpha    112.101
_cell_angle_beta     105.051
_cell_angle_gamma    91.197

_symmetry_space_group_name_H-M    "P 1"
_symmetry_Int_Tables_number       1

loop_
  _symmetry_equiv_pos_as_xyz
  'x, y, z'

loop_
  _atom_site_type_symbol
  _atom_site_label
  _atom_site_symmetry_multiplicity
  _atom_site_fract_x
  _atom_site_fract_y
  _atom_site_fract_z
  _atom_site_occupancy
  _atom_site_charge
Tb  Tb1       1.0  0.24936  0.98099  0.01070  1.0000 2.0711584822
Tb  Tb2       1.0  0.75064  0.01901  0.98930  1.0000 2.0711584822
H   H1        1.0  0.00540  0.61030  0.65750  1.0000 0.1035911837
H   H2        1.0  0.99460  0.38970  0.34250  1.0000 0.1035911837
H   H3        1.0  0.11670  0.60030  0.76890  1.0000 0.1076573371
H   H4        1.0  0.88330  0.39970  0.23110  1.0000 0.1076573371
H   H5        1.0  0.85240  0.59200  0.81920  1.0000 0.1432806314
H   H6        1.0  0.14760  0.40800  0.18080  1.0000 0.1432806314
H   H7        1.0  0.75430  0.61720  0.71380  1.0000 0.1485652264
H   H8        1.0  0.24570  0.38280  0.28620  1.0000 0.1485652264
H   H9        1.0  0.56850  0.27450  0.39880  1.0000 0.1076573371
H   H10       1.0  0.43150  0.72550  0.60120  1.0000 0.1076573371
H   H11       1.0  0.57630  0.15210  0.41380  1.0000 0.1076573371
H   H12       1.0  0.42370  0.84790  0.58620  1.0000 0.1076573371
H   H13       1.0  0.75690  0.22500  0.28940  1.0000 0.1432806314
H   H14       1.0  0.24310  0.77500  0.71060  1.0000 0.1432806314
H   H15       1.0  0.79110  0.10910  0.31410  1.0000 0.1485652264
H   H16       1.0  0.20890  0.89090  0.68590  1.0000 0.1485652264
H   H17       1.0  0.18950  0.22410  0.77750  1.0000 0.1076573371
H   H18       1.0  0.81050  0.77590  0.22250  1.0000 0.1076573371
H   H19       1.0  0.08520  0.10680  0.67560  1.0000 0.1154421926
H   H20       1.0  0.91480  0.89320  0.32440  1.0000 0.1154421926
H   H21       1.0  0.94450  0.24270  0.85280  1.0000 0.1485652264
H   H22       1.0  0.05550  0.75730  0.14720  1.0000 0.1485652264
H   H23       1.0  0.84930  0.12070  0.75370  1.0000 0.1550473408
H   H24       1.0  0.15070  0.87930  0.24630  1.0000 0.1550473408
C   C1        1.0  0.83820  0.39750  0.55570  1.0000 0.5312781171
C   C2        1.0  0.16180  0.60250  0.44430  1.0000 0.5312781171
C   C3        1.0  0.86350  0.19910  0.56560  1.0000 0.5312781171
C   C4        1.0  0.13650  0.80090  0.43440  1.0000 0.5312781171
C   C5        1.0  0.03220  0.38240  0.72260  1.0000 0.5312781171
C   C6        1.0  0.96780  0.61760  0.27740  1.0000 0.5312781171
C   C7        1.0  0.00170  0.57860  0.71380  1.0000 -0.035073984
C   C8        1.0  0.99830  0.42140  0.28620  1.0000 -0.0292478691
C   C9        1.0  0.86600  0.63290  0.77110  1.0000 -0.3454600537
C   C10       1.0  0.13400  0.36710  0.22890  1.0000 -0.3454600537
C   C11       1.0  0.90480  0.76620  0.84150  1.0000 0.6896377043
C   C12       1.0  0.09520  0.23380  0.15850  1.0000 0.6896377043
C   C13       1.0  0.64500  0.21510  0.40720  1.0000 -0.0292478691
C   C14       1.0  0.35500  0.78490  0.59280  1.0000 -0.0292478691
C   C15       1.0  0.70320  0.16120  0.30300  1.0000 -0.3413375779
C   C16       1.0  0.29680  0.83880  0.69700  1.0000 -0.3454600537
C   C17       1.0  0.55220  0.09040  0.20290  1.0000 0.667631431
C   C18       1.0  0.44780  0.90960  0.79710  1.0000 0.667631431
C   C19       1.0  0.07280  0.18430  0.72970  1.0000 -0.0292478691
C   C20       1.0  0.92720  0.81570  0.27030  1.0000 -0.0292478691
C   C21       1.0  0.96340  0.16510  0.80210  1.0000 -0.3413375779
C   C22       1.0  0.03660  0.83490  0.19790  1.0000 -0.3413375779
C   C23       1.0  0.05290  0.09720  0.86980  1.0000 0.6896377043
C   C24       1.0  0.94710  0.90280  0.13020  1.0000 0.6896377043
N   N1        1.0  0.95940  0.44700  0.65950  1.0000 -0.2392169474
N   N2        1.0  0.04060  0.55300  0.34050  1.0000 -0.2392169474
N   N3        1.0  0.98890  0.25810  0.66900  1.0000 -0.2464611991
N   N4        1.0  0.01110  0.74190  0.33100  1.0000 -0.2464611991
N   N5        1.0  0.78960  0.27290  0.51250  1.0000 -0.2392169474
N   N6        1.0  0.21040  0.72710  0.48750  1.0000 -0.2392169474
O   O1        1.0  0.77360  0.45680  0.50370  1.0000 -0.4723873152
O   O2        1.0  0.22640  0.54320  0.49630  1.0000 -0.4723873152
O   O3        1.0  0.13040  0.42950  0.81530  1.0000 -0.440126346
O   O4        1.0  0.86960  0.57050  0.18470  1.0000 -0.440126346
O   O5        1.0  0.82220  0.09170  0.52460  1.0000 -0.4592126473
O   O6        1.0  0.17780  0.90830  0.47540  1.0000 -0.4592126473
O   O7        1.0  0.78540  0.81630  0.87940  1.0000 -0.6439688667
O   O8        1.0  0.21460  0.18370  0.12060  1.0000 -0.6439688667
O   O9        1.0  0.05850  0.81530  0.85980  1.0000 -0.6872848435
O   O10       1.0  0.94150  0.18470  0.14020  1.0000 -0.6872848435
O   O11       1.0  0.96480  0.05260  0.91450  1.0000 -0.746475534
O   O12       1.0  0.03520  0.94740  0.08550  1.0000 -0.746475534
O   O13       1.0  0.21320  0.08490  0.88090  1.0000 -0.6044729515
O   O14       1.0  0.78680  0.91510  0.11910  1.0000 -0.6044729515
O   O15       1.0  0.55530  0.08600  0.10570  1.0000 -0.7662892504
O   O16       1.0  0.44470  0.91400  0.89430  1.0000 -0.7662892504
O   O17       1.0  0.42410  0.04120  0.21400  1.0000 -0.5829007192
O   O18       1.0  0.57590  0.95880  0.78600  1.0000 -0.5829007192
