# DDEC6 charges by PACMAN v1.1 (https://github.com/mtap-research/PACMAN-charge/)
data_2013[Zn][pcu]3[ASR]11
_chemical_formula_sum              "Zn16 H72 C120 S24 O52"
_cell_length_a       14.489
_cell_length_b       18.115
_cell_length_c       22.113
_cell_angle_alpha    90
_cell_angle_beta     90
_cell_angle_gamma    90

_symmetry_space_group_name_H-M    "P 1"
_symmetry_Int_Tables_number       1

loop_
  _symmetry_equiv_pos_as_xyz
  'x, y, z'

loop_
  _atom_site_type_symbol
  _atom_site_label
  _atom_site_symmetry_multiplicity
  _atom_site_fract_x
  _atom_site_fract_y
  _atom_site_fract_z
  _atom_site_occupancy
  _atom_site_charge
Zn  Zn1       1.0  0.00783  0.82999  0.74932  1.0000 0.9368911438
Zn  Zn2       1.0  0.99217  0.17001  0.24932  1.0000 0.9368911438
Zn  Zn3       1.0  0.84432  0.75283  0.67082  1.0000 0.9691529625
Zn  Zn4       1.0  0.15568  0.24717  0.17082  1.0000 0.9691529625
Zn  Zn5       1.0  0.85934  0.73710  0.81581  1.0000 0.9576379709
Zn  Zn6       1.0  0.14066  0.26290  0.31581  1.0000 0.9576379709
Zn  Zn7       1.0  0.00488  0.65543  0.72543  1.0000 0.9750685744
Zn  Zn8       1.0  0.99512  0.34457  0.22543  1.0000 0.9750685744
Zn  Zn9       1.0  0.50783  0.67001  0.24932  1.0000 0.9368911438
Zn  Zn10      1.0  0.49217  0.32999  0.74932  1.0000 0.9368911438
Zn  Zn11      1.0  0.34432  0.74717  0.17082  1.0000 0.9691529625
Zn  Zn12      1.0  0.65568  0.25283  0.67082  1.0000 0.9691529625
Zn  Zn13      1.0  0.35934  0.76290  0.31581  1.0000 0.9576379709
Zn  Zn14      1.0  0.64066  0.23710  0.81581  1.0000 0.9576379709
Zn  Zn15      1.0  0.50488  0.84457  0.22543  1.0000 0.9750685744
Zn  Zn16      1.0  0.49512  0.15543  0.72543  1.0000 0.9750685744
H   H1        1.0  0.37210  0.65160  0.65660  1.0000 0.0977836974
H   H2        1.0  0.62790  0.34840  0.15660  1.0000 0.0977836974
H   H3        1.0  0.28520  0.70190  0.64730  1.0000 0.131074703
H   H4        1.0  0.71480  0.29810  0.14730  1.0000 0.131074703
H   H5        1.0  0.27690  0.62840  0.68440  1.0000 0.131074703
H   H6        1.0  0.72310  0.37160  0.18440  1.0000 0.131074703
H   H7        1.0  0.91870  0.82120  0.52080  1.0000 0.1394654714
H   H8        1.0  0.08130  0.17880  0.02080  1.0000 0.1394654714
H   H9        1.0  0.97200  0.82800  0.45930  1.0000 0.119075582
H   H10       1.0  0.02800  0.17200  0.95930  1.0000 0.119075582
H   H11       1.0  0.88360  0.87590  0.47080  1.0000 0.131074703
H   H12       1.0  0.11640  0.12410  0.97080  1.0000 0.131074703
H   H13       1.0  0.96960  0.90610  0.38420  1.0000 0.119075582
H   H14       1.0  0.03040  0.09390  0.88420  1.0000 0.119075582
H   H15       1.0  0.04170  0.93910  0.33880  1.0000 0.1492790567
H   H16       1.0  0.95830  0.06090  0.83880  1.0000 0.1492790567
H   H17       1.0  0.94560  0.97750  0.34730  1.0000 0.1492790567
H   H18       1.0  0.05440  0.02250  0.84730  1.0000 0.1492790567
H   H19       1.0  0.17190  0.54540  0.53460  1.0000 0.0977836974
H   H20       1.0  0.82810  0.45460  0.03460  1.0000 0.0977836974
H   H21       1.0  0.12290  0.55940  0.59670  1.0000 0.1394654714
H   H22       1.0  0.87710  0.44060  0.09670  1.0000 0.1394654714
H   H23       1.0  0.15820  0.62630  0.55820  1.0000 0.1394654714
H   H24       1.0  0.84180  0.37370  0.05820  1.0000 0.1394654714
H   H25       1.0  0.47790  0.65490  0.66080  1.0000 0.0926579737
H   H26       1.0  0.52210  0.34510  0.16080  1.0000 0.0926579737
H   H27       1.0  0.57000  0.62270  0.68710  1.0000 0.131074703
H   H28       1.0  0.43000  0.37730  0.18710  1.0000 0.131074703
H   H29       1.0  0.57050  0.69850  0.65280  1.0000 0.131074703
H   H30       1.0  0.42950  0.30150  0.15280  1.0000 0.131074703
H   H31       1.0  0.19930  0.42540  0.43050  1.0000 0.1492790567
H   H32       1.0  0.80070  0.57460  0.93050  1.0000 0.1492790567
H   H33       1.0  0.18030  0.44490  0.49840  1.0000 0.131074703
H   H34       1.0  0.81970  0.55510  0.99840  1.0000 0.131074703
H   H35       1.0  0.21520  0.50610  0.45390  1.0000 0.1142452337
H   H36       1.0  0.78480  0.49390  0.95390  1.0000 0.1142452337
H   H37       1.0  0.87210  0.84840  0.15660  1.0000 0.0977836974
H   H38       1.0  0.12790  0.15160  0.65660  1.0000 0.0977836974
H   H39       1.0  0.78520  0.79810  0.14730  1.0000 0.131074703
H   H40       1.0  0.21480  0.20190  0.64730  1.0000 0.131074703
H   H41       1.0  0.77690  0.87160  0.18440  1.0000 0.131074703
H   H42       1.0  0.22310  0.12840  0.68440  1.0000 0.131074703
H   H43       1.0  0.41870  0.67880  0.02080  1.0000 0.1394654714
H   H44       1.0  0.58130  0.32120  0.52080  1.0000 0.1394654714
H   H45       1.0  0.47200  0.67200  0.95930  1.0000 0.119075582
H   H46       1.0  0.52800  0.32800  0.45930  1.0000 0.119075582
H   H47       1.0  0.38360  0.62410  0.97080  1.0000 0.131074703
H   H48       1.0  0.61640  0.37590  0.47080  1.0000 0.131074703
H   H49       1.0  0.46960  0.59390  0.88420  1.0000 0.119075582
H   H50       1.0  0.53040  0.40610  0.38420  1.0000 0.119075582
H   H51       1.0  0.54170  0.56090  0.83880  1.0000 0.1492790567
H   H52       1.0  0.45830  0.43910  0.33880  1.0000 0.1492790567
H   H53       1.0  0.44560  0.52250  0.84730  1.0000 0.1492790567
H   H54       1.0  0.55440  0.47750  0.34730  1.0000 0.1492790567
H   H55       1.0  0.67190  0.95460  0.03460  1.0000 0.0977836974
H   H56       1.0  0.32810  0.04540  0.53460  1.0000 0.0977836974
H   H57       1.0  0.62290  0.94060  0.09670  1.0000 0.1394654714
H   H58       1.0  0.37710  0.05940  0.59670  1.0000 0.1394654714
H   H59       1.0  0.65820  0.87370  0.05820  1.0000 0.1394654714
H   H60       1.0  0.34180  0.12630  0.55820  1.0000 0.1394654714
H   H61       1.0  0.97790  0.84510  0.16080  1.0000 0.0926579737
H   H62       1.0  0.02210  0.15490  0.66080  1.0000 0.0926579737
H   H63       1.0  0.07000  0.87730  0.18710  1.0000 0.131074703
H   H64       1.0  0.93000  0.12270  0.68710  1.0000 0.131074703
H   H65       1.0  0.07050  0.80150  0.15280  1.0000 0.131074703
H   H66       1.0  0.92950  0.19850  0.65280  1.0000 0.131074703
H   H67       1.0  0.69930  0.07460  0.93050  1.0000 0.1492790567
H   H68       1.0  0.30070  0.92540  0.43050  1.0000 0.1492790567
H   H69       1.0  0.68030  0.05510  0.99840  1.0000 0.131074703
H   H70       1.0  0.31970  0.94490  0.49840  1.0000 0.131074703
H   H71       1.0  0.71520  0.99390  0.95390  1.0000 0.1142452337
H   H72       1.0  0.28480  0.00610  0.45390  1.0000 0.1142452337
C   C1        1.0  0.16880  0.75430  0.75700  1.0000 0.6046139054
C   C2        1.0  0.83120  0.24570  0.25700  1.0000 0.6046139054
C   C3        1.0  0.27260  0.74750  0.76610  1.0000 -0.126133433
C   C4        1.0  0.72740  0.25250  0.26610  1.0000 -0.126133433
C   C5        1.0  0.33810  0.70840  0.72880  1.0000 0.131074703
C   C6        1.0  0.66190  0.29160  0.22880  1.0000 0.131074703
C   C7        1.0  0.31630  0.66940  0.67490  1.0000 -0.4131273277
C   C8        1.0  0.68370  0.33060  0.17490  1.0000 -0.4131273277
C   C9        1.0  0.98700  0.87780  0.63060  1.0000 0.5926101856
C   C10       1.0  0.01300  0.12220  0.13060  1.0000 0.5926101856
C   C11       1.0  0.01740  0.92160  0.57720  1.0000 -0.1456468053
C   C12       1.0  0.98260  0.07840  0.07720  1.0000 -0.1442715224
C   C13       1.0  0.99560  0.91400  0.51540  1.0000 0.1492790567
C   C14       1.0  0.00440  0.08600  0.01540  1.0000 0.1492790567
C   C15       1.0  0.03360  0.97300  0.47980  1.0000 -0.0548557438
C   C16       1.0  0.96640  0.02700  0.97980  1.0000 -0.0562443941
C   C17       1.0  0.08080  0.02310  0.51520  1.0000 -0.126133433
C   C18       1.0  0.91920  0.97690  0.01520  1.0000 -0.126133433
C   C19       1.0  0.03410  0.99840  0.41790  1.0000 0.1589696758
C   C20       1.0  0.96590  0.00160  0.91790  1.0000 0.1589696758
C   C21       1.0  0.07430  0.06430  0.41100  1.0000 -0.2246127076
C   C22       1.0  0.92570  0.93570  0.91100  1.0000 -0.2258453466
C   C23       1.0  0.93730  0.85450  0.48930  1.0000 -0.4293272865
C   C24       1.0  0.06270  0.14550  0.98930  1.0000 -0.4293272865
C   C25       1.0  0.99400  0.95090  0.36740  1.0000 -0.4192108161
C   C26       1.0  0.00600  0.04910  0.86740  1.0000 -0.4192108161
C   C27       1.0  0.94210  0.66460  0.59410  1.0000 0.6208870612
C   C28       1.0  0.05790  0.33540  0.09410  1.0000 0.6208870612
C   C29       1.0  0.96460  0.62040  0.53830  1.0000 -0.1662486814
C   C30       1.0  0.03540  0.37960  0.03830  1.0000 -0.1662486814
C   C31       1.0  0.04150  0.58160  0.52540  1.0000 0.1589696758
C   C32       1.0  0.95850  0.41840  0.02540  1.0000 0.1589696758
C   C33       1.0  0.13150  0.57790  0.55640  1.0000 -0.4293272865
C   C34       1.0  0.86850  0.42210  0.05640  1.0000 -0.4293272865
C   C35       1.0  0.68590  0.72280  0.76920  1.0000 0.5798876934
C   C36       1.0  0.31410  0.27720  0.26920  1.0000 0.5798876934
C   C37       1.0  0.58660  0.73000  0.77440  1.0000 -0.1637642145
C   C38       1.0  0.41340  0.27000  0.27440  1.0000 -0.1637642145
C   C39       1.0  0.51960  0.70410  0.73410  1.0000 0.119075582
C   C40       1.0  0.48040  0.29590  0.23410  1.0000 0.119075582
C   C41       1.0  0.42800  0.72230  0.75320  1.0000 -0.038633915
C   C42       1.0  0.57200  0.27770  0.25320  1.0000 -0.038633915
C   C43       1.0  0.43030  0.76290  0.80310  1.0000 -0.1163181716
C   C44       1.0  0.56970  0.23710  0.30310  1.0000 -0.1163181716
C   C45       1.0  0.53580  0.66710  0.67940  1.0000 -0.3845316864
C   C46       1.0  0.46420  0.33290  0.17940  1.0000 -0.3845316864
C   C47       1.0  0.03400  0.38640  0.35620  1.0000 0.5926101856
C   C48       1.0  0.96600  0.61360  0.85620  1.0000 0.5926101856
C   C49       1.0  0.01970  0.44940  0.39770  1.0000 -0.1924930237
C   C50       1.0  0.98030  0.55060  0.89770  1.0000 -0.1924930237
C   C51       1.0  0.07570  0.48260  0.44160  1.0000 0.1808098267
C   C52       1.0  0.92430  0.51740  0.94160  1.0000 0.1808098267
C   C53       1.0  0.02420  0.53770  0.47220  1.0000 -0.0974080119
C   C54       1.0  0.97580  0.46230  0.97220  1.0000 -0.0974080119
C   C55       1.0  0.93780  0.54650  0.44680  1.0000 -0.1163181716
C   C56       1.0  0.06220  0.45350  0.94680  1.0000 -0.1163181716
C   C57       1.0  0.17740  0.46290  0.45760  1.0000 -0.4293272865
C   C58       1.0  0.82260  0.53710  0.95760  1.0000 -0.4293272865
C   C59       1.0  0.07330  0.11630  0.36390  1.0000 0.5798876934
C   C60       1.0  0.92670  0.88370  0.86390  1.0000 0.5798876934
C   C61       1.0  0.66880  0.74570  0.25700  1.0000 0.6046139054
C   C62       1.0  0.33120  0.25430  0.75700  1.0000 0.6046139054
C   C63       1.0  0.77260  0.75250  0.26610  1.0000 -0.126133433
C   C64       1.0  0.22740  0.24750  0.76610  1.0000 -0.126133433
C   C65       1.0  0.83810  0.79160  0.22880  1.0000 0.131074703
C   C66       1.0  0.16190  0.20840  0.72880  1.0000 0.131074703
C   C67       1.0  0.81630  0.83060  0.17490  1.0000 -0.4131273277
C   C68       1.0  0.18370  0.16940  0.67490  1.0000 -0.4131273277
C   C69       1.0  0.48700  0.62220  0.13060  1.0000 0.5926101856
C   C70       1.0  0.51300  0.37780  0.63060  1.0000 0.5926101856
C   C71       1.0  0.51740  0.57840  0.07720  1.0000 -0.1442715224
C   C72       1.0  0.48260  0.42160  0.57720  1.0000 -0.1442715224
C   C73       1.0  0.49560  0.58600  0.01540  1.0000 0.1492790567
C   C74       1.0  0.50440  0.41400  0.51540  1.0000 0.1492790567
C   C75       1.0  0.53360  0.52700  0.97980  1.0000 -0.0548557438
C   C76       1.0  0.46640  0.47300  0.47980  1.0000 -0.0548557438
C   C77       1.0  0.58080  0.47690  0.01520  1.0000 -0.126133433
C   C78       1.0  0.41920  0.52310  0.51520  1.0000 -0.126133433
C   C79       1.0  0.53410  0.50160  0.91790  1.0000 0.1589696758
C   C80       1.0  0.46590  0.49840  0.41790  1.0000 0.1589696758
C   C81       1.0  0.57430  0.43570  0.91100  1.0000 -0.2258453466
C   C82       1.0  0.42570  0.56430  0.41100  1.0000 -0.2246127076
C   C83       1.0  0.43730  0.64550  0.98930  1.0000 -0.4293272865
C   C84       1.0  0.56270  0.35450  0.48930  1.0000 -0.4293272865
C   C85       1.0  0.49400  0.54910  0.86740  1.0000 -0.4192108161
C   C86       1.0  0.50600  0.45090  0.36740  1.0000 -0.4192108161
C   C87       1.0  0.44210  0.83540  0.09410  1.0000 0.6208870612
C   C88       1.0  0.55790  0.16460  0.59410  1.0000 0.6208870612
C   C89       1.0  0.46460  0.87960  0.03830  1.0000 -0.1662486814
C   C90       1.0  0.53540  0.12040  0.53830  1.0000 -0.1662486814
C   C91       1.0  0.54150  0.91840  0.02540  1.0000 0.1589696758
C   C92       1.0  0.45850  0.08160  0.52540  1.0000 0.1589696758
C   C93       1.0  0.63150  0.92210  0.05640  1.0000 -0.4293272865
C   C94       1.0  0.36850  0.07790  0.55640  1.0000 -0.4293272865
C   C95       1.0  0.18590  0.77720  0.26920  1.0000 0.5798876934
C   C96       1.0  0.81410  0.22280  0.76920  1.0000 0.5798876934
C   C97       1.0  0.08660  0.77000  0.27440  1.0000 -0.1637642145
C   C98       1.0  0.91340  0.23000  0.77440  1.0000 -0.1637642145
C   C99       1.0  0.01960  0.79590  0.23410  1.0000 0.119075582
C   C100      1.0  0.98040  0.20410  0.73410  1.0000 0.119075582
C   C101      1.0  0.92800  0.77770  0.25320  1.0000 -0.038633915
C   C102      1.0  0.07200  0.22230  0.75320  1.0000 -0.038633915
C   C103      1.0  0.93030  0.73710  0.30310  1.0000 -0.1163181716
C   C104      1.0  0.06970  0.26290  0.80310  1.0000 -0.1163181716
C   C105      1.0  0.03580  0.83290  0.17940  1.0000 -0.3845316864
C   C106      1.0  0.96420  0.16710  0.67940  1.0000 -0.3845316864
C   C107      1.0  0.53400  0.11360  0.85620  1.0000 0.5926101856
C   C108      1.0  0.46600  0.88640  0.35620  1.0000 0.5926101856
C   C109      1.0  0.51970  0.05060  0.89770  1.0000 -0.1924930237
C   C110      1.0  0.48030  0.94940  0.39770  1.0000 -0.1924930237
C   C111      1.0  0.57570  0.01740  0.94160  1.0000 0.1808098267
C   C112      1.0  0.42430  0.98260  0.44160  1.0000 0.1808098267
C   C113      1.0  0.52420  0.96230  0.97220  1.0000 -0.0974080119
C   C114      1.0  0.47580  0.03770  0.47220  1.0000 -0.0974080119
C   C115      1.0  0.43780  0.95350  0.94680  1.0000 -0.1135698281
C   C116      1.0  0.56220  0.04650  0.44680  1.0000 -0.1163181716
C   C117      1.0  0.67740  0.03710  0.95760  1.0000 -0.4293272865
C   C118      1.0  0.32260  0.96290  0.45760  1.0000 -0.4293272865
C   C119      1.0  0.57330  0.38370  0.86390  1.0000 0.5798876934
C   C120      1.0  0.42670  0.61630  0.36390  1.0000 0.5798876934
S   S1        1.0  0.32030  0.79390  0.82850  1.0000 0.0728298292
S   S2        1.0  0.67970  0.20610  0.32850  1.0000 0.0728298292
S   S3        1.0  0.08110  0.00100  0.59180  1.0000 0.0837223756
S   S4        1.0  0.91890  0.99900  0.09180  1.0000 0.0926579737
S   S5        1.0  0.11770  0.10060  0.47890  1.0000 0.1712872379
S   S6        1.0  0.88230  0.89940  0.97890  1.0000 0.1712872379
S   S7        1.0  0.87150  0.60820  0.48770  1.0000 0.119075582
S   S8        1.0  0.12850  0.39180  0.98770  1.0000 0.119075582
S   S9        1.0  0.53660  0.77790  0.83540  1.0000 0.131074703
S   S10       1.0  0.46340  0.22210  0.33540  1.0000 0.131074703
S   S11       1.0  0.91350  0.48880  0.38950  1.0000 0.1808098267
S   S12       1.0  0.08650  0.51120  0.88950  1.0000 0.1808098267
S   S13       1.0  0.82030  0.70610  0.32850  1.0000 0.0728298292
S   S14       1.0  0.17970  0.29390  0.82850  1.0000 0.0728298292
S   S15       1.0  0.58110  0.49900  0.09180  1.0000 0.0837223756
S   S16       1.0  0.41890  0.50100  0.59180  1.0000 0.0837223756
S   S17       1.0  0.61770  0.39940  0.97890  1.0000 0.1712872379
S   S18       1.0  0.38230  0.60060  0.47890  1.0000 0.1712872379
S   S19       1.0  0.37150  0.89180  0.98770  1.0000 0.119075582
S   S20       1.0  0.62850  0.10820  0.48770  1.0000 0.119075582
S   S21       1.0  0.03660  0.72210  0.33540  1.0000 0.131074703
S   S22       1.0  0.96340  0.27790  0.83540  1.0000 0.131074703
S   S23       1.0  0.41350  0.01120  0.88950  1.0000 0.1712872379
S   S24       1.0  0.58650  0.98880  0.38950  1.0000 0.1808098267
O   O1        1.0  0.92450  0.74750  0.74220  1.0000 -1.0154933877
O   O2        1.0  0.07550  0.25250  0.24220  1.0000 -1.0154933877
O   O3        1.0  0.13020  0.71120  0.72270  1.0000 -0.4877581295
O   O4        1.0  0.86980  0.28880  0.22270  1.0000 -0.4877581295
O   O5        1.0  0.13090  0.81020  0.78520  1.0000 -0.5615204967
O   O6        1.0  0.86910  0.18980  0.28520  1.0000 -0.5615204967
O   O7        1.0  0.02840  0.89030  0.67830  1.0000 -0.520294363
O   O8        1.0  0.97160  0.10970  0.17830  1.0000 -0.520294363
O   O9        1.0  0.92350  0.83650  0.62110  1.0000 -0.4877581295
O   O10       1.0  0.07650  0.16350  0.12110  1.0000 -0.4877581295
O   O11       1.0  0.86030  0.68920  0.60150  1.0000 -0.552283401
O   O12       1.0  0.13970  0.31080  0.10150  1.0000 -0.552283401
O   O13       1.0  0.00530  0.67260  0.63320  1.0000 -0.5411760456
O   O14       1.0  0.99470  0.32740  0.13320  1.0000 -0.5411760456
O   O15       1.0  0.72350  0.69940  0.72530  1.0000 -0.4877581295
O   O16       1.0  0.27650  0.30060  0.22530  1.0000 -0.4877581295
O   O17       1.0  0.72650  0.75050  0.81620  1.0000 -0.5411760456
O   O18       1.0  0.27350  0.24950  0.31620  1.0000 -0.5411760456
O   O19       1.0  0.11740  0.34940  0.36360  1.0000 -0.5615204967
O   O20       1.0  0.88260  0.65060  0.86360  1.0000 -0.5615204967
O   O21       1.0  0.97710  0.36740  0.31930  1.0000 -0.499057757
O   O22       1.0  0.02290  0.63260  0.81930  1.0000 -0.499057757
O   O23       1.0  0.03820  0.09710  0.31020  1.0000 -0.520294363
O   O24       1.0  0.96180  0.90290  0.81020  1.0000 -0.520294363
O   O25       1.0  0.10980  0.17770  0.37220  1.0000 -0.5106285907
O   O26       1.0  0.89020  0.82230  0.87220  1.0000 -0.5106285907
O   O27       1.0  0.42450  0.75250  0.24220  1.0000 -1.0154933877
O   O28       1.0  0.57550  0.24750  0.74220  1.0000 -1.0154933877
O   O29       1.0  0.63020  0.78880  0.22270  1.0000 -0.4877581295
O   O30       1.0  0.36980  0.21120  0.72270  1.0000 -0.4877581295
O   O31       1.0  0.63090  0.68980  0.28520  1.0000 -0.5615204967
O   O32       1.0  0.36910  0.31020  0.78520  1.0000 -0.5615204967
O   O33       1.0  0.52840  0.60970  0.17830  1.0000 -0.520294363
O   O34       1.0  0.47160  0.39030  0.67830  1.0000 -0.520294363
O   O35       1.0  0.42350  0.66350  0.12110  1.0000 -0.4877581295
O   O36       1.0  0.57650  0.33650  0.62110  1.0000 -0.4877581295
O   O37       1.0  0.36030  0.81080  0.10150  1.0000 -0.552283401
O   O38       1.0  0.63970  0.18920  0.60150  1.0000 -0.552283401
O   O39       1.0  0.50530  0.82740  0.13320  1.0000 -0.5411760456
O   O40       1.0  0.49470  0.17260  0.63320  1.0000 -0.5411760456
O   O41       1.0  0.22350  0.80060  0.22530  1.0000 -0.4877581295
O   O42       1.0  0.77650  0.19940  0.72530  1.0000 -0.4877581295
O   O43       1.0  0.22650  0.74950  0.31620  1.0000 -0.5411760456
O   O44       1.0  0.77350  0.25050  0.81620  1.0000 -0.5411760456
O   O45       1.0  0.61740  0.15060  0.86360  1.0000 -0.5615204967
O   O46       1.0  0.38260  0.84940  0.36360  1.0000 -0.5615204967
O   O47       1.0  0.47710  0.13260  0.81930  1.0000 -0.499057757
O   O48       1.0  0.52290  0.86740  0.31930  1.0000 -0.499057757
O   O49       1.0  0.53820  0.40290  0.81020  1.0000 -0.520294363
O   O50       1.0  0.46180  0.59710  0.31020  1.0000 -0.520294363
O   O51       1.0  0.60980  0.32230  0.87220  1.0000 -0.5106285907
O   O52       1.0  0.39020  0.67770  0.37220  1.0000 -0.5106285907
