# DDEC6 charges by PACMAN v1.1 (https://github.com/mtap-research/PACMAN-charge/)
data_2013[Zn][crb]3[ASR]5
_chemical_formula_sum              "Zn8 H96 C144 N16 O24"
_cell_length_a       26.713
_cell_length_b       26.713
_cell_length_c       5.0883
_cell_angle_alpha    90
_cell_angle_beta     90
_cell_angle_gamma    90

_symmetry_space_group_name_H-M    "P 1"
_symmetry_Int_Tables_number       1

loop_
  _symmetry_equiv_pos_as_xyz
  'x, y, z'

loop_
  _atom_site_type_symbol
  _atom_site_label
  _atom_site_symmetry_multiplicity
  _atom_site_fract_x
  _atom_site_fract_y
  _atom_site_fract_z
  _atom_site_occupancy
  _atom_site_charge
Zn  Zn1       1.0  0.78670  0.77091  0.30051  1.0000 0.8881336291
Zn  Zn2       1.0  0.28670  0.27091  0.80051  1.0000 0.8881336291
Zn  Zn3       1.0  0.21330  0.22909  0.30051  1.0000 0.8881336291
Zn  Zn4       1.0  0.71330  0.72909  0.80051  1.0000 0.8881336291
Zn  Zn5       1.0  0.77091  0.21330  0.69949  1.0000 0.8881336291
Zn  Zn6       1.0  0.27091  0.71330  0.19949  1.0000 0.8881336291
Zn  Zn7       1.0  0.22909  0.78670  0.69949  1.0000 0.8881336291
Zn  Zn8       1.0  0.72909  0.28670  0.19949  1.0000 0.8881336291
H   H1        1.0  0.89290  0.79230  0.05780  1.0000 0.1299703856
H   H2        1.0  0.82030  0.68800  0.71440  1.0000 0.1497684409
H   H3        1.0  0.82830  0.62220  0.06150  1.0000 0.1299703856
H   H4        1.0  0.87650  0.56330  0.28140  1.0000 0.1102320368
H   H5        1.0  0.96200  0.55340  0.17610  1.0000 0.1102320368
H   H6        1.0  0.99840  0.59930  0.84680  1.0000 0.1211598468
H   H7        1.0  0.99390  0.66840  0.52080  1.0000 0.1397907286
H   H8        1.0  0.96150  0.77810  0.78330  1.0000 0.1211598468
H   H9        1.0  0.03940  0.79990  0.60200  1.0000 0.0916078984
H   H10       1.0  0.10700  0.76350  0.28650  1.0000 0.1397907286
H   H11       1.0  0.02970  0.74430  0.47300  1.0000 0.1102320368
H   H12       1.0  0.25618  0.18907  0.62380  1.0000 0.3666755249
H   H13       1.0  0.39290  0.29230  0.55780  1.0000 0.1299703856
H   H14       1.0  0.32030  0.18800  0.21440  1.0000 0.1497684409
H   H15       1.0  0.32830  0.12220  0.56150  1.0000 0.1299703856
H   H16       1.0  0.37650  0.06330  0.78140  1.0000 0.1102320368
H   H17       1.0  0.46200  0.05340  0.67610  1.0000 0.1102320368
H   H18       1.0  0.49840  0.09930  0.34680  1.0000 0.1211598468
H   H19       1.0  0.49390  0.16840  0.02080  1.0000 0.1397907286
H   H20       1.0  0.46150  0.27810  0.28330  1.0000 0.1211598468
H   H21       1.0  0.53940  0.29990  0.10200  1.0000 0.0916078984
H   H22       1.0  0.60700  0.26350  0.78650  1.0000 0.1397907286
H   H23       1.0  0.52970  0.24430  0.97300  1.0000 0.1102320368
H   H24       1.0  0.75618  0.68907  0.12380  1.0000 0.3666755249
H   H25       1.0  0.10710  0.20770  0.05780  1.0000 0.1299703856
H   H26       1.0  0.17970  0.31200  0.71440  1.0000 0.1497684409
H   H27       1.0  0.17170  0.37780  0.06150  1.0000 0.1299703856
H   H28       1.0  0.12350  0.43670  0.28140  1.0000 0.1102320368
H   H29       1.0  0.03800  0.44660  0.17610  1.0000 0.1102320368
H   H30       1.0  0.00160  0.40070  0.84680  1.0000 0.1211598468
H   H31       1.0  0.00610  0.33160  0.52080  1.0000 0.1397907286
H   H32       1.0  0.03850  0.22190  0.78330  1.0000 0.1211598468
H   H33       1.0  0.96060  0.20010  0.60200  1.0000 0.0916078984
H   H34       1.0  0.89300  0.23650  0.28650  1.0000 0.1397907286
H   H35       1.0  0.97030  0.25570  0.47300  1.0000 0.1102320368
H   H36       1.0  0.74382  0.81093  0.62380  1.0000 0.3666755249
H   H37       1.0  0.60710  0.70770  0.55780  1.0000 0.1299703856
H   H38       1.0  0.67970  0.81200  0.21440  1.0000 0.1497684409
H   H39       1.0  0.67170  0.87780  0.56150  1.0000 0.1299703856
H   H40       1.0  0.62350  0.93670  0.78140  1.0000 0.1102320368
H   H41       1.0  0.53800  0.94660  0.67610  1.0000 0.1102320368
H   H42       1.0  0.50160  0.90070  0.34680  1.0000 0.1211598468
H   H43       1.0  0.50610  0.83160  0.02080  1.0000 0.1397907286
H   H44       1.0  0.53850  0.72190  0.28330  1.0000 0.1211598468
H   H45       1.0  0.46060  0.70010  0.10200  1.0000 0.0916078984
H   H46       1.0  0.39300  0.73650  0.78650  1.0000 0.1397907286
H   H47       1.0  0.47030  0.75570  0.97300  1.0000 0.1102320368
H   H48       1.0  0.24382  0.31093  0.12380  1.0000 0.3666755249
H   H49       1.0  0.79230  0.10710  0.94220  1.0000 0.1299703856
H   H50       1.0  0.68800  0.17970  0.28560  1.0000 0.1497684409
H   H51       1.0  0.62220  0.17170  0.93850  1.0000 0.1299703856
H   H52       1.0  0.56330  0.12350  0.71860  1.0000 0.1102320368
H   H53       1.0  0.55340  0.03800  0.82390  1.0000 0.1102320368
H   H54       1.0  0.59930  0.00160  0.15320  1.0000 0.1211598468
H   H55       1.0  0.66840  0.00610  0.47920  1.0000 0.1397907286
H   H56       1.0  0.77810  0.03850  0.21670  1.0000 0.1211598468
H   H57       1.0  0.79990  0.96060  0.39800  1.0000 0.0916078984
H   H58       1.0  0.76350  0.89300  0.71350  1.0000 0.1397907286
H   H59       1.0  0.74430  0.97030  0.52700  1.0000 0.1102320368
H   H60       1.0  0.18907  0.74382  0.37620  1.0000 0.3666755249
H   H61       1.0  0.29230  0.60710  0.44220  1.0000 0.1299703856
H   H62       1.0  0.18800  0.67970  0.78560  1.0000 0.1497684409
H   H63       1.0  0.12220  0.67170  0.43850  1.0000 0.1299703856
H   H64       1.0  0.06330  0.62350  0.21860  1.0000 0.1102320368
H   H65       1.0  0.05340  0.53800  0.32390  1.0000 0.1102320368
H   H66       1.0  0.09930  0.50160  0.65320  1.0000 0.1211598468
H   H67       1.0  0.16840  0.50610  0.97920  1.0000 0.1397907286
H   H68       1.0  0.27810  0.53850  0.71670  1.0000 0.1211598468
H   H69       1.0  0.29990  0.46060  0.89800  1.0000 0.0916078984
H   H70       1.0  0.26350  0.39300  0.21350  1.0000 0.1397907286
H   H71       1.0  0.24430  0.47030  0.02700  1.0000 0.1102320368
H   H72       1.0  0.68907  0.24382  0.87620  1.0000 0.3666755249
H   H73       1.0  0.20770  0.89290  0.94220  1.0000 0.1299703856
H   H74       1.0  0.31200  0.82030  0.28560  1.0000 0.1497684409
H   H75       1.0  0.37780  0.82830  0.93850  1.0000 0.1299703856
H   H76       1.0  0.43670  0.87650  0.71860  1.0000 0.1102320368
H   H77       1.0  0.44660  0.96200  0.82390  1.0000 0.1102320368
H   H78       1.0  0.40070  0.99840  0.15320  1.0000 0.1211598468
H   H79       1.0  0.33160  0.99390  0.47920  1.0000 0.1397907286
H   H80       1.0  0.22190  0.96150  0.21670  1.0000 0.1211598468
H   H81       1.0  0.20010  0.03940  0.39800  1.0000 0.0916078984
H   H82       1.0  0.23650  0.10700  0.71350  1.0000 0.1397907286
H   H83       1.0  0.25570  0.02970  0.52700  1.0000 0.1102320368
H   H84       1.0  0.81093  0.25618  0.37620  1.0000 0.3666755249
H   H85       1.0  0.70770  0.39290  0.44220  1.0000 0.1299703856
H   H86       1.0  0.81200  0.32030  0.78560  1.0000 0.1497684409
H   H87       1.0  0.87780  0.32830  0.43850  1.0000 0.1299703856
H   H88       1.0  0.93670  0.37650  0.21860  1.0000 0.1102320368
H   H89       1.0  0.94660  0.46200  0.32390  1.0000 0.1102320368
H   H90       1.0  0.90070  0.49840  0.65320  1.0000 0.1211598468
H   H91       1.0  0.83160  0.49390  0.97920  1.0000 0.1397907286
H   H92       1.0  0.72190  0.46150  0.71670  1.0000 0.1211598468
H   H93       1.0  0.70010  0.53940  0.89800  1.0000 0.0916078984
H   H94       1.0  0.73650  0.60700  0.21350  1.0000 0.1397907286
H   H95       1.0  0.75570  0.52970  0.02700  1.0000 0.1102320368
H   H96       1.0  0.31093  0.75618  0.87620  1.0000 0.3666755249
C   C1        1.0  0.89617  0.76647  0.18500  1.0000 0.1397907286
C   C2        1.0  0.87799  0.71156  0.48970  1.0000 0.1397907286
C   C3        1.0  0.85486  0.68367  0.67640  1.0000 -0.2083719383
C   C4        1.0  0.88384  0.64804  0.81170  1.0000 0.0815706811
C   C5        1.0  0.86257  0.61804  0.01600  1.0000 -0.1492185323
C   C6        1.0  0.89110  0.58330  0.14740  1.0000 -0.1010976207
C   C7        1.0  0.94252  0.57723  0.08280  1.0000 -0.1010976207
C   C8        1.0  0.96429  0.60483  0.89060  1.0000 -0.1579253982
C   C9        1.0  0.93627  0.64228  0.75320  1.0000 0.0916078984
C   C10       1.0  0.95941  0.67207  0.56150  1.0000 -0.2300727713
C   C11       1.0  0.93002  0.70694  0.43450  1.0000 0.0960536552
C   C12       1.0  0.98811  0.75749  0.13760  1.0000 0.1808456619
C   C13       1.0  0.08022  0.78528  0.93910  1.0000 -0.0293959248
C   C14       1.0  0.12966  0.80023  0.82150  1.0000 0.5653484304
C   C15       1.0  0.99100  0.77510  0.88590  1.0000 -0.2159429203
C   C16       1.0  0.03700  0.78860  0.77870  1.0000 -0.0917393762
C   C17       1.0  0.07730  0.76740  0.18600  1.0000 -0.0663343511
C   C18       1.0  0.03180  0.75470  0.29500  1.0000 -0.1997743948
C   C19       1.0  0.39617  0.26647  0.68500  1.0000 0.1397907286
C   C20       1.0  0.37799  0.21156  0.98970  1.0000 0.1397907286
C   C21       1.0  0.35486  0.18367  0.17640  1.0000 -0.2083719383
C   C22       1.0  0.38384  0.14804  0.31170  1.0000 0.0815706811
C   C23       1.0  0.36257  0.11804  0.51600  1.0000 -0.1492185323
C   C24       1.0  0.39110  0.08330  0.64740  1.0000 -0.1010976207
C   C25       1.0  0.44252  0.07723  0.58280  1.0000 -0.1010976207
C   C26       1.0  0.46429  0.10483  0.39060  1.0000 -0.1579253982
C   C27       1.0  0.43627  0.14228  0.25320  1.0000 0.0916078984
C   C28       1.0  0.45941  0.17207  0.06150  1.0000 -0.2300727713
C   C29       1.0  0.43002  0.20694  0.93450  1.0000 0.0960536552
C   C30       1.0  0.48811  0.25749  0.63760  1.0000 0.1808456619
C   C31       1.0  0.58022  0.28528  0.43910  1.0000 -0.0293959248
C   C32       1.0  0.62966  0.30023  0.32150  1.0000 0.5653484304
C   C33       1.0  0.49100  0.27510  0.38590  1.0000 -0.2159429203
C   C34       1.0  0.53700  0.28860  0.27870  1.0000 -0.0917393762
C   C35       1.0  0.57730  0.26740  0.68600  1.0000 -0.0663343511
C   C36       1.0  0.53180  0.25470  0.79500  1.0000 -0.1997743948
C   C37       1.0  0.10383  0.23353  0.18500  1.0000 0.1397907286
C   C38       1.0  0.12201  0.28844  0.48970  1.0000 0.1397907286
C   C39       1.0  0.14514  0.31633  0.67640  1.0000 -0.2083719383
C   C40       1.0  0.11616  0.35196  0.81170  1.0000 0.0815706811
C   C41       1.0  0.13743  0.38196  0.01600  1.0000 -0.1492185323
C   C42       1.0  0.10890  0.41670  0.14740  1.0000 -0.1010976207
C   C43       1.0  0.05748  0.42277  0.08280  1.0000 -0.1010976207
C   C44       1.0  0.03571  0.39517  0.89060  1.0000 -0.1579253982
C   C45       1.0  0.06373  0.35772  0.75320  1.0000 0.0916078984
C   C46       1.0  0.04059  0.32793  0.56150  1.0000 -0.2300727713
C   C47       1.0  0.06998  0.29306  0.43450  1.0000 0.0960536552
C   C48       1.0  0.01189  0.24251  0.13760  1.0000 0.1808456619
C   C49       1.0  0.91978  0.21472  0.93910  1.0000 -0.0293959248
C   C50       1.0  0.87034  0.19977  0.82150  1.0000 0.5653484304
C   C51       1.0  0.00900  0.22490  0.88590  1.0000 -0.2159429203
C   C52       1.0  0.96300  0.21140  0.77870  1.0000 -0.0917393762
C   C53       1.0  0.92270  0.23260  0.18600  1.0000 -0.0663343511
C   C54       1.0  0.96820  0.24530  0.29500  1.0000 -0.1997743948
C   C55       1.0  0.60383  0.73353  0.68500  1.0000 0.1397907286
C   C56       1.0  0.62201  0.78844  0.98970  1.0000 0.1397907286
C   C57       1.0  0.64514  0.81633  0.17640  1.0000 -0.2083719383
C   C58       1.0  0.61616  0.85196  0.31170  1.0000 0.0815706811
C   C59       1.0  0.63743  0.88196  0.51600  1.0000 -0.1492185323
C   C60       1.0  0.60890  0.91670  0.64740  1.0000 -0.1010976207
C   C61       1.0  0.55748  0.92277  0.58280  1.0000 -0.1010976207
C   C62       1.0  0.53571  0.89517  0.39060  1.0000 -0.1579253982
C   C63       1.0  0.56373  0.85772  0.25320  1.0000 0.0916078984
C   C64       1.0  0.54059  0.82793  0.06150  1.0000 -0.2300727713
C   C65       1.0  0.56998  0.79306  0.93450  1.0000 0.0960536552
C   C66       1.0  0.51189  0.74251  0.63760  1.0000 0.1808456619
C   C67       1.0  0.41978  0.71472  0.43910  1.0000 -0.0293959248
C   C68       1.0  0.37034  0.69977  0.32150  1.0000 0.5653484304
C   C69       1.0  0.50900  0.72490  0.38590  1.0000 -0.2159429203
C   C70       1.0  0.46300  0.71140  0.27870  1.0000 -0.0917393762
C   C71       1.0  0.42270  0.73260  0.68600  1.0000 -0.0663343511
C   C72       1.0  0.46820  0.74530  0.79500  1.0000 -0.1997743948
C   C73       1.0  0.76647  0.10383  0.81500  1.0000 0.1397907286
C   C74       1.0  0.71156  0.12201  0.51030  1.0000 0.1397907286
C   C75       1.0  0.68367  0.14514  0.32360  1.0000 -0.2083719383
C   C76       1.0  0.64804  0.11616  0.18830  1.0000 0.0815706811
C   C77       1.0  0.61804  0.13743  0.98400  1.0000 -0.1492185323
C   C78       1.0  0.58330  0.10890  0.85260  1.0000 -0.1010976207
C   C79       1.0  0.57723  0.05748  0.91720  1.0000 -0.1010976207
C   C80       1.0  0.60483  0.03571  0.10940  1.0000 -0.1579253982
C   C81       1.0  0.64228  0.06373  0.24680  1.0000 0.0916078984
C   C82       1.0  0.67207  0.04059  0.43850  1.0000 -0.2300727713
C   C83       1.0  0.70694  0.06998  0.56550  1.0000 0.0960536552
C   C84       1.0  0.75749  0.01189  0.86240  1.0000 0.1808456619
C   C85       1.0  0.78528  0.91978  0.06090  1.0000 -0.0293959248
C   C86       1.0  0.80023  0.87034  0.17850  1.0000 0.5653484304
C   C87       1.0  0.77510  0.00900  0.11410  1.0000 -0.2159429203
C   C88       1.0  0.78860  0.96300  0.22130  1.0000 -0.0917393762
C   C89       1.0  0.76740  0.92270  0.81400  1.0000 -0.0663343511
C   C90       1.0  0.75470  0.96820  0.70500  1.0000 -0.1997743948
C   C91       1.0  0.26647  0.60383  0.31500  1.0000 0.1397907286
C   C92       1.0  0.21156  0.62201  0.01030  1.0000 0.1397907286
C   C93       1.0  0.18367  0.64514  0.82360  1.0000 -0.2083719383
C   C94       1.0  0.14804  0.61616  0.68830  1.0000 0.0815706811
C   C95       1.0  0.11804  0.63743  0.48400  1.0000 -0.1492185323
C   C96       1.0  0.08330  0.60890  0.35260  1.0000 -0.1010976207
C   C97       1.0  0.07723  0.55748  0.41720  1.0000 -0.1010976207
C   C98       1.0  0.10483  0.53571  0.60940  1.0000 -0.1579253982
C   C99       1.0  0.14228  0.56373  0.74680  1.0000 0.0916078984
C   C100      1.0  0.17207  0.54059  0.93850  1.0000 -0.2300727713
C   C101      1.0  0.20694  0.56998  0.06550  1.0000 0.0960536552
C   C102      1.0  0.25749  0.51189  0.36240  1.0000 0.1808456619
C   C103      1.0  0.28528  0.41978  0.56090  1.0000 -0.0293959248
C   C104      1.0  0.30023  0.37034  0.67850  1.0000 0.5653484304
C   C105      1.0  0.27510  0.50900  0.61410  1.0000 -0.2159429203
C   C106      1.0  0.28860  0.46300  0.72130  1.0000 -0.0917393762
C   C107      1.0  0.26740  0.42270  0.31400  1.0000 -0.0663343511
C   C108      1.0  0.25470  0.46820  0.20500  1.0000 -0.1997743948
C   C109      1.0  0.23353  0.89617  0.81500  1.0000 0.1397907286
C   C110      1.0  0.28844  0.87799  0.51030  1.0000 0.1397907286
C   C111      1.0  0.31633  0.85486  0.32360  1.0000 -0.2083719383
C   C112      1.0  0.35196  0.88384  0.18830  1.0000 0.0815706811
C   C113      1.0  0.38196  0.86257  0.98400  1.0000 -0.1492185323
C   C114      1.0  0.41670  0.89110  0.85260  1.0000 -0.1010976207
C   C115      1.0  0.42277  0.94252  0.91720  1.0000 -0.1010976207
C   C116      1.0  0.39517  0.96429  0.10940  1.0000 -0.1579253982
C   C117      1.0  0.35772  0.93627  0.24680  1.0000 0.0916078984
C   C118      1.0  0.32793  0.95941  0.43850  1.0000 -0.2300727713
C   C119      1.0  0.29306  0.93002  0.56550  1.0000 0.0960536552
C   C120      1.0  0.24251  0.98811  0.86240  1.0000 0.1808456619
C   C121      1.0  0.21472  0.08022  0.06090  1.0000 -0.0293959248
C   C122      1.0  0.19977  0.12966  0.17850  1.0000 0.5653484304
C   C123      1.0  0.22490  0.99100  0.11410  1.0000 -0.2159429203
C   C124      1.0  0.21140  0.03700  0.22130  1.0000 -0.0917393762
C   C125      1.0  0.23260  0.07730  0.81400  1.0000 -0.0663343511
C   C126      1.0  0.24530  0.03180  0.70500  1.0000 -0.1997743948
C   C127      1.0  0.73353  0.39617  0.31500  1.0000 0.1397907286
C   C128      1.0  0.78844  0.37799  0.01030  1.0000 0.1397907286
C   C129      1.0  0.81633  0.35486  0.82360  1.0000 -0.2083719383
C   C130      1.0  0.85196  0.38384  0.68830  1.0000 0.0815706811
C   C131      1.0  0.88196  0.36257  0.48400  1.0000 -0.1492185323
C   C132      1.0  0.91670  0.39110  0.35260  1.0000 -0.1010976207
C   C133      1.0  0.92277  0.44252  0.41720  1.0000 -0.1010976207
C   C134      1.0  0.89517  0.46429  0.60940  1.0000 -0.1579253982
C   C135      1.0  0.85772  0.43627  0.74680  1.0000 0.0916078984
C   C136      1.0  0.82793  0.45941  0.93850  1.0000 -0.2300727713
C   C137      1.0  0.79306  0.43002  0.06550  1.0000 0.0960536552
C   C138      1.0  0.74251  0.48811  0.36240  1.0000 0.1808456619
C   C139      1.0  0.71472  0.58022  0.56090  1.0000 -0.0293959248
C   C140      1.0  0.69977  0.62966  0.67850  1.0000 0.5653484304
C   C141      1.0  0.72490  0.49100  0.61410  1.0000 -0.2159429203
C   C142      1.0  0.71140  0.53700  0.72130  1.0000 -0.0917393762
C   C143      1.0  0.73260  0.57730  0.31400  1.0000 -0.0663343511
C   C144      1.0  0.74530  0.53180  0.20500  1.0000 -0.1997743948
N   N1        1.0  0.85844  0.74912  0.32460  1.0000 -0.3538056771
N   N2        1.0  0.94012  0.74350  0.24230  1.0000 -0.0485444149
N   N3        1.0  0.35844  0.24912  0.82460  1.0000 -0.3538056771
N   N4        1.0  0.44012  0.24350  0.74230  1.0000 -0.0485444149
N   N5        1.0  0.14156  0.25088  0.32460  1.0000 -0.3538056771
N   N6        1.0  0.05988  0.25650  0.24230  1.0000 -0.0485444149
N   N7        1.0  0.64156  0.75088  0.82460  1.0000 -0.3538056771
N   N8        1.0  0.55988  0.75650  0.74230  1.0000 -0.0485444149
N   N9        1.0  0.74912  0.14156  0.67540  1.0000 -0.3538056771
N   N10       1.0  0.74350  0.05988  0.75770  1.0000 -0.0485444149
N   N11       1.0  0.24912  0.64156  0.17540  1.0000 -0.3538056771
N   N12       1.0  0.24350  0.55988  0.25770  1.0000 -0.0485444149
N   N13       1.0  0.25088  0.85844  0.67540  1.0000 -0.3538056771
N   N14       1.0  0.25650  0.94012  0.75770  1.0000 -0.0485444149
N   N15       1.0  0.75088  0.35844  0.17540  1.0000 -0.3538056771
N   N16       1.0  0.75650  0.44012  0.25770  1.0000 -0.0485444149
O   O1        1.0  0.74869  0.71902  0.12380  1.0000 -0.820557871
O   O2        1.0  0.16822  0.78026  0.91670  1.0000 -0.5441169898
O   O3        1.0  0.12980  0.81650  0.58020  1.0000 -0.5857355084
O   O4        1.0  0.24869  0.21902  0.62380  1.0000 -0.820557871
O   O5        1.0  0.66822  0.28026  0.41670  1.0000 -0.5441169898
O   O6        1.0  0.62980  0.31650  0.08020  1.0000 -0.5857355084
O   O7        1.0  0.25131  0.28098  0.12380  1.0000 -0.820557871
O   O8        1.0  0.83178  0.21974  0.91670  1.0000 -0.5441169898
O   O9        1.0  0.87020  0.18350  0.58020  1.0000 -0.5857355084
O   O10       1.0  0.75131  0.78098  0.62380  1.0000 -0.820557871
O   O11       1.0  0.33178  0.71974  0.41670  1.0000 -0.5441169898
O   O12       1.0  0.37020  0.68350  0.08020  1.0000 -0.5857355084
O   O13       1.0  0.71902  0.25131  0.87620  1.0000 -0.820557871
O   O14       1.0  0.78026  0.83178  0.08330  1.0000 -0.5441169898
O   O15       1.0  0.81650  0.87020  0.41980  1.0000 -0.5857355084
O   O16       1.0  0.21902  0.75131  0.37620  1.0000 -0.820557871
O   O17       1.0  0.28026  0.33178  0.58330  1.0000 -0.5441169898
O   O18       1.0  0.31650  0.37020  0.91980  1.0000 -0.5857355084
O   O19       1.0  0.28098  0.74869  0.87620  1.0000 -0.820557871
O   O20       1.0  0.21974  0.16822  0.08330  1.0000 -0.5441169898
O   O21       1.0  0.18350  0.12980  0.41980  1.0000 -0.5857355084
O   O22       1.0  0.78098  0.24869  0.37620  1.0000 -0.820557871
O   O23       1.0  0.71974  0.66822  0.58330  1.0000 -0.5441169898
O   O24       1.0  0.68350  0.62980  0.91980  1.0000 -0.5857355084
