# DDEC6 charges by PACMAN v1.1 (https://github.com/mtap-research/PACMAN-charge/)
data_2013[Yb][nia]3[ASR]1
_chemical_formula_sum              "Yb6 H72 C132 O26"
_cell_length_a       19.848
_cell_length_b       19.848
_cell_length_c       27.853
_cell_angle_alpha    90
_cell_angle_beta     90
_cell_angle_gamma    120

_symmetry_space_group_name_H-M    "P 1"
_symmetry_Int_Tables_number       1

loop_
  _symmetry_equiv_pos_as_xyz
  'x, y, z'

loop_
  _atom_site_type_symbol
  _atom_site_label
  _atom_site_symmetry_multiplicity
  _atom_site_fract_x
  _atom_site_fract_y
  _atom_site_fract_z
  _atom_site_occupancy
  _atom_site_charge
Yb  Yb1       1.0  0.41967  0.63427  0.25000  1.0000 2.0960369507
Yb  Yb2       1.0  0.21460  0.58033  0.25000  1.0000 2.0905148426
Yb  Yb3       1.0  0.36573  0.78540  0.25000  1.0000 2.0905148426
Yb  Yb4       1.0  0.63427  0.41967  0.75000  1.0000 2.0905148426
Yb  Yb5       1.0  0.78540  0.36573  0.75000  1.0000 2.0905148426
Yb  Yb6       1.0  0.58033  0.21460  0.75000  1.0000 2.0905148426
H   H1        1.0  0.15920  0.40550  0.13360  1.0000 0.1221777038
H   H2        1.0  0.24630  0.84080  0.36640  1.0000 0.1221777038
H   H3        1.0  0.59450  0.75370  0.13360  1.0000 0.1221777038
H   H4        1.0  0.15920  0.40550  0.36640  1.0000 0.1221777038
H   H5        1.0  0.24630  0.84080  0.13360  1.0000 0.1221777038
H   H6        1.0  0.59450  0.75370  0.36640  1.0000 0.1221777038
H   H7        1.0  0.40550  0.15920  0.63360  1.0000 0.1221777038
H   H8        1.0  0.75370  0.59450  0.86640  1.0000 0.1221777038
H   H9        1.0  0.84080  0.24630  0.63360  1.0000 0.1221777038
H   H10       1.0  0.40550  0.15920  0.86640  1.0000 0.1221777038
H   H11       1.0  0.75370  0.59450  0.63360  1.0000 0.1221777038
H   H12       1.0  0.84080  0.24630  0.86640  1.0000 0.1221777038
H   H13       1.0  0.13450  0.31390  0.07600  1.0000 0.1081962175
H   H14       1.0  0.17940  0.86550  0.42400  1.0000 0.1081962175
H   H15       1.0  0.68610  0.82060  0.07600  1.0000 0.1081962175
H   H16       1.0  0.13450  0.31390  0.42400  1.0000 0.1081962175
H   H17       1.0  0.17940  0.86550  0.07600  1.0000 0.1081962175
H   H18       1.0  0.68610  0.82060  0.42400  1.0000 0.1081962175
H   H19       1.0  0.31390  0.13450  0.57600  1.0000 0.1081962175
H   H20       1.0  0.82060  0.68610  0.92400  1.0000 0.1081962175
H   H21       1.0  0.86550  0.17940  0.57600  1.0000 0.1081962175
H   H22       1.0  0.31390  0.13450  0.92400  1.0000 0.1081962175
H   H23       1.0  0.82060  0.68610  0.57600  1.0000 0.1081962175
H   H24       1.0  0.86550  0.17940  0.92400  1.0000 0.1081962175
H   H25       1.0  0.35760  0.37300  0.07790  1.0000 0.1081962175
H   H26       1.0  0.01540  0.64240  0.42210  1.0000 0.1081962175
H   H27       1.0  0.62700  0.98460  0.07790  1.0000 0.1081962175
H   H28       1.0  0.35760  0.37300  0.42210  1.0000 0.1081962175
H   H29       1.0  0.01540  0.64240  0.07790  1.0000 0.1081962175
H   H30       1.0  0.62700  0.98460  0.42210  1.0000 0.1081962175
H   H31       1.0  0.37300  0.35760  0.57790  1.0000 0.1081962175
H   H32       1.0  0.98460  0.62700  0.92210  1.0000 0.1081962175
H   H33       1.0  0.64240  0.01540  0.57790  1.0000 0.1081962175
H   H34       1.0  0.37300  0.35760  0.92210  1.0000 0.1081962175
H   H35       1.0  0.98460  0.62700  0.57790  1.0000 0.1081962175
H   H36       1.0  0.64240  0.01540  0.92210  1.0000 0.1081962175
H   H37       1.0  0.38080  0.46470  0.13630  1.0000 0.1221777038
H   H38       1.0  0.08390  0.61920  0.36370  1.0000 0.1221777038
H   H39       1.0  0.53530  0.91610  0.13630  1.0000 0.1221777038
H   H40       1.0  0.38080  0.46470  0.36370  1.0000 0.1221777038
H   H41       1.0  0.08390  0.61920  0.13630  1.0000 0.1221777038
H   H42       1.0  0.53530  0.91610  0.36370  1.0000 0.1221777038
H   H43       1.0  0.46470  0.38080  0.63630  1.0000 0.1221777038
H   H44       1.0  0.91610  0.53530  0.86370  1.0000 0.1221777038
H   H45       1.0  0.61920  0.08390  0.63630  1.0000 0.1221777038
H   H46       1.0  0.46470  0.38080  0.86370  1.0000 0.1221777038
H   H47       1.0  0.91610  0.53530  0.63630  1.0000 0.1221777038
H   H48       1.0  0.61920  0.08390  0.86370  1.0000 0.1221777038
H   H49       1.0  0.33160  0.33160  0.00000  1.0000 0.1081962175
H   H50       1.0  0.00000  0.66840  0.50000  1.0000 0.1081962175
H   H51       1.0  0.66840  0.00000  0.00000  1.0000 0.1081962175
H   H52       1.0  0.33160  0.33160  0.50000  1.0000 0.1081962175
H   H53       1.0  0.00000  0.66840  0.00000  1.0000 0.1081962175
H   H54       1.0  0.66840  0.00000  0.50000  1.0000 0.1081962175
H   H55       1.0  0.12010  0.19530  0.05500  1.0000 0.1081962175
H   H56       1.0  0.07520  0.87990  0.44500  1.0000 0.1081962175
H   H57       1.0  0.80470  0.92480  0.05500  1.0000 0.1081962175
H   H58       1.0  0.12010  0.19530  0.44500  1.0000 0.1081962175
H   H59       1.0  0.07520  0.87990  0.05500  1.0000 0.1081962175
H   H60       1.0  0.80470  0.92480  0.44500  1.0000 0.1081962175
H   H61       1.0  0.19530  0.12010  0.55500  1.0000 0.1081962175
H   H62       1.0  0.92480  0.80470  0.94500  1.0000 0.1081962175
H   H63       1.0  0.87990  0.07520  0.55500  1.0000 0.1081962175
H   H64       1.0  0.19530  0.12010  0.94500  1.0000 0.1081962175
H   H65       1.0  0.92480  0.80470  0.55500  1.0000 0.1081962175
H   H66       1.0  0.87990  0.07520  0.94500  1.0000 0.1081962175
H   H67       1.0  0.00000  0.11680  0.00000  1.0000 0.1081962175
H   H68       1.0  0.11680  0.00000  0.50000  1.0000 0.1081962175
H   H69       1.0  0.88320  0.88320  0.00000  1.0000 0.1081962175
H   H70       1.0  0.00000  0.11680  0.50000  1.0000 0.1081962175
H   H71       1.0  0.11680  0.00000  0.00000  1.0000 0.1081962175
H   H72       1.0  0.88320  0.88320  0.50000  1.0000 0.1081962175
C   C1        1.0  0.28850  0.50280  0.18050  1.0000 0.6663952072
C   C2        1.0  0.21430  0.71150  0.31950  1.0000 0.6663952072
C   C3        1.0  0.49720  0.78570  0.18050  1.0000 0.6663952072
C   C4        1.0  0.28850  0.50280  0.31950  1.0000 0.6663952072
C   C5        1.0  0.21430  0.71150  0.18050  1.0000 0.6663952072
C   C6        1.0  0.49720  0.78570  0.31950  1.0000 0.6663952072
C   C7        1.0  0.50280  0.28850  0.68050  1.0000 0.6663952072
C   C8        1.0  0.78570  0.49720  0.81950  1.0000 0.6663952072
C   C9        1.0  0.71150  0.21430  0.68050  1.0000 0.6663952072
C   C10       1.0  0.50280  0.28850  0.81950  1.0000 0.6663952072
C   C11       1.0  0.78570  0.49720  0.68050  1.0000 0.6663952072
C   C12       1.0  0.71150  0.21430  0.81950  1.0000 0.6663952072
C   C13       1.0  0.27260  0.44340  0.14150  1.0000 -0.0439857984
C   C14       1.0  0.17080  0.72740  0.35850  1.0000 -0.0439857984
C   C15       1.0  0.55660  0.82920  0.14150  1.0000 -0.0439857984
C   C16       1.0  0.27260  0.44340  0.35850  1.0000 -0.0439857984
C   C17       1.0  0.17080  0.72740  0.14150  1.0000 -0.0439857984
C   C18       1.0  0.55660  0.82920  0.35850  1.0000 -0.0439857984
C   C19       1.0  0.44340  0.27260  0.64150  1.0000 -0.0463201035
C   C20       1.0  0.82920  0.55660  0.85850  1.0000 -0.0463201035
C   C21       1.0  0.72740  0.17080  0.64150  1.0000 -0.0439857984
C   C22       1.0  0.44340  0.27260  0.85850  1.0000 -0.0463201035
C   C23       1.0  0.82920  0.55660  0.64150  1.0000 -0.0463201035
C   C24       1.0  0.72740  0.17080  0.85850  1.0000 -0.0439857984
C   C25       1.0  0.19960  0.39860  0.12260  1.0000 -0.0913646675
C   C26       1.0  0.19900  0.80040  0.37740  1.0000 -0.0913646675
C   C27       1.0  0.60140  0.80100  0.12260  1.0000 -0.0913646675
C   C28       1.0  0.19960  0.39860  0.37740  1.0000 -0.0913646675
C   C29       1.0  0.19900  0.80040  0.12260  1.0000 -0.0913646675
C   C30       1.0  0.60140  0.80100  0.37740  1.0000 -0.0913646675
C   C31       1.0  0.39860  0.19960  0.62260  1.0000 -0.0913646675
C   C32       1.0  0.80100  0.60140  0.87740  1.0000 -0.0913646675
C   C33       1.0  0.80040  0.19900  0.62260  1.0000 -0.0913646675
C   C34       1.0  0.39860  0.19960  0.87740  1.0000 -0.0913646675
C   C35       1.0  0.80100  0.60140  0.62260  1.0000 -0.0913646675
C   C36       1.0  0.80040  0.19900  0.87740  1.0000 -0.0913646675
C   C37       1.0  0.18470  0.34410  0.08790  1.0000 -0.1573040626
C   C38       1.0  0.15940  0.81530  0.41210  1.0000 -0.1573040626
C   C39       1.0  0.65590  0.84060  0.08790  1.0000 -0.1573040626
C   C40       1.0  0.18470  0.34410  0.41210  1.0000 -0.1573040626
C   C41       1.0  0.15940  0.81530  0.08790  1.0000 -0.1573040626
C   C42       1.0  0.65590  0.84060  0.41210  1.0000 -0.1573040626
C   C43       1.0  0.34410  0.18470  0.58790  1.0000 -0.1573040626
C   C44       1.0  0.84060  0.65590  0.91210  1.0000 -0.1573040626
C   C45       1.0  0.81530  0.15940  0.58790  1.0000 -0.153877472
C   C46       1.0  0.34410  0.18470  0.91210  1.0000 -0.1573040626
C   C47       1.0  0.84060  0.65590  0.58790  1.0000 -0.1573040626
C   C48       1.0  0.81530  0.15940  0.91210  1.0000 -0.1573040626
C   C49       1.0  0.24320  0.33400  0.07090  1.0000 0.0612559845
C   C50       1.0  0.09080  0.75680  0.42910  1.0000 0.0612559845
C   C51       1.0  0.66600  0.90920  0.07090  1.0000 0.0612559845
C   C52       1.0  0.24320  0.33400  0.42910  1.0000 0.0612559845
C   C53       1.0  0.09080  0.75680  0.07090  1.0000 0.0612559845
C   C54       1.0  0.66600  0.90920  0.42910  1.0000 0.0612559845
C   C55       1.0  0.33400  0.24320  0.57090  1.0000 0.0612559845
C   C56       1.0  0.90920  0.66600  0.92910  1.0000 0.0612559845
C   C57       1.0  0.75680  0.09080  0.57090  1.0000 0.0612559845
C   C58       1.0  0.33400  0.24320  0.92910  1.0000 0.0612559845
C   C59       1.0  0.90920  0.66600  0.57090  1.0000 0.0612559845
C   C60       1.0  0.75680  0.09080  0.92910  1.0000 0.0612559845
C   C61       1.0  0.31690  0.37920  0.08920  1.0000 -0.1573040626
C   C62       1.0  0.06230  0.68310  0.41080  1.0000 -0.1573040626
C   C63       1.0  0.62080  0.93770  0.08920  1.0000 -0.1573040626
C   C64       1.0  0.31690  0.37920  0.41080  1.0000 -0.1573040626
C   C65       1.0  0.06230  0.68310  0.08920  1.0000 -0.1573040626
C   C66       1.0  0.62080  0.93770  0.41080  1.0000 -0.1573040626
C   C67       1.0  0.37920  0.31690  0.58920  1.0000 -0.1573040626
C   C68       1.0  0.93770  0.62080  0.91080  1.0000 -0.1573040626
C   C69       1.0  0.68310  0.06230  0.58920  1.0000 -0.1573040626
C   C70       1.0  0.37920  0.31690  0.91080  1.0000 -0.1573040626
C   C71       1.0  0.93770  0.62080  0.58920  1.0000 -0.1573040626
C   C72       1.0  0.68310  0.06230  0.91080  1.0000 -0.1573040626
C   C73       1.0  0.33070  0.43400  0.12440  1.0000 -0.0913646675
C   C74       1.0  0.10330  0.66930  0.37560  1.0000 -0.0913646675
C   C75       1.0  0.56600  0.89670  0.12440  1.0000 -0.0913646675
C   C76       1.0  0.33070  0.43400  0.37560  1.0000 -0.0913646675
C   C77       1.0  0.10330  0.66930  0.12440  1.0000 -0.0913646675
C   C78       1.0  0.56600  0.89670  0.37560  1.0000 -0.0913646675
C   C79       1.0  0.43400  0.33070  0.62440  1.0000 -0.0913646675
C   C80       1.0  0.89670  0.56600  0.87560  1.0000 -0.0913646675
C   C81       1.0  0.66930  0.10330  0.62440  1.0000 -0.0913646675
C   C82       1.0  0.43400  0.33070  0.87560  1.0000 -0.0913646675
C   C83       1.0  0.89670  0.56600  0.62440  1.0000 -0.0913646675
C   C84       1.0  0.66930  0.10330  0.87560  1.0000 -0.0913646675
C   C85       1.0  0.28480  0.28480  0.00000  1.0000 -0.2068861028
C   C86       1.0  0.00000  0.71520  0.50000  1.0000 -0.2068861028
C   C87       1.0  0.71520  0.00000  0.00000  1.0000 -0.2068861028
C   C88       1.0  0.28480  0.28480  0.50000  1.0000 -0.2068861028
C   C89       1.0  0.00000  0.71520  0.00000  1.0000 -0.2068861028
C   C90       1.0  0.71520  0.00000  0.50000  1.0000 -0.2068861028
C   C91       1.0  0.22840  0.27270  0.03420  1.0000 0.0766592083
C   C92       1.0  0.04430  0.77160  0.46580  1.0000 0.0766592083
C   C93       1.0  0.72730  0.95570  0.03420  1.0000 0.0766592083
C   C94       1.0  0.22840  0.27270  0.46580  1.0000 0.0766592083
C   C95       1.0  0.04430  0.77160  0.03420  1.0000 0.0766592083
C   C96       1.0  0.72730  0.95570  0.46580  1.0000 0.0766592083
C   C97       1.0  0.27270  0.22840  0.53420  1.0000 0.0766592083
C   C98       1.0  0.95570  0.72730  0.96580  1.0000 0.0766592083
C   C99       1.0  0.77160  0.04430  0.53420  1.0000 0.0766592083
C   C100      1.0  0.27270  0.22840  0.96580  1.0000 0.0766592083
C   C101      1.0  0.95570  0.72730  0.53420  1.0000 0.0766592083
C   C102      1.0  0.77160  0.04430  0.96580  1.0000 0.0766592083
C   C103      1.0  0.15890  0.20350  0.03310  1.0000 -0.2016910766
C   C104      1.0  0.04460  0.84110  0.46690  1.0000 -0.2016910766
C   C105      1.0  0.79650  0.95540  0.03310  1.0000 -0.2016910766
C   C106      1.0  0.15890  0.20350  0.46690  1.0000 -0.2016910766
C   C107      1.0  0.04460  0.84110  0.03310  1.0000 -0.2016910766
C   C108      1.0  0.79650  0.95540  0.46690  1.0000 -0.2016910766
C   C109      1.0  0.20350  0.15890  0.53310  1.0000 -0.2016910766
C   C110      1.0  0.95540  0.79650  0.96690  1.0000 -0.2016910766
C   C111      1.0  0.84110  0.04460  0.53310  1.0000 -0.2016910766
C   C112      1.0  0.20350  0.15890  0.96690  1.0000 -0.2016910766
C   C113      1.0  0.95540  0.79650  0.53310  1.0000 -0.2016910766
C   C114      1.0  0.84110  0.04460  0.96690  1.0000 -0.2016910766
C   C115      1.0  0.14550  0.14550  0.00000  1.0000 0.0766592083
C   C116      1.0  0.00000  0.85450  0.50000  1.0000 0.0766592083
C   C117      1.0  0.85450  0.00000  0.00000  1.0000 0.0766592083
C   C118      1.0  0.14550  0.14550  0.50000  1.0000 0.0766592083
C   C119      1.0  0.00000  0.85450  0.00000  1.0000 0.0766592083
C   C120      1.0  0.85450  0.00000  0.50000  1.0000 0.0766592083
C   C121      1.0  0.06990  0.06990  0.00000  1.0000 0.0735646833
C   C122      1.0  0.00000  0.93010  0.50000  1.0000 0.0735646833
C   C123      1.0  0.93010  0.00000  0.00000  1.0000 0.0735646833
C   C124      1.0  0.06990  0.06990  0.50000  1.0000 0.0735646833
C   C125      1.0  0.00000  0.93010  0.00000  1.0000 0.0735646833
C   C126      1.0  0.93010  0.00000  0.50000  1.0000 0.0735646833
C   C127      1.0  0.00000  0.06990  0.00000  1.0000 -0.2016910766
C   C128      1.0  0.06990  0.00000  0.50000  1.0000 -0.2016910766
C   C129      1.0  0.93010  0.93010  0.00000  1.0000 -0.2068861028
C   C130      1.0  0.00000  0.06990  0.50000  1.0000 -0.2016910766
C   C131      1.0  0.06990  0.00000  0.00000  1.0000 -0.2016910766
C   C132      1.0  0.93010  0.93010  0.50000  1.0000 -0.2068861028
O   O1        1.0  0.35620  0.54260  0.19510  1.0000 -0.6900812537
O   O2        1.0  0.18640  0.64380  0.30490  1.0000 -0.6900812537
O   O3        1.0  0.45740  0.81360  0.19510  1.0000 -0.6900812537
O   O4        1.0  0.35620  0.54260  0.30490  1.0000 -0.6900812537
O   O5        1.0  0.18640  0.64380  0.19510  1.0000 -0.6900812537
O   O6        1.0  0.45740  0.81360  0.30490  1.0000 -0.6900812537
O   O7        1.0  0.54260  0.35620  0.69510  1.0000 -0.6900812537
O   O8        1.0  0.81360  0.45740  0.80490  1.0000 -0.6900812537
O   O9        1.0  0.64380  0.18640  0.69510  1.0000 -0.6900812537
O   O10       1.0  0.54260  0.35620  0.80490  1.0000 -0.6900812537
O   O11       1.0  0.81360  0.45740  0.69510  1.0000 -0.6900812537
O   O12       1.0  0.64380  0.18640  0.80490  1.0000 -0.6900812537
O   O13       1.0  0.23110  0.50980  0.19460  1.0000 -0.7308003059
O   O14       1.0  0.27870  0.76890  0.30540  1.0000 -0.7308003059
O   O15       1.0  0.49020  0.72130  0.19460  1.0000 -0.7308003059
O   O16       1.0  0.23110  0.50980  0.30540  1.0000 -0.7308003059
O   O17       1.0  0.27870  0.76890  0.19460  1.0000 -0.7308003059
O   O18       1.0  0.49020  0.72130  0.30540  1.0000 -0.7308003059
O   O19       1.0  0.50980  0.23110  0.69460  1.0000 -0.7308003059
O   O20       1.0  0.72130  0.49020  0.80540  1.0000 -0.7308003059
O   O21       1.0  0.76890  0.27870  0.69460  1.0000 -0.7308003059
O   O22       1.0  0.50980  0.23110  0.80540  1.0000 -0.7308003059
O   O23       1.0  0.72130  0.49020  0.69460  1.0000 -0.7308003059
O   O24       1.0  0.76890  0.27870  0.80540  1.0000 -0.7308003059
O   O25       1.0  0.33333  0.66667  0.25000  1.0000 -1.396424075
O   O26       1.0  0.66667  0.33333  0.75000  1.0000 -1.396424075
