# DDEC6 charges by PACMAN v1.1 (https://github.com/mtap-research/PACMAN-charge/)
data_2013[CoSm][nan]3[ASR]1
_chemical_formula_sum              "Sm16 Co8 H192 C384 N64 O128"
_cell_length_a       32.9829
_cell_length_b       32.9829
_cell_length_c       32.9829
_cell_angle_alpha    91.647
_cell_angle_beta     91.647
_cell_angle_gamma    160.479

_symmetry_space_group_name_H-M    "P 1"
_symmetry_Int_Tables_number       1

loop_
  _symmetry_equiv_pos_as_xyz
  'x, y, z'

loop_
  _atom_site_type_symbol
  _atom_site_label
  _atom_site_symmetry_multiplicity
  _atom_site_fract_x
  _atom_site_fract_y
  _atom_site_fract_z
  _atom_site_occupancy
  _atom_site_charge
Sm  Sm1       1.0  0.33209  0.40847  0.27522  1.0000 2.0370962743
Sm  Sm2       1.0  0.30686  0.08209  0.42362  1.0000 2.0370962743
Sm  Sm3       1.0  0.13325  0.05687  0.72477  1.0000 2.0370962743
Sm  Sm4       1.0  0.65847  0.88324  0.57638  1.0000 2.0370962743
Sm  Sm5       1.0  0.91791  0.34153  0.22477  1.0000 2.0324793326
Sm  Sm6       1.0  0.94313  0.66791  0.07638  1.0000 2.0370962743
Sm  Sm7       1.0  0.11675  0.69313  0.77523  1.0000 2.0370962743
Sm  Sm8       1.0  0.59153  0.86676  0.92362  1.0000 2.0370962743
Sm  Sm9       1.0  0.83507  0.91428  0.27799  1.0000 2.0189260113
Sm  Sm10      1.0  0.80707  0.58507  0.42079  1.0000 2.0189260113
Sm  Sm11      1.0  0.63628  0.55707  0.72201  1.0000 2.0189260113
Sm  Sm12      1.0  0.16428  0.38628  0.57921  1.0000 2.0189260113
Sm  Sm13      1.0  0.41493  0.83572  0.22201  1.0000 2.0189260113
Sm  Sm14      1.0  0.44293  0.16493  0.07921  1.0000 2.0189260113
Sm  Sm15      1.0  0.61372  0.19293  0.77799  1.0000 2.0189260113
Sm  Sm16      1.0  0.08572  0.36371  0.92079  1.0000 2.0189260113
Co  Co1       1.0  0.04244  0.32855  0.37905  1.0000 0.5320994573
Co  Co2       1.0  0.91339  0.79244  0.21389  1.0000 0.5320994573
Co  Co3       1.0  0.94949  0.66338  0.62094  1.0000 0.5320994573
Co  Co4       1.0  0.57855  0.69949  0.78611  1.0000 0.5320994573
Co  Co5       1.0  0.20756  0.42145  0.12094  1.0000 0.5320994573
Co  Co6       1.0  0.33662  0.95756  0.28611  1.0000 0.5320994573
Co  Co7       1.0  0.30051  0.08662  0.87906  1.0000 0.5320994573
Co  Co8       1.0  0.67145  0.05051  0.71389  1.0000 0.5320994573
H   H1        1.0  0.32970  0.37021  0.12290  1.0000 0.1386101228
H   H2        1.0  0.45681  0.07970  0.45949  1.0000 0.1386101228
H   H3        1.0  0.24732  0.20680  0.87711  1.0000 0.1386101228
H   H4        1.0  0.62021  0.99731  0.54051  1.0000 0.1386101228
H   H5        1.0  0.92030  0.37979  0.37710  1.0000 0.1386101228
H   H6        1.0  0.79319  0.67030  0.04051  1.0000 0.1386101228
H   H7        1.0  0.00269  0.54319  0.62289  1.0000 0.1386101228
H   H8        1.0  0.62979  0.75268  0.95949  1.0000 0.1386101228
H   H9        1.0  0.12620  0.19621  0.10159  1.0000 0.1386101228
H   H10       1.0  0.27460  0.87620  0.42999  1.0000 0.1386101228
H   H11       1.0  0.09462  0.02461  0.89841  1.0000 0.1386101228
H   H12       1.0  0.44621  0.84462  0.57001  1.0000 0.1386101228
H   H13       1.0  0.12380  0.55379  0.39841  1.0000 0.1386101228
H   H14       1.0  0.97540  0.87380  0.07001  1.0000 0.1386101228
H   H15       1.0  0.15538  0.72540  0.60159  1.0000 0.1386101228
H   H16       1.0  0.80379  0.90538  0.92999  1.0000 0.1386101228
H   H17       1.0  0.06890  0.20791  0.11059  1.0000 0.109979499
H   H18       1.0  0.20830  0.81890  0.36099  1.0000 0.109979499
H   H19       1.0  0.09731  0.95830  0.88941  1.0000 0.109979499
H   H20       1.0  0.45791  0.84732  0.63901  1.0000 0.109979499
H   H21       1.0  0.18110  0.54209  0.38941  1.0000 0.109979499
H   H22       1.0  0.04169  0.93110  0.13901  1.0000 0.109979499
H   H23       1.0  0.15269  0.79170  0.61059  1.0000 0.109979499
H   H24       1.0  0.79209  0.90268  0.86099  1.0000 0.109979499
H   H25       1.0  0.45670  0.70801  0.13570  1.0000 0.1015472777
H   H26       1.0  0.57100  0.20670  0.24869  1.0000 0.1015472777
H   H27       1.0  0.57231  0.32100  0.86430  1.0000 0.1015472777
H   H28       1.0  0.95801  0.32231  0.75131  1.0000 0.1015472777
H   H29       1.0  0.79330  0.04199  0.36430  1.0000 0.1015472777
H   H30       1.0  0.67900  0.54330  0.25131  1.0000 0.1015472777
H   H31       1.0  0.67768  0.42900  0.63570  1.0000 0.1015472777
H   H32       1.0  0.29199  0.42768  0.74869  1.0000 0.1015472777
H   H33       1.0  0.62520  0.86891  0.18689  1.0000 0.1288206459
H   H34       1.0  0.68830  0.37520  0.25629  1.0000 0.1288206459
H   H35       1.0  0.68202  0.43831  0.81310  1.0000 0.1288206459
H   H36       1.0  0.11891  0.43201  0.74371  1.0000 0.1288206459
H   H37       1.0  0.62480  0.88109  0.31311  1.0000 0.1288206459
H   H38       1.0  0.56170  0.37480  0.24371  1.0000 0.1288206459
H   H39       1.0  0.56799  0.31169  0.68690  1.0000 0.1288206459
H   H40       1.0  0.13109  0.31798  0.75629  1.0000 0.1288206459
H   H41       1.0  0.65890  0.84591  0.23059  1.0000 0.1288206459
H   H42       1.0  0.67831  0.40890  0.31299  1.0000 0.1288206459
H   H43       1.0  0.61531  0.42830  0.76941  1.0000 0.1288206459
H   H44       1.0  0.09591  0.36532  0.68701  1.0000 0.1288206459
H   H45       1.0  0.59110  0.90409  0.26941  1.0000 0.1288206459
H   H46       1.0  0.57169  0.34110  0.18701  1.0000 0.1288206459
H   H47       1.0  0.63469  0.32170  0.73059  1.0000 0.1288206459
H   H48       1.0  0.15409  0.38468  0.81299  1.0000 0.1288206459
H   H49       1.0  0.90070  0.11291  0.22379  1.0000 0.1288206459
H   H50       1.0  0.92691  0.65070  0.28779  1.0000 0.1288206459
H   H51       1.0  0.88912  0.67690  0.77621  1.0000 0.1288206459
H   H52       1.0  0.36291  0.63911  0.71221  1.0000 0.1288206459
H   H53       1.0  0.34930  0.63709  0.27620  1.0000 0.1288206459
H   H54       1.0  0.32310  0.09930  0.21221  1.0000 0.1288206459
H   H55       1.0  0.36088  0.07309  0.72379  1.0000 0.1288206459
H   H56       1.0  0.88709  0.11088  0.78779  1.0000 0.1288206459
H   H57       1.0  0.94220  0.22031  0.22290  1.0000 0.1288206459
H   H58       1.0  0.96931  0.69220  0.22189  1.0000 0.1288206459
H   H59       1.0  0.99742  0.71930  0.77711  1.0000 0.1288206459
H   H60       1.0  0.47031  0.74742  0.77811  1.0000 0.1288206459
H   H61       1.0  0.30780  0.52969  0.27710  1.0000 0.1288206459
H   H62       1.0  0.28070  0.05780  0.27811  1.0000 0.1288206459
H   H63       1.0  0.25259  0.03070  0.72289  1.0000 0.1288206459
H   H64       1.0  0.77969  0.00258  0.72189  1.0000 0.1288206459
H   H65       1.0  0.02310  0.33041  0.28269  1.0000 0.1186300673
H   H66       1.0  0.99041  0.77310  0.19269  1.0000 0.1186300673
H   H67       1.0  0.04771  0.74040  0.71730  1.0000 0.1186300673
H   H68       1.0  0.58041  0.79771  0.80731  1.0000 0.1186300673
H   H69       1.0  0.22690  0.41959  0.21730  1.0000 0.1186300673
H   H70       1.0  0.25960  0.97690  0.30731  1.0000 0.1186300673
H   H71       1.0  0.20229  0.00960  0.78270  1.0000 0.1186300673
H   H72       1.0  0.66959  0.95229  0.69269  1.0000 0.1186300673
H   H73       1.0  0.06890  0.29101  0.45129  1.0000 0.1186300673
H   H74       1.0  0.86761  0.81890  0.27789  1.0000 0.1186300673
H   H75       1.0  0.83971  0.61760  0.54870  1.0000 0.1186300673
H   H76       1.0  0.54101  0.58971  0.72211  1.0000 0.1186300673
H   H77       1.0  0.18110  0.45899  0.04870  1.0000 0.1186300673
H   H78       1.0  0.38239  0.93110  0.22211  1.0000 0.1186300673
H   H79       1.0  0.41029  0.13239  0.95130  1.0000 0.1186300673
H   H80       1.0  0.70899  0.16029  0.77789  1.0000 0.1186300673
H   H81       1.0  0.17740  0.33361  0.46199  1.0000 0.1461036545
H   H82       1.0  0.96540  0.92740  0.34379  1.0000 0.1461036545
H   H83       1.0  0.87161  0.71540  0.53800  1.0000 0.1461036545
H   H84       1.0  0.58361  0.62162  0.65621  1.0000 0.1461036545
H   H85       1.0  0.07260  0.41639  0.03800  1.0000 0.1461036545
H   H86       1.0  0.28460  0.82260  0.15621  1.0000 0.1461036545
H   H87       1.0  0.37838  0.03459  0.96199  1.0000 0.1461036545
H   H88       1.0  0.66639  0.12838  0.84379  1.0000 0.1461036545
H   H89       1.0  0.23300  0.35131  0.40690  1.0000 0.1386101228
H   H90       1.0  0.07610  0.98300  0.38169  1.0000 0.1386101228
H   H91       1.0  0.94441  0.82610  0.59310  1.0000 0.1386101228
H   H92       1.0  0.60131  0.69442  0.61831  1.0000 0.1386101228
H   H93       1.0  0.01700  0.39869  0.09310  1.0000 0.1386101228
H   H94       1.0  0.17390  0.76700  0.11831  1.0000 0.1386101228
H   H95       1.0  0.30559  0.92390  0.90690  1.0000 0.1386101228
H   H96       1.0  0.64869  0.05558  0.88169  1.0000 0.1386101228
H   H97       1.0  0.66440  0.77691  0.40390  1.0000 0.109979499
H   H98       1.0  0.51051  0.41440  0.38749  1.0000 0.109979499
H   H99       1.0  0.37301  0.26050  0.59610  1.0000 0.109979499
H   H100      1.0  0.02691  0.12302  0.61251  1.0000 0.109979499
H   H101      1.0  0.58560  0.97309  0.09610  1.0000 0.109979499
H   H102      1.0  0.73950  0.33560  0.11251  1.0000 0.109979499
H   H103      1.0  0.87699  0.48950  0.90390  1.0000 0.109979499
H   H104      1.0  0.22309  0.62698  0.88749  1.0000 0.109979499
H   H105      1.0  0.57920  0.68751  0.46370  1.0000 0.1288206459
H   H106      1.0  0.36550  0.32920  0.39169  1.0000 0.1288206459
H   H107      1.0  0.22381  0.11550  0.53630  1.0000 0.1288206459
H   H108      1.0  0.93751  0.97382  0.60831  1.0000 0.1288206459
H   H109      1.0  0.67080  0.06249  0.03630  1.0000 0.1288206459
H   H110      1.0  0.88450  0.42080  0.10831  1.0000 0.1288206459
H   H111      1.0  0.02618  0.63450  0.96369  1.0000 0.1288206459
H   H112      1.0  0.31249  0.77619  0.89169  1.0000 0.1288206459
H   H113      1.0  0.58130  0.62321  0.48649  1.0000 0.1015472777
H   H114      1.0  0.34480  0.33130  0.45809  1.0000 0.1015472777
H   H115      1.0  0.13672  0.09481  0.51350  1.0000 0.1015472777
H   H116      1.0  0.87321  0.88672  0.54191  1.0000 0.1015472777
H   H117      1.0  0.66870  0.12679  0.01350  1.0000 0.1015472777
H   H118      1.0  0.90519  0.41870  0.04191  1.0000 0.1015472777
H   H119      1.0  0.11328  0.65519  0.98649  1.0000 0.1015472777
H   H120      1.0  0.37679  0.86328  0.95809  1.0000 0.1015472777
H   H121      1.0  0.79860  0.68391  0.38370  1.0000 0.109979499
H   H122      1.0  0.66490  0.54860  0.61469  1.0000 0.109979499
H   H123      1.0  0.30022  0.41491  0.61630  1.0000 0.109979499
H   H124      1.0  0.93391  0.05022  0.38531  1.0000 0.109979499
H   H125      1.0  0.45140  0.06609  0.11631  1.0000 0.109979499
H   H126      1.0  0.58509  0.20140  0.88531  1.0000 0.109979499
H   H127      1.0  0.94978  0.33510  0.88370  1.0000 0.109979499
H   H128      1.0  0.31609  0.69978  0.11469  1.0000 0.109979499
H   H129      1.0  0.68200  0.56031  0.32270  1.0000 0.1186300673
H   H130      1.0  0.60930  0.43200  0.62169  1.0000 0.1186300673
H   H131      1.0  0.23762  0.35930  0.67731  1.0000 0.1186300673
H   H132      1.0  0.81031  0.98762  0.37831  1.0000 0.1186300673
H   H133      1.0  0.56800  0.18969  0.17730  1.0000 0.1186300673
H   H134      1.0  0.64070  0.31800  0.87831  1.0000 0.1186300673
H   H135      1.0  0.01238  0.39069  0.82269  1.0000 0.1186300673
H   H136      1.0  0.43969  0.76239  0.12169  1.0000 0.1186300673
H   H137      1.0  0.55990  0.49631  0.29159  1.0000 0.1186300673
H   H138      1.0  0.51831  0.30990  0.56359  1.0000 0.1186300673
H   H139      1.0  0.20472  0.26831  0.70840  1.0000 0.1186300673
H   H140      1.0  0.74631  0.95471  0.43641  1.0000 0.1186300673
H   H141      1.0  0.69010  0.25369  0.20841  1.0000 0.1186300673
H   H142      1.0  0.73169  0.44010  0.93641  1.0000 0.1186300673
H   H143      1.0  0.04529  0.48169  0.79160  1.0000 0.1186300673
H   H144      1.0  0.50369  0.79529  0.06359  1.0000 0.1186300673
H   H145      1.0  0.29420  0.25481  0.29440  1.0000 0.1288206459
H   H146      1.0  0.24980  0.04420  0.53939  1.0000 0.1288206459
H   H147      1.0  0.96041  0.99980  0.70560  1.0000 0.1288206459
H   H148      1.0  0.50481  0.71041  0.46061  1.0000 0.1288206459
H   H149      1.0  0.95580  0.49519  0.20561  1.0000 0.1288206459
H   H150      1.0  0.00020  0.70580  0.96061  1.0000 0.1288206459
H   H151      1.0  0.28958  0.75019  0.79439  1.0000 0.1288206459
H   H152      1.0  0.74519  0.03958  0.03939  1.0000 0.1288206459
H   H153      1.0  0.34140  0.23171  0.28869  1.0000 0.1288206459
H   H154      1.0  0.30271  0.09140  0.60969  1.0000 0.1288206459
H   H155      1.0  0.94302  0.05270  0.71130  1.0000 0.1288206459
H   H156      1.0  0.48171  0.69302  0.39031  1.0000 0.1288206459
H   H157      1.0  0.90860  0.51829  0.21130  1.0000 0.1288206459
H   H158      1.0  0.94729  0.65860  0.89031  1.0000 0.1288206459
H   H159      1.0  0.30699  0.69729  0.78870  1.0000 0.1288206459
H   H160      1.0  0.76829  0.05699  0.10969  1.0000 0.1288206459
H   H161      1.0  0.20130  0.05681  0.25089  1.0000 0.1015472777
H   H162      1.0  0.20040  0.95130  0.64449  1.0000 0.1015472777
H   H163      1.0  0.80592  0.95041  0.74911  1.0000 0.1015472777
H   H164      1.0  0.30681  0.55592  0.35551  1.0000 0.1015472777
H   H165      1.0  0.04870  0.69319  0.24910  1.0000 0.1015472777
H   H166      1.0  0.04959  0.79870  0.85551  1.0000 0.1015472777
H   H167      1.0  0.44409  0.79959  0.75089  1.0000 0.1015472777
H   H168      1.0  0.94319  0.19409  0.14449  1.0000 0.1015472777
H   H169      1.0  0.69350  0.63131  0.16359  1.0000 0.109979499
H   H170      1.0  0.77990  0.44350  0.56219  1.0000 0.109979499
H   H171      1.0  0.46771  0.52990  0.83640  1.0000 0.109979499
H   H172      1.0  0.88131  0.21771  0.43781  1.0000 0.109979499
H   H173      1.0  0.55650  0.11869  0.33641  1.0000 0.109979499
H   H174      1.0  0.47009  0.30650  0.93781  1.0000 0.109979499
H   H175      1.0  0.78229  0.22009  0.66359  1.0000 0.109979499
H   H176      1.0  0.36869  0.53229  0.06219  1.0000 0.109979499
H   H177      1.0  0.67130  0.66431  0.12159  1.0000 0.1386101228
H   H178      1.0  0.79970  0.42130  0.50699  1.0000 0.1386101228
H   H179      1.0  0.54271  0.54970  0.87840  1.0000 0.1386101228
H   H180      1.0  0.91431  0.29272  0.49301  1.0000 0.1386101228
H   H181      1.0  0.57870  0.08569  0.37840  1.0000 0.1386101228
H   H182      1.0  0.45030  0.32870  0.99301  1.0000 0.1386101228
H   H183      1.0  0.70729  0.20030  0.62160  1.0000 0.1386101228
H   H184      1.0  0.33569  0.45728  0.00699  1.0000 0.1386101228
H   H185      1.0  0.83230  0.86151  0.12499  1.0000 0.1386101228
H   H186      1.0  0.95731  0.58230  0.47079  1.0000 0.1386101228
H   H187      1.0  0.73652  0.70730  0.87501  1.0000 0.1386101228
H   H188      1.0  0.11151  0.48651  0.52921  1.0000 0.1386101228
H   H189      1.0  0.41770  0.88849  0.37500  1.0000 0.1386101228
H   H190      1.0  0.29270  0.16770  0.02921  1.0000 0.1386101228
H   H191      1.0  0.51348  0.04269  0.62499  1.0000 0.1386101228
H   H192      1.0  0.13849  0.26348  0.97079  1.0000 0.1386101228
C   C1        1.0  0.52195  0.59377  0.15890  1.0000 0.5597372594
C   C2        1.0  0.61304  0.27195  0.42818  1.0000 0.5597372594
C   C3        1.0  0.43486  0.36304  0.84110  1.0000 0.5597372594
C   C4        1.0  0.84377  0.18486  0.57182  1.0000 0.5597372594
C   C5        1.0  0.72805  0.15623  0.34109  1.0000 0.5597372594
C   C6        1.0  0.63696  0.47805  0.07182  1.0000 0.5597372594
C   C7        1.0  0.81514  0.38695  0.65890  1.0000 0.5597372594
C   C8        1.0  0.40623  0.56514  0.92818  1.0000 0.5597372594
C   C9        1.0  0.38907  0.48125  0.14471  1.0000 -0.0697980714
C   C10       1.0  0.49437  0.13907  0.40782  1.0000 -0.0697980714
C   C11       1.0  0.33654  0.24436  0.85530  1.0000 -0.0697980714
C   C12       1.0  0.73125  0.08654  0.59218  1.0000 -0.0697980714
C   C13       1.0  0.86093  0.26875  0.35530  1.0000 -0.0697980714
C   C14       1.0  0.75563  0.61093  0.09218  1.0000 -0.0697980714
C   C15       1.0  0.91346  0.50563  0.64470  1.0000 -0.0697980714
C   C16       1.0  0.51875  0.66346  0.90782  1.0000 -0.0697980714
C   C17       1.0  0.30480  0.37334  0.12652  1.0000 -0.0435156809
C   C18       1.0  0.42827  0.05480  0.43146  1.0000 -0.0435156809
C   C19       1.0  0.24682  0.17827  0.87348  1.0000 -0.0435156809
C   C20       1.0  0.62334  0.99682  0.56854  1.0000 -0.0435156809
C   C21       1.0  0.94520  0.37666  0.37348  1.0000 -0.0435156809
C   C22       1.0  0.82173  0.69520  0.06854  1.0000 -0.0435156809
C   C23       1.0  0.00319  0.57173  0.62652  1.0000 -0.0435156809
C   C24       1.0  0.62666  0.75319  0.93146  1.0000 -0.0435156809
C   C25       1.0  0.18375  0.26976  0.11370  1.0000 -0.1099355874
C   C26       1.0  0.32005  0.93375  0.41399  1.0000 -0.1099355874
C   C27       1.0  0.15607  0.07006  0.88631  1.0000 -0.1099355874
C   C28       1.0  0.51976  0.90607  0.58601  1.0000 -0.1099355874
C   C29       1.0  0.06625  0.48024  0.38631  1.0000 -0.1099355874
C   C30       1.0  0.92995  0.81625  0.08601  1.0000 -0.1099355874
C   C31       1.0  0.09394  0.67995  0.61369  1.0000 -0.1099355874
C   C32       1.0  0.73024  0.84393  0.91399  1.0000 -0.1099355874
C   C33       1.0  0.15052  0.27765  0.11915  1.0000 0.0683695198
C   C34       1.0  0.28136  0.90052  0.37287  1.0000 0.0683695198
C   C35       1.0  0.15849  0.03136  0.88084  1.0000 0.0683695198
C   C36       1.0  0.52765  0.90850  0.62713  1.0000 0.0683695198
C   C37       1.0  0.09948  0.47235  0.38084  1.0000 0.0683695198
C   C38       1.0  0.96864  0.84948  0.12713  1.0000 0.0683695198
C   C39       1.0  0.09151  0.71864  0.61916  1.0000 0.0683695198
C   C40       1.0  0.72235  0.84150  0.87287  1.0000 0.0683695198
C   C41       1.0  0.34780  0.48170  0.14988  1.0000 0.1461036545
C   C42       1.0  0.44792  0.09780  0.36610  1.0000 0.1461036545
C   C43       1.0  0.33182  0.19792  0.85011  1.0000 0.1461036545
C   C44       1.0  0.73170  0.08182  0.63390  1.0000 0.1461036545
C   C45       1.0  0.90220  0.26830  0.35012  1.0000 0.1461036545
C   C46       1.0  0.80209  0.65220  0.13390  1.0000 0.1461036545
C   C47       1.0  0.91819  0.55209  0.64989  1.0000 0.1461036545
C   C48       1.0  0.51830  0.66819  0.86610  1.0000 0.1461036545
C   C49       1.0  0.42840  0.59316  0.16614  1.0000 0.159985752
C   C50       1.0  0.51226  0.17840  0.33524  1.0000 0.159985752
C   C51       1.0  0.42701  0.26226  0.83386  1.0000 0.159985752
C   C52       1.0  0.84316  0.17702  0.66476  1.0000 0.159985752
C   C53       1.0  0.82160  0.15684  0.33385  1.0000 0.159985752
C   C54       1.0  0.73774  0.57160  0.16476  1.0000 0.159985752
C   C55       1.0  0.82298  0.48774  0.66614  1.0000 0.159985752
C   C56       1.0  0.40684  0.57298  0.83524  1.0000 0.159985752
C   C57       1.0  0.47481  0.70241  0.15180  1.0000 0.0683695198
C   C58       1.0  0.57300  0.22481  0.27240  1.0000 0.0683695198
C   C59       1.0  0.55061  0.32300  0.84819  1.0000 0.0683695198
C   C60       1.0  0.95241  0.30061  0.72760  1.0000 0.0683695198
C   C61       1.0  0.77519  0.04759  0.34819  1.0000 0.0683695198
C   C62       1.0  0.67700  0.52519  0.22760  1.0000 0.0683695198
C   C63       1.0  0.69940  0.42700  0.65180  1.0000 0.0683695198
C   C64       1.0  0.29759  0.44939  0.77240  1.0000 0.0683695198
C   C65       1.0  0.57373  0.79776  0.18288  1.0000 -0.1551179421
C   C66       1.0  0.64085  0.32373  0.27597  1.0000 -0.1498685426
C   C67       1.0  0.61488  0.39085  0.81712  1.0000 -0.1498685426
C   C68       1.0  0.04776  0.36488  0.72403  1.0000 -0.1498685426
C   C69       1.0  0.67627  0.95224  0.31712  1.0000 -0.1551179421
C   C70       1.0  0.60915  0.42627  0.22403  1.0000 -0.1551179421
C   C71       1.0  0.63511  0.35914  0.68288  1.0000 -0.1498685426
C   C72       1.0  0.20224  0.38511  0.77597  1.0000 -0.1498685426
C   C73       1.0  0.59458  0.78440  0.20836  1.0000 -0.0510789016
C   C74       1.0  0.63621  0.34458  0.31018  1.0000 -0.0510789016
C   C75       1.0  0.57603  0.38621  0.79163  1.0000 -0.0510789016
C   C76       1.0  0.03440  0.32604  0.68982  1.0000 -0.0510789016
C   C77       1.0  0.65542  0.96560  0.29163  1.0000 -0.0510789016
C   C78       1.0  0.61379  0.40542  0.18982  1.0000 -0.0510789016
C   C79       1.0  0.67397  0.36379  0.70837  1.0000 -0.0510789016
C   C80       1.0  0.21560  0.42396  0.81018  1.0000 -0.0510789016
C   C81       1.0  0.51993  0.67993  0.20084  1.0000 -0.1003242914
C   C82       1.0  0.56908  0.26993  0.34000  1.0000 -0.1003242914
C   C83       1.0  0.47908  0.31908  0.79915  1.0000 -0.1003242914
C   C84       1.0  0.92993  0.22909  0.66000  1.0000 -0.1003242914
C   C85       1.0  0.73007  0.07007  0.29916  1.0000 -0.1003242914
C   C86       1.0  0.68092  0.48007  0.16000  1.0000 -0.1003242914
C   C87       1.0  0.77091  0.43091  0.70084  1.0000 -0.1003242914
C   C88       1.0  0.32007  0.52092  0.84000  1.0000 -0.1003242914
C   C89       1.0  0.53345  0.66024  0.23208  1.0000 0.6764891612
C   C90       1.0  0.55138  0.28345  0.37321  1.0000 0.6764891612
C   C91       1.0  0.42817  0.30138  0.76792  1.0000 0.6764891612
C   C92       1.0  0.91024  0.17817  0.62679  1.0000 0.6764891612
C   C93       1.0  0.71655  0.08976  0.26793  1.0000 0.6764891612
C   C94       1.0  0.69863  0.46655  0.12679  1.0000 0.6764891612
C   C95       1.0  0.82183  0.44862  0.73207  1.0000 0.6764891612
C   C96       1.0  0.33976  0.57183  0.87321  1.0000 0.6764891612
C   C97       1.0  0.92734  0.08712  0.28525  1.0000 0.5597372594
C   C98       1.0  0.89210  0.67734  0.34022  1.0000 0.5597372594
C   C99       1.0  0.80188  0.64209  0.71476  1.0000 0.5597372594
C   C100      1.0  0.33712  0.55188  0.65978  1.0000 0.5597372594
C   C101      1.0  0.32266  0.66288  0.21476  1.0000 0.5597372594
C   C102      1.0  0.35790  0.07266  0.15978  1.0000 0.5597372594
C   C103      1.0  0.44812  0.10790  0.78524  1.0000 0.5597372594
C   C104      1.0  0.91288  0.19812  0.84022  1.0000 0.5597372594
C   C105      1.0  0.96949  0.17048  0.28396  1.0000 -0.0510789016
C   C106      1.0  0.93554  0.71949  0.29901  1.0000 -0.0510789016
C   C107      1.0  0.88653  0.68554  0.71605  1.0000 -0.0510789016
C   C108      1.0  0.42048  0.63653  0.70099  1.0000 -0.0510789016
C   C109      1.0  0.28051  0.57952  0.21604  1.0000 -0.0510789016
C   C110      1.0  0.31446  0.03051  0.20099  1.0000 -0.0510789016
C   C111      1.0  0.36347  0.06446  0.78395  1.0000 -0.0510789016
C   C112      1.0  0.82952  0.11347  0.79901  1.0000 -0.0510789016
C   C113      1.0  0.93778  0.16158  0.24774  1.0000 -0.0874734173
C   C114      1.0  0.94003  0.68778  0.27620  1.0000 -0.0874734173
C   C115      1.0  0.91383  0.69003  0.75226  1.0000 -0.0874734173
C   C116      1.0  0.41158  0.66383  0.72380  1.0000 -0.0874734173
C   C117      1.0  0.31222  0.58842  0.25226  1.0000 -0.0874734173
C   C118      1.0  0.30996  0.06222  0.22380  1.0000 -0.0874734173
C   C119      1.0  0.33616  0.05996  0.74774  1.0000 -0.0874734173
C   C120      1.0  0.83842  0.08617  0.77620  1.0000 -0.0874734173
C   C121      1.0  0.96077  0.22384  0.24719  1.0000 -0.1325895098
C   C122      1.0  0.96357  0.71077  0.23693  1.0000 -0.1325895098
C   C123      1.0  0.97664  0.71357  0.75280  1.0000 -0.1325895098
C   C124      1.0  0.47384  0.72664  0.76307  1.0000 -0.1325895098
C   C125      1.0  0.28923  0.52616  0.25281  1.0000 -0.1325895098
C   C126      1.0  0.28642  0.03923  0.26307  1.0000 -0.1325895098
C   C127      1.0  0.27335  0.03642  0.74719  1.0000 -0.1325895098
C   C128      1.0  0.77616  0.02335  0.73693  1.0000 -0.1325895098
C   C129      1.0  0.01140  0.29149  0.28287  1.0000 0.0683695198
C   C130      1.0  0.97853  0.76140  0.21991  1.0000 0.0683695198
C   C131      1.0  0.00862  0.72852  0.71713  1.0000 0.0683695198
C   C132      1.0  0.54149  0.75862  0.78009  1.0000 0.0683695198
C   C133      1.0  0.23860  0.45851  0.21713  1.0000 0.0683695198
C   C134      1.0  0.27148  0.98860  0.28009  1.0000 0.0683695198
C   C135      1.0  0.24139  0.02148  0.78287  1.0000 0.0683695198
C   C136      1.0  0.70851  0.99138  0.71991  1.0000 0.0683695198
C   C137      1.0  0.02953  0.24872  0.31823  1.0000 0.1386101228
C   C138      1.0  0.96130  0.77953  0.28081  1.0000 0.1386101228
C   C139      1.0  0.93049  0.71130  0.68176  1.0000 0.1386101228
C   C140      1.0  0.49872  0.68049  0.71919  1.0000 0.1386101228
C   C141      1.0  0.22047  0.50128  0.18177  1.0000 0.1386101228
C   C142      1.0  0.28871  0.97047  0.21919  1.0000 0.1386101228
C   C143      1.0  0.31951  0.03870  0.81824  1.0000 0.1386101228
C   C144      1.0  0.75128  0.06952  0.78081  1.0000 0.1386101228
C   C145      1.0  0.07793  0.27677  0.35828  1.0000 0.1386101228
C   C146      1.0  0.96965  0.82793  0.30116  1.0000 0.1386101228
C   C147      1.0  0.91849  0.71964  0.64172  1.0000 0.1386101228
C   C148      1.0  0.52677  0.66848  0.69884  1.0000 0.1386101228
C   C149      1.0  0.17207  0.47323  0.14172  1.0000 0.1386101228
C   C150      1.0  0.28036  0.92207  0.19884  1.0000 0.1386101228
C   C151      1.0  0.33151  0.03035  0.85828  1.0000 0.1386101228
C   C152      1.0  0.72323  0.08152  0.80116  1.0000 0.1386101228
C   C153      1.0  0.08862  0.29483  0.42883  1.0000 0.0873066363
C   C154      1.0  0.90978  0.83862  0.29379  1.0000 0.0873066363
C   C155      1.0  0.86599  0.65978  0.57117  1.0000 0.0873066363
C   C156      1.0  0.54483  0.61599  0.70621  1.0000 0.0873066363
C   C157      1.0  0.16138  0.45517  0.07117  1.0000 0.0873066363
C   C158      1.0  0.34021  0.91138  0.20621  1.0000 0.0873066363
C   C159      1.0  0.38401  0.09022  0.92883  1.0000 0.0873066363
C   C160      1.0  0.70517  0.13400  0.79379  1.0000 0.0873066363
C   C161      1.0  0.15492  0.32184  0.43555  1.0000 -0.1182345684
C   C162      1.0  0.96938  0.90492  0.33308  1.0000 -0.1182345684
C   C163      1.0  0.88629  0.71937  0.56445  1.0000 -0.1182345684
C   C164      1.0  0.57184  0.63630  0.66692  1.0000 -0.1182345684
C   C165      1.0  0.09508  0.42816  0.06445  1.0000 -0.1182345684
C   C166      1.0  0.28062  0.84508  0.16692  1.0000 -0.1182345684
C   C167      1.0  0.36371  0.03062  0.93554  1.0000 -0.1182345684
C   C168      1.0  0.67816  0.11370  0.83308  1.0000 -0.1182345684
C   C169      1.0  0.18665  0.33107  0.40270  1.0000 -0.0697980714
C   C170      1.0  0.03394  0.93665  0.35558  1.0000 -0.0697980714
C   C171      1.0  0.92837  0.78395  0.59730  1.0000 -0.0697980714
C   C172      1.0  0.58107  0.67836  0.64442  1.0000 -0.0697980714
C   C173      1.0  0.06335  0.41893  0.09730  1.0000 -0.0697980714
C   C174      1.0  0.21605  0.81335  0.14442  1.0000 -0.0697980714
C   C175      1.0  0.32164  0.96605  0.90270  1.0000 -0.0697980714
C   C176      1.0  0.66893  0.07164  0.85558  1.0000 -0.0697980714
C   C177      1.0  0.15108  0.31078  0.36324  1.0000 -0.0697980714
C   C178      1.0  0.03783  0.90108  0.34030  1.0000 -0.0697980714
C   C179      1.0  0.94754  0.78783  0.63675  1.0000 -0.0697980714
C   C180      1.0  0.56078  0.69754  0.65970  1.0000 -0.0697980714
C   C181      1.0  0.09892  0.43922  0.13675  1.0000 -0.0697980714
C   C182      1.0  0.21216  0.84892  0.15970  1.0000 -0.0697980714
C   C183      1.0  0.30247  0.96217  0.86325  1.0000 -0.0697980714
C   C184      1.0  0.68922  0.05246  0.84030  1.0000 -0.0697980714
C   C185      1.0  0.20456  0.34109  0.32843  1.0000 0.5784638504
C   C186      1.0  0.12612  0.95456  0.36347  1.0000 0.5784638504
C   C187      1.0  0.01266  0.87613  0.67156  1.0000 0.5784638504
C   C188      1.0  0.59109  0.76265  0.63653  1.0000 0.5784638504
C   C189      1.0  0.04544  0.40891  0.17156  1.0000 0.5784638504
C   C190      1.0  0.12388  0.79544  0.13653  1.0000 0.5784638504
C   C191      1.0  0.23735  0.87387  0.82844  1.0000 0.5784638504
C   C192      1.0  0.65891  0.98734  0.86347  1.0000 0.5784638504
C   C193      1.0  0.73908  0.79626  0.35013  1.0000 0.5784638504
C   C194      1.0  0.63896  0.48908  0.44282  1.0000 0.5784638504
C   C195      1.0  0.44614  0.38895  0.64987  1.0000 0.5784638504
C   C196      1.0  0.04626  0.19614  0.55718  1.0000 0.5784638504
C   C197      1.0  0.51092  0.95374  0.14988  1.0000 0.5784638504
C   C198      1.0  0.61104  0.26092  0.05718  1.0000 0.5784638504
C   C199      1.0  0.80387  0.36105  0.85013  1.0000 0.5784638504
C   C200      1.0  0.20374  0.55387  0.94282  1.0000 0.5784638504
C   C201      1.0  0.68006  0.73233  0.38838  1.0000 -0.078979131
C   C202      1.0  0.54169  0.43006  0.44773  1.0000 -0.078979131
C   C203      1.0  0.34395  0.29168  0.61162  1.0000 -0.078979131
C   C204      1.0  0.98233  0.09395  0.55227  1.0000 -0.078979131
C   C205      1.0  0.56994  0.01767  0.11163  1.0000 -0.078979131
C   C206      1.0  0.70832  0.31994  0.05227  1.0000 -0.078979131
C   C207      1.0  0.90604  0.45832  0.88838  1.0000 -0.078979131
C   C208      1.0  0.26767  0.65604  0.94773  1.0000 -0.078979131
C   C209      1.0  0.65180  0.73901  0.41239  1.0000 -0.0510789016
C   C210      1.0  0.48940  0.40180  0.41279  1.0000 -0.0510789016
C   C211      1.0  0.32661  0.23940  0.58761  1.0000 -0.0510789016
C   C212      1.0  0.98901  0.07661  0.58721  1.0000 -0.0510789016
C   C213      1.0  0.59820  0.01099  0.08760  1.0000 -0.0510789016
C   C214      1.0  0.76060  0.34820  0.08721  1.0000 -0.0510789016
C   C215      1.0  0.92339  0.51060  0.91239  1.0000 -0.0510789016
C   C216      1.0  0.26099  0.67339  0.91279  1.0000 -0.0510789016
C   C217      1.0  0.60560  0.69061  0.44879  1.0000 -0.1498685426
C   C218      1.0  0.40680  0.35560  0.41499  1.0000 -0.1498685426
C   C219      1.0  0.24181  0.15680  0.55120  1.0000 -0.1498685426
C   C220      1.0  0.94061  0.99181  0.58501  1.0000 -0.1498685426
C   C221      1.0  0.64440  0.05939  0.05121  1.0000 -0.1498685426
C   C222      1.0  0.84320  0.39440  0.08501  1.0000 -0.1498685426
C   C223      1.0  0.00818  0.59319  0.94880  1.0000 -0.1498685426
C   C224      1.0  0.30939  0.75818  0.91499  1.0000 -0.1498685426
C   C225      1.0  0.60200  0.64721  0.46080  1.0000 0.0832501667
C   C226      1.0  0.39121  0.35200  0.45479  1.0000 0.0832501667
C   C227      1.0  0.18641  0.14120  0.53920  1.0000 0.0832501667
C   C228      1.0  0.89721  0.93641  0.54521  1.0000 0.0832501667
C   C229      1.0  0.64800  0.10279  0.03920  1.0000 0.0832501667
C   C230      1.0  0.85879  0.39800  0.04521  1.0000 0.0832501667
C   C231      1.0  0.06358  0.60879  0.96079  1.0000 0.0832501667
C   C232      1.0  0.35279  0.81359  0.95479  1.0000 0.0832501667
C   C233      1.0  0.65797  0.67431  0.40187  1.0000 0.159985752
C   C234      1.0  0.50611  0.40797  0.48366  1.0000 0.159985752
C   C235      1.0  0.27244  0.25611  0.59813  1.0000 0.159985752
C   C236      1.0  0.92431  0.02245  0.51634  1.0000 0.159985752
C   C237      1.0  0.59203  0.07569  0.09814  1.0000 0.159985752
C   C238      1.0  0.74389  0.34203  0.01634  1.0000 0.159985752
C   C239      1.0  0.97756  0.49389  0.90187  1.0000 0.159985752
C   C240      1.0  0.32569  0.72755  0.98366  1.0000 0.159985752
C   C241      1.0  0.66887  0.64701  0.37687  1.0000 0.1461036545
C   C242      1.0  0.54200  0.41887  0.52186  1.0000 0.1461036545
C   C243      1.0  0.27015  0.29201  0.62313  1.0000 0.1461036545
C   C244      1.0  0.89701  0.02014  0.47814  1.0000 0.1461036545
C   C245      1.0  0.58113  0.10299  0.12313  1.0000 0.1461036545
C   C246      1.0  0.70800  0.33113  0.97814  1.0000 0.1461036545
C   C247      1.0  0.97985  0.45799  0.87687  1.0000 0.1461036545
C   C248      1.0  0.35299  0.72986  0.02186  1.0000 0.1461036545
C   C249      1.0  0.74650  0.65511  0.37219  1.0000 0.0601499953
C   C250      1.0  0.62430  0.49650  0.59139  1.0000 0.0601499953
C   C251      1.0  0.28292  0.37430  0.62780  1.0000 0.0601499953
C   C252      1.0  0.90511  0.03291  0.40861  1.0000 0.0601499953
C   C253      1.0  0.50350  0.09489  0.12781  1.0000 0.0601499953
C   C254      1.0  0.62570  0.25350  0.90861  1.0000 0.0601499953
C   C255      1.0  0.96708  0.37569  0.87219  1.0000 0.0601499953
C   C256      1.0  0.34489  0.71708  0.09139  1.0000 0.0601499953
C   C257      1.0  0.67895  0.58281  0.33554  1.0000 -0.1498685426
C   C258      1.0  0.59341  0.42895  0.59614  1.0000 -0.1498685426
C   C259      1.0  0.24727  0.34341  0.66446  1.0000 -0.1498685426
C   C260      1.0  0.83281  0.99726  0.40386  1.0000 -0.1498685426
C   C261      1.0  0.57105  0.16719  0.16445  1.0000 -0.1498685426
C   C262      1.0  0.65660  0.32105  0.90386  1.0000 -0.1498685426
C   C263      1.0  0.00273  0.40659  0.83554  1.0000 -0.1498685426
C   C264      1.0  0.41719  0.75273  0.09614  1.0000 -0.1498685426
C   C265      1.0  0.60515  0.54321  0.31774  1.0000 -0.1003242914
C   C266      1.0  0.53741  0.35515  0.56194  1.0000 -0.1003242914
C   C267      1.0  0.22547  0.28741  0.68225  1.0000 -0.1003242914
C   C268      1.0  0.79321  0.97547  0.43806  1.0000 -0.1003242914
C   C269      1.0  0.64485  0.20679  0.18226  1.0000 -0.1003242914
C   C270      1.0  0.71259  0.39485  0.93806  1.0000 -0.1003242914
C   C271      1.0  0.02453  0.46259  0.81774  1.0000 -0.1003242914
C   C272      1.0  0.45679  0.77453  0.06194  1.0000 -0.1003242914
C   C273      1.0  0.59710  0.57319  0.33887  1.0000 -0.078979131
C   C274      1.0  0.50823  0.34710  0.52391  1.0000 -0.078979131
C   C275      1.0  0.23432  0.25822  0.66112  1.0000 -0.078979131
C   C276      1.0  0.82319  0.98431  0.47609  1.0000 -0.078979131
C   C277      1.0  0.65290  0.17681  0.16112  1.0000 -0.078979131
C   C278      1.0  0.74177  0.40290  0.97609  1.0000 -0.078979131
C   C279      1.0  0.01568  0.49177  0.83887  1.0000 -0.078979131
C   C280      1.0  0.42681  0.76568  0.02391  1.0000 -0.078979131
C   C281      1.0  0.50716  0.51865  0.31960  1.0000 0.5658250916
C   C282      1.0  0.43757  0.25716  0.48851  1.0000 0.5658250916
C   C283      1.0  0.19906  0.18757  0.68041  1.0000 0.5658250916
C   C284      1.0  0.76865  0.94905  0.51149  1.0000 0.5658250916
C   C285      1.0  0.74284  0.23135  0.18041  1.0000 0.5658250916
C   C286      1.0  0.81244  0.49284  0.01149  1.0000 0.5658250916
C   C287      1.0  0.05094  0.56243  0.81959  1.0000 0.5658250916
C   C288      1.0  0.48135  0.80094  0.98851  1.0000 0.5658250916
C   C289      1.0  0.09830  0.11143  0.26151  1.0000 0.6743348929
C   C290      1.0  0.08679  0.84830  0.48687  1.0000 0.6743348929
C   C291      1.0  0.84991  0.83678  0.73848  1.0000 0.6743348929
C   C292      1.0  0.36143  0.59991  0.51313  1.0000 0.6743348929
C   C293      1.0  0.15170  0.63857  0.23848  1.0000 0.6743348929
C   C294      1.0  0.16321  0.90170  0.01313  1.0000 0.6743348929
C   C295      1.0  0.40009  0.91321  0.76152  1.0000 0.6743348929
C   C296      1.0  0.88857  0.15008  0.98687  1.0000 0.6743348929
C   C297      1.0  0.13607  0.10380  0.25345  1.0000 -0.0874734173
C   C298      1.0  0.13262  0.88607  0.53227  1.0000 -0.0874734173
C   C299      1.0  0.85034  0.88261  0.74654  1.0000 -0.0874734173
C   C300      1.0  0.35380  0.60035  0.46773  1.0000 -0.0874734173
C   C301      1.0  0.11393  0.64620  0.24654  1.0000 -0.0874734173
C   C302      1.0  0.11739  0.86393  0.96773  1.0000 -0.0874734173
C   C303      1.0  0.39966  0.86738  0.75345  1.0000 -0.0874734173
C   C304      1.0  0.89620  0.14966  0.03227  1.0000 -0.0874734173
C   C305      1.0  0.24147  0.18782  0.27687  1.0000 -0.0591991463
C   C306      1.0  0.21460  0.99147  0.55365  1.0000 -0.0591991463
C   C307      1.0  0.91095  0.96459  0.72313  1.0000 -0.0591991463
C   C308      1.0  0.43782  0.66095  0.44635  1.0000 -0.0591991463
C   C309      1.0  0.00853  0.56218  0.22312  1.0000 -0.0591991463
C   C310      1.0  0.03541  0.75853  0.94635  1.0000 -0.0591991463
C   C311      1.0  0.33905  0.78541  0.77687  1.0000 -0.0591991463
C   C312      1.0  0.81218  0.08906  0.05365  1.0000 -0.0591991463
C   C313      1.0  0.26820  0.17276  0.27435  1.0000 -0.1498685426
C   C314      1.0  0.24386  0.01820  0.59544  1.0000 -0.1498685426
C   C315      1.0  0.89841  0.99385  0.72565  1.0000 -0.1498685426
C   C316      1.0  0.42276  0.64841  0.40456  1.0000 -0.1498685426
C   C317      1.0  0.98180  0.57724  0.22565  1.0000 -0.1498685426
C   C318      1.0  0.00614  0.73180  0.90456  1.0000 -0.1498685426
C   C319      1.0  0.35158  0.75614  0.77434  1.0000 -0.1498685426
C   C320      1.0  0.82724  0.10158  0.09544  1.0000 -0.1498685426
C   C321      1.0  0.18617  0.07023  0.25059  1.0000 0.0601499953
C   C322      1.0  0.18559  0.93617  0.61594  1.0000 0.0601499953
C   C323      1.0  0.81964  0.93558  0.74942  1.0000 0.0601499953
C   C324      1.0  0.32023  0.56964  0.38406  1.0000 0.0601499953
C   C325      1.0  0.06383  0.67977  0.24941  1.0000 0.0601499953
C   C326      1.0  0.06442  0.81383  0.88406  1.0000 0.0601499953
C   C327      1.0  0.43035  0.81442  0.75058  1.0000 0.0601499953
C   C328      1.0  0.92977  0.18035  0.11594  1.0000 0.0601499953
C   C329      1.0  0.06252  0.00740  0.22651  1.0000 0.159985752
C   C330      1.0  0.08601  0.81252  0.55512  1.0000 0.159985752
C   C331      1.0  0.78090  0.83601  0.77350  1.0000 0.159985752
C   C332      1.0  0.25740  0.53089  0.44488  1.0000 0.159985752
C   C333      1.0  0.18748  0.74260  0.27349  1.0000 0.159985752
C   C334      1.0  0.16398  0.93748  0.94488  1.0000 0.159985752
C   C335      1.0  0.46910  0.91399  0.72650  1.0000 0.159985752
C   C336      1.0  0.99260  0.21910  0.05512  1.0000 0.159985752
C   C337      1.0  0.95300  0.91508  0.19546  1.0000 0.1386101228
C   C338      1.0  0.00754  0.70300  0.53792  1.0000 0.1386101228
C   C339      1.0  0.71962  0.75753  0.80454  1.0000 0.1386101228
C   C340      1.0  0.16508  0.46962  0.46208  1.0000 0.1386101228
C   C341      1.0  0.29700  0.83492  0.30454  1.0000 0.1386101228
C   C342      1.0  0.24247  0.04700  0.96208  1.0000 0.1386101228
C   C343      1.0  0.53038  0.99246  0.69546  1.0000 0.1386101228
C   C344      1.0  0.08492  0.28038  0.03792  1.0000 0.1386101228
C   C345      1.0  0.75786  0.71054  0.16539  1.0000 0.0601499953
C   C346      1.0  0.84247  0.50786  0.54732  1.0000 0.0601499953
C   C347      1.0  0.54515  0.59247  0.83461  1.0000 0.0601499953
C   C348      1.0  0.96054  0.29515  0.45268  1.0000 0.0601499953
C   C349      1.0  0.49214  0.03946  0.33461  1.0000 0.0601499953
C   C350      1.0  0.40752  0.24214  0.95268  1.0000 0.0601499953
C   C351      1.0  0.70484  0.15752  0.66539  1.0000 0.0601499953
C   C352      1.0  0.28946  0.45485  0.04732  1.0000 0.0601499953
C   C353      1.0  0.74386  0.72925  0.14009  1.0000 -0.1099355874
C   C354      1.0  0.85376  0.49386  0.51461  1.0000 -0.1099355874
C   C355      1.0  0.58916  0.60376  0.85991  1.0000 -0.1099355874
C   C356      1.0  0.97925  0.33915  0.48539  1.0000 -0.1099355874
C   C357      1.0  0.50614  0.02075  0.35990  1.0000 -0.1099355874
C   C358      1.0  0.39624  0.25614  0.98539  1.0000 -0.1099355874
C   C359      1.0  0.66085  0.14623  0.64009  1.0000 -0.1099355874
C   C360      1.0  0.27075  0.41085  0.01461  1.0000 -0.1099355874
C   C361      1.0  0.83936  0.84628  0.14242  1.0000 -0.0510789016
C   C362      1.0  0.94694  0.58936  0.49308  1.0000 -0.0510789016
C   C363      1.0  0.70386  0.69693  0.85757  1.0000 -0.0510789016
C   C364      1.0  0.09628  0.45385  0.50692  1.0000 -0.0510789016
C   C365      1.0  0.41064  0.90372  0.35757  1.0000 -0.0510789016
C   C366      1.0  0.30306  0.16064  0.00692  1.0000 -0.0510789016
C   C367      1.0  0.54615  0.05307  0.64243  1.0000 -0.0510789016
C   C368      1.0  0.15372  0.29614  0.99308  1.0000 -0.0510789016
C   C369      1.0  0.94662  0.94241  0.17061  1.0000 -0.0591991463
C   C370      1.0  0.02600  0.69662  0.50421  1.0000 -0.0591991463
C   C371      1.0  0.77180  0.77600  0.82939  1.0000 -0.0591991463
C   C372      1.0  0.19241  0.52179  0.49579  1.0000 -0.0591991463
C   C373      1.0  0.30338  0.80759  0.32938  1.0000 -0.0591991463
C   C374      1.0  0.22400  0.05338  0.99579  1.0000 -0.0591991463
C   C375      1.0  0.47820  0.97399  0.67061  1.0000 -0.0591991463
C   C376      1.0  0.05759  0.22820  0.00421  1.0000 -0.0591991463
C   C377      1.0  0.05063  0.07117  0.17158  1.0000 0.5524777862
C   C378      1.0  0.12905  0.80063  0.47946  1.0000 0.5524777862
C   C379      1.0  0.89958  0.87904  0.82842  1.0000 0.5524777862
C   C380      1.0  0.32117  0.64958  0.52054  1.0000 0.5524777862
C   C381      1.0  0.19937  0.67883  0.32842  1.0000 0.5524777862
C   C382      1.0  0.12096  0.94937  0.02054  1.0000 0.5524777862
C   C383      1.0  0.35041  0.87096  0.67158  1.0000 0.5524777862
C   C384      1.0  0.92883  0.10041  0.97946  1.0000 0.5524777862
N   N1        1.0  0.85943  0.79996  0.19278  1.0000 -0.2505887241
N   N2        1.0  0.91665  0.60943  0.55947  1.0000 -0.2505887241
N   N3        1.0  0.60718  0.66667  0.80722  1.0000 -0.2505887241
N   N4        1.0  0.04996  0.35718  0.44053  1.0000 -0.2505887241
N   N5        1.0  0.39057  0.95004  0.30723  1.0000 -0.2505887241
N   N6        1.0  0.33333  0.14057  0.94053  1.0000 -0.2505887241
N   N7        1.0  0.64281  0.08334  0.69277  1.0000 -0.2505887241
N   N8        1.0  0.20004  0.39282  0.05947  1.0000 -0.2505887241
N   N9        1.0  0.08449  0.98780  0.22667  1.0000 -0.2601580819
N   N10       1.0  0.10781  0.83449  0.59669  1.0000 -0.2601580819
N   N11       1.0  0.76113  0.85781  0.77333  1.0000 -0.2601580819
N   N12       1.0  0.23780  0.51113  0.40331  1.0000 -0.2601580819
N   N13       1.0  0.16551  0.76220  0.27332  1.0000 -0.2601580819
N   N14       1.0  0.14219  0.91551  0.90331  1.0000 -0.2601580819
N   N15       1.0  0.48888  0.89219  0.72667  1.0000 -0.2601580819
N   N16       1.0  0.01220  0.23888  0.09669  1.0000 -0.2601580819
N   N17       1.0  0.74715  0.69111  0.39444  1.0000 -0.2601580819
N   N18       1.0  0.60271  0.49715  0.55604  1.0000 -0.2601580819
N   N19       1.0  0.29667  0.35270  0.60555  1.0000 -0.2601580819
N   N20       1.0  0.94111  0.04666  0.44396  1.0000 -0.2601580819
N   N21       1.0  0.50285  0.05889  0.10555  1.0000 -0.2601580819
N   N22       1.0  0.64729  0.25285  0.94396  1.0000 -0.2601580819
N   N23       1.0  0.95334  0.39730  0.89445  1.0000 -0.2601580819
N   N24       1.0  0.30889  0.70334  0.05604  1.0000 -0.2601580819
N   N25       1.0  0.62581  0.63732  0.43851  1.0000 -0.2601580819
N   N26       1.0  0.43729  0.37581  0.48849  1.0000 -0.2601580819
N   N27       1.0  0.19881  0.18729  0.56149  1.0000 -0.2601580819
N   N28       1.0  0.88732  0.94881  0.51151  1.0000 -0.2601580819
N   N29       1.0  0.62419  0.11268  0.06148  1.0000 -0.2601580819
N   N30       1.0  0.81271  0.37419  0.01151  1.0000 -0.2601580819
N   N31       1.0  0.05120  0.56271  0.93851  1.0000 -0.2601580819
N   N32       1.0  0.36268  0.80119  0.98849  1.0000 -0.2601580819
N   N33       1.0  0.40285  0.60198  0.14322  1.0000 -0.2505887241
N   N34       1.0  0.50963  0.15285  0.30087  1.0000 -0.2505887241
N   N35       1.0  0.45877  0.25964  0.85679  1.0000 -0.2505887241
N   N36       1.0  0.85198  0.20876  0.69913  1.0000 -0.2505887241
N   N37       1.0  0.84715  0.14802  0.35679  1.0000 -0.2505887241
N   N38       1.0  0.74037  0.59715  0.19913  1.0000 -0.2505887241
N   N39       1.0  0.79124  0.49036  0.64321  1.0000 -0.2505887241
N   N40       1.0  0.39802  0.54124  0.80087  1.0000 -0.2505887241
N   N41       1.0  0.23036  0.38158  0.13633  1.0000 -0.2505887241
N   N42       1.0  0.34404  0.98036  0.34878  1.0000 -0.2505887241
N   N43       1.0  0.24525  0.09403  0.86367  1.0000 -0.2505887241
N   N44       1.0  0.63158  0.99526  0.65122  1.0000 -0.2505887241
N   N45       1.0  0.01964  0.36842  0.36368  1.0000 -0.2505887241
N   N46       1.0  0.90597  0.76964  0.15122  1.0000 -0.2505887241
N   N47       1.0  0.00475  0.65597  0.63633  1.0000 -0.2505887241
N   N48       1.0  0.61842  0.75474  0.84878  1.0000 -0.2505887241
N   N49       1.0  0.04466  0.30361  0.31805  1.0000 -0.2505887241
N   N50       1.0  0.97660  0.79466  0.24105  1.0000 -0.2505887241
N   N51       1.0  0.98555  0.72660  0.68195  1.0000 -0.2505887241
N   N52       1.0  0.55361  0.73555  0.75895  1.0000 -0.2505887241
N   N53       1.0  0.20534  0.44639  0.18194  1.0000 -0.2505887241
N   N54       1.0  0.27339  0.95534  0.25895  1.0000 -0.2505887241
N   N55       1.0  0.26445  0.02339  0.81805  1.0000 -0.2505887241
N   N56       1.0  0.69639  0.01445  0.74105  1.0000 -0.2505887241
N   N57       1.0  0.05204  0.27412  0.39134  1.0000 -0.2505887241
N   N58       1.0  0.91070  0.80204  0.27792  1.0000 -0.2505887241
N   N59       1.0  0.88278  0.66070  0.60865  1.0000 -0.2505887241
N   N60       1.0  0.52412  0.63277  0.72208  1.0000 -0.2505887241
N   N61       1.0  0.19796  0.47588  0.10866  1.0000 -0.2505887241
N   N62       1.0  0.33931  0.94796  0.22208  1.0000 -0.2505887241
N   N63       1.0  0.36723  0.08931  0.89135  1.0000 -0.2505887241
N   N64       1.0  0.72588  0.11722  0.77792  1.0000 -0.2505887241
O   O1        1.0  0.60500  0.69413  0.15011  1.0000 -0.5741302503
O   O2        1.0  0.70488  0.35500  0.41087  1.0000 -0.5741302503
O   O3        1.0  0.54402  0.45488  0.84989  1.0000 -0.5741302503
O   O4        1.0  0.94413  0.29402  0.58913  1.0000 -0.5823723275
O   O5        1.0  0.64500  0.05587  0.34989  1.0000 -0.5741302503
O   O6        1.0  0.54512  0.39500  0.08913  1.0000 -0.5741302503
O   O7        1.0  0.70598  0.29511  0.65011  1.0000 -0.5741302503
O   O8        1.0  0.30587  0.45598  0.91087  1.0000 -0.5741302503
O   O9        1.0  0.53712  0.57626  0.17856  1.0000 -0.5600507577
O   O10       1.0  0.60855  0.28712  0.46086  1.0000 -0.5600507577
O   O11       1.0  0.39770  0.35856  0.82144  1.0000 -0.5600507577
O   O12       1.0  0.82626  0.14769  0.53914  1.0000 -0.5600507577
O   O13       1.0  0.71288  0.17374  0.32143  1.0000 -0.5600507577
O   O14       1.0  0.64145  0.46288  0.03914  1.0000 -0.5600507577
O   O15       1.0  0.85230  0.39145  0.67856  1.0000 -0.5600507577
O   O16       1.0  0.42374  0.60230  0.96086  1.0000 -0.5600507577
O   O17       1.0  0.63742  0.75450  0.25371  1.0000 -0.6728107018
O   O18       1.0  0.63372  0.38742  0.38292  1.0000 -0.6728107018
O   O19       1.0  0.50079  0.38371  0.74630  1.0000 -0.6728107018
O   O20       1.0  0.00450  0.25079  0.61708  1.0000 -0.6728107018
O   O21       1.0  0.61258  0.99550  0.24629  1.0000 -0.6728107018
O   O22       1.0  0.61628  0.36258  0.11708  1.0000 -0.6728107018
O   O23       1.0  0.74921  0.36629  0.75370  1.0000 -0.6728107018
O   O24       1.0  0.24550  0.49920  0.88292  1.0000 -0.6728107018
O   O25       1.0  0.43852  0.55127  0.23537  1.0000 -0.6820730624
O   O26       1.0  0.45314  0.18852  0.38725  1.0000 -0.6820730624
O   O27       1.0  0.31589  0.20314  0.76462  1.0000 -0.6820730624
O   O28       1.0  0.80127  0.06590  0.61275  1.0000 -0.6820730624
O   O29       1.0  0.81148  0.19873  0.26462  1.0000 -0.6820730624
O   O30       1.0  0.79685  0.56148  0.11275  1.0000 -0.6820730624
O   O31       1.0  0.93410  0.54685  0.73537  1.0000 -0.6820730624
O   O32       1.0  0.44873  0.68410  0.88725  1.0000 -0.6820730624
O   O33       1.0  0.52792  0.55497  0.28768  1.0000 -0.618860243
O   O34       1.0  0.49025  0.27792  0.47295  1.0000 -0.618860243
O   O35       1.0  0.26730  0.24025  0.71232  1.0000 -0.618860243
O   O36       1.0  0.80497  0.01729  0.52705  1.0000 -0.618860243
O   O37       1.0  0.72208  0.19503  0.21233  1.0000 -0.618860243
O   O38       1.0  0.75976  0.47208  0.02705  1.0000 -0.618860243
O   O39       1.0  0.98271  0.50975  0.78768  1.0000 -0.618860243
O   O40       1.0  0.44503  0.73270  0.97295  1.0000 -0.618860243
O   O41       1.0  0.41249  0.43681  0.33388  1.0000 -0.5875683186
O   O42       1.0  0.32860  0.16249  0.47568  1.0000 -0.5875683186
O   O43       1.0  0.10293  0.07860  0.66612  1.0000 -0.5875683186
O   O44       1.0  0.68681  0.85293  0.52432  1.0000 -0.5875683186
O   O45       1.0  0.83751  0.31319  0.16612  1.0000 -0.5875683186
O   O46       1.0  0.92140  0.58751  0.02432  1.0000 -0.5875683186
O   O47       1.0  0.14707  0.67139  0.83388  1.0000 -0.5875683186
O   O48       1.0  0.56319  0.89707  0.97568  1.0000 -0.5875683186
O   O49       1.0  0.23296  0.38789  0.30063  1.0000 -0.6002544892
O   O50       1.0  0.18232  0.98296  0.34507  1.0000 -0.6002544892
O   O51       1.0  0.08725  0.93232  0.69936  1.0000 -0.6002544892
O   O52       1.0  0.63789  0.83725  0.65493  1.0000 -0.6002544892
O   O53       1.0  0.01704  0.36211  0.19936  1.0000 -0.6002544892
O   O54       1.0  0.06768  0.76704  0.15493  1.0000 -0.6002544892
O   O55       1.0  0.16275  0.81768  0.80063  1.0000 -0.6002544892
O   O56       1.0  0.61211  0.91274  0.84507  1.0000 -0.6002544892
O   O57       1.0  0.22015  0.31763  0.33076  1.0000 -0.6326448453
O   O58       1.0  0.13938  0.97015  0.40252  1.0000 -0.6326448453
O   O59       1.0  0.98686  0.88939  0.66924  1.0000 -0.6326448453
O   O60       1.0  0.56763  0.73687  0.59748  1.0000 -0.6326448453
O   O61       1.0  0.02985  0.43237  0.16923  1.0000 -0.6326448453
O   O62       1.0  0.11061  0.77985  0.09748  1.0000 -0.6326448453
O   O63       1.0  0.26314  0.86062  0.83076  1.0000 -0.6326448453
O   O64       1.0  0.68237  0.01313  0.90252  1.0000 -0.6326448453
O   O65       1.0  0.18152  0.21504  0.27254  1.0000 -0.6600740535
O   O66       1.0  0.15898  0.93152  0.46648  1.0000 -0.6600740535
O   O67       1.0  0.94249  0.90897  0.72745  1.0000 -0.6600740535
O   O68       1.0  0.46504  0.69249  0.53352  1.0000 -0.6600740535
O   O69       1.0  0.06848  0.53496  0.22745  1.0000 -0.6600740535
O   O70       1.0  0.09102  0.81848  0.03352  1.0000 -0.6600740535
O   O71       1.0  0.30750  0.84102  0.77255  1.0000 -0.6600740535
O   O72       1.0  0.78496  0.05751  0.96648  1.0000 -0.6600740535
O   O73       1.0  0.98475  0.01057  0.25770  1.0000 -0.686332835
O   O74       1.0  0.97705  0.73475  0.47418  1.0000 -0.686332835
O   O75       1.0  0.75287  0.72705  0.74230  1.0000 -0.686332835
O   O76       1.0  0.26057  0.50287  0.52582  1.0000 -0.686332835
O   O77       1.0  0.26525  0.73943  0.24230  1.0000 -0.686332835
O   O78       1.0  0.27296  0.01525  0.02582  1.0000 -0.686332835
O   O79       1.0  0.49714  0.02296  0.75770  1.0000 -0.686332835
O   O80       1.0  0.98943  0.24713  0.97418  1.0000 -0.686332835
O   O81       1.0  0.84670  0.00320  0.30589  1.0000 -0.6002544892
O   O82       1.0  0.79082  0.59670  0.34350  1.0000 -0.6002544892
O   O83       1.0  0.69732  0.54082  0.69412  1.0000 -0.6002544892
O   O84       1.0  0.25320  0.44732  0.65650  1.0000 -0.6002544892
O   O85       1.0  0.40330  0.74680  0.19412  1.0000 -0.6002544892
O   O86       1.0  0.45919  0.15330  0.15650  1.0000 -0.6002544892
O   O87       1.0  0.55268  0.20918  0.80588  1.0000 -0.6002544892
O   O88       1.0  0.99680  0.30268  0.84350  1.0000 -0.6002544892
O   O89       1.0  0.96980  0.10026  0.26384  1.0000 -0.618860243
O   O90       1.0  0.95595  0.71980  0.36954  1.0000 -0.618860243
O   O91       1.0  0.83642  0.70595  0.73616  1.0000 -0.618860243
O   O92       1.0  0.35026  0.58641  0.63046  1.0000 -0.618860243
O   O93       1.0  0.28020  0.64974  0.23615  1.0000 -0.618860243
O   O94       1.0  0.29405  0.03020  0.13046  1.0000 -0.618860243
O   O95       1.0  0.41359  0.04405  0.76384  1.0000 -0.618860243
O   O96       1.0  0.89974  0.16359  0.86954  1.0000 -0.618860243
O   O97       1.0  0.80735  0.83522  0.33695  1.0000 -0.6109317747
O   O98       1.0  0.72040  0.55735  0.47213  1.0000 -0.6109317747
O   O99       1.0  0.49827  0.47040  0.66304  1.0000 -0.6109317747
O   O100      1.0  0.08522  0.24827  0.52787  1.0000 -0.6109317747
O   O101      1.0  0.44265  0.91478  0.16304  1.0000 -0.6109317747
O   O102      1.0  0.52961  0.19265  0.02787  1.0000 -0.6109317747
O   O103      1.0  0.75174  0.27960  0.83696  1.0000 -0.6109317747
O   O104      1.0  0.16478  0.50173  0.97213  1.0000 -0.6109317747
O   O105      1.0  0.71951  0.81078  0.33508  1.0000 -0.5741302503
O   O106      1.0  0.63443  0.46951  0.40873  1.0000 -0.5741302503
O   O107      1.0  0.47570  0.38444  0.66492  1.0000 -0.5741302503
O   O108      1.0  0.06078  0.22571  0.59127  1.0000 -0.5741302503
O   O109      1.0  0.53049  0.93922  0.16492  1.0000 -0.5741302503
O   O110      1.0  0.61557  0.28049  0.09127  1.0000 -0.5741302503
O   O111      1.0  0.77430  0.36556  0.83508  1.0000 -0.5741302503
O   O112      1.0  0.18922  0.52429  0.90873  1.0000 -0.5741302503
O   O113      1.0  0.15602  0.15649  0.17169  1.0000 -0.5823723275
O   O114      1.0  0.23433  0.90602  0.49953  1.0000 -0.5823723275
O   O115      1.0  0.98479  0.98432  0.82830  1.0000 -0.5823723275
O   O116      1.0  0.40649  0.73479  0.50047  1.0000 -0.5823723275
O   O117      1.0  0.09398  0.59351  0.32831  1.0000 -0.5823723275
O   O118      1.0  0.01567  0.84398  0.00047  1.0000 -0.5823723275
O   O119      1.0  0.26521  0.76567  0.67170  1.0000 -0.5823723275
O   O120      1.0  0.84351  0.01521  0.99953  1.0000 -0.5823723275
O   O121      1.0  0.02176  0.08027  0.17302  1.0000 -0.5600507577
O   O122      1.0  0.09875  0.77176  0.44149  1.0000 -0.5600507577
O   O123      1.0  0.90726  0.84875  0.82698  1.0000 -0.5600507577
O   O124      1.0  0.33027  0.65726  0.55851  1.0000 -0.5600507577
O   O125      1.0  0.22824  0.66973  0.32699  1.0000 -0.5600507577
O   O126      1.0  0.15125  0.97824  0.05851  1.0000 -0.5600507577
O   O127      1.0  0.34275  0.90126  0.67302  1.0000 -0.5600507577
O   O128      1.0  0.91973  0.09274  0.94149  1.0000 -0.5600507577
