# DDEC6 charges by PACMAN v1.1 (https://github.com/mtap-research/PACMAN-charge/)
data_2013[Zn][nan]3[ASR]4
_chemical_formula_sum              "Zn16 H56 C120 O52"
_cell_length_a       12.181
_cell_length_b       18.478
_cell_length_c       23.055
_cell_angle_alpha    90
_cell_angle_beta     90
_cell_angle_gamma    90

_symmetry_space_group_name_H-M    "P 1"
_symmetry_Int_Tables_number       1

loop_
  _symmetry_equiv_pos_as_xyz
  'x, y, z'

loop_
  _atom_site_type_symbol
  _atom_site_label
  _atom_site_symmetry_multiplicity
  _atom_site_fract_x
  _atom_site_fract_y
  _atom_site_fract_z
  _atom_site_occupancy
  _atom_site_charge
Zn  Zn1       1.0  0.01246  0.04917  0.43567  1.0000 0.9943881646
Zn  Zn2       1.0  0.48754  0.95083  0.93567  1.0000 0.9943881646
Zn  Zn3       1.0  0.98754  0.54917  0.06433  1.0000 0.9943881646
Zn  Zn4       1.0  0.51246  0.45083  0.56433  1.0000 0.9943881646
Zn  Zn5       1.0  0.01206  0.95014  0.54952  1.0000 0.9669101551
Zn  Zn6       1.0  0.48794  0.04986  0.04952  1.0000 0.960567913
Zn  Zn7       1.0  0.98794  0.45014  0.95048  1.0000 0.960567913
Zn  Zn8       1.0  0.51206  0.54986  0.45048  1.0000 0.9669101551
Zn  Zn9       1.0  0.18362  0.92020  0.45422  1.0000 0.960567913
Zn  Zn10      1.0  0.31638  0.07980  0.95422  1.0000 0.960567913
Zn  Zn11      1.0  0.81638  0.42020  0.04578  1.0000 0.960567913
Zn  Zn12      1.0  0.68362  0.57980  0.54578  1.0000 0.960567913
Zn  Zn13      1.0  0.18853  0.06982  0.53798  1.0000 0.9532497987
Zn  Zn14      1.0  0.31147  0.93018  0.03798  1.0000 0.9532497987
Zn  Zn15      1.0  0.81147  0.56982  0.96202  1.0000 0.9532497987
Zn  Zn16      1.0  0.68853  0.43018  0.46202  1.0000 0.9532497987
H   H1        1.0  0.79340  0.78060  0.48270  1.0000 0.1291915924
H   H2        1.0  0.70660  0.21940  0.98270  1.0000 0.1291915924
H   H3        1.0  0.20660  0.28060  0.01730  1.0000 0.1291915924
H   H4        1.0  0.29340  0.71940  0.51730  1.0000 0.1291915924
H   H5        1.0  0.58300  0.74550  0.35200  1.0000 0.1193269581
H   H6        1.0  0.91700  0.25450  0.85200  1.0000 0.1193269581
H   H7        1.0  0.41700  0.24550  0.14800  1.0000 0.1193269581
H   H8        1.0  0.08300  0.75450  0.64800  1.0000 0.1193269581
H   H9        1.0  0.75690  0.92880  0.35660  1.0000 0.1193269581
H   H10       1.0  0.74310  0.07120  0.85660  1.0000 0.1193269581
H   H11       1.0  0.24310  0.42880  0.14340  1.0000 0.1193269581
H   H12       1.0  0.25690  0.57120  0.64340  1.0000 0.1193269581
H   H13       1.0  0.56670  0.76950  0.25950  1.0000 0.1193269581
H   H14       1.0  0.93330  0.23050  0.75950  1.0000 0.1193269581
H   H15       1.0  0.43330  0.26950  0.24050  1.0000 0.1193269581
H   H16       1.0  0.06670  0.73050  0.74050  1.0000 0.1193269581
H   H17       1.0  0.46870  0.80740  0.17950  1.0000 0.1291915924
H   H18       1.0  0.03130  0.19260  0.67950  1.0000 0.1291915924
H   H19       1.0  0.53130  0.30740  0.32050  1.0000 0.1291915924
H   H20       1.0  0.96870  0.69260  0.82050  1.0000 0.1291915924
H   H21       1.0  0.53550  0.01270  0.22260  1.0000 0.1291915924
H   H22       1.0  0.96450  0.98730  0.72260  1.0000 0.1291915924
H   H23       1.0  0.46450  0.51270  0.27740  1.0000 0.1291915924
H   H24       1.0  0.03550  0.48730  0.77740  1.0000 0.1291915924
H   H25       1.0  0.62870  0.97350  0.30310  1.0000 0.1193269581
H   H26       1.0  0.87130  0.02650  0.80310  1.0000 0.1193269581
H   H27       1.0  0.37130  0.47350  0.19690  1.0000 0.1193269581
H   H28       1.0  0.12870  0.52650  0.69690  1.0000 0.1193269581
H   H29       1.0  0.32010  0.27770  0.48460  1.0000 0.1291915924
H   H30       1.0  0.17990  0.72230  0.98460  1.0000 0.1291915924
H   H31       1.0  0.67990  0.77770  0.01540  1.0000 0.1291915924
H   H32       1.0  0.82010  0.22230  0.51540  1.0000 0.1291915924
H   H33       1.0  0.26420  0.42990  0.36240  1.0000 0.1193269581
H   H34       1.0  0.23580  0.57010  0.86240  1.0000 0.1193269581
H   H35       1.0  0.73580  0.92990  0.13760  1.0000 0.1193269581
H   H36       1.0  0.76420  0.07010  0.63760  1.0000 0.1193269581
H   H37       1.0  0.11010  0.23810  0.35460  1.0000 0.1193269581
H   H38       1.0  0.38990  0.76190  0.85460  1.0000 0.1193269581
H   H39       1.0  0.88990  0.73810  0.14540  1.0000 0.1193269581
H   H40       1.0  0.61010  0.26190  0.64540  1.0000 0.1193269581
H   H41       1.0  0.10980  0.26160  0.25610  1.0000 0.1193269581
H   H42       1.0  0.39020  0.73840  0.75610  1.0000 0.1193269581
H   H43       1.0  0.89020  0.76160  0.24390  1.0000 0.1193269581
H   H44       1.0  0.60980  0.23840  0.74390  1.0000 0.1193269581
H   H45       1.0  0.00420  0.29930  0.17620  1.0000 0.1193269581
H   H46       1.0  0.49580  0.70070  0.67620  1.0000 0.1193269581
H   H47       1.0  0.99580  0.79930  0.32380  1.0000 0.1193269581
H   H48       1.0  0.50420  0.20070  0.82380  1.0000 0.1193269581
H   H49       1.0  0.02590  0.50200  0.23040  1.0000 0.1291915924
H   H50       1.0  0.47410  0.49800  0.73040  1.0000 0.1291915924
H   H51       1.0  0.97410  0.00200  0.26960  1.0000 0.1291915924
H   H52       1.0  0.52590  0.99800  0.76960  1.0000 0.1291915924
H   H53       1.0  0.12910  0.46810  0.30900  1.0000 0.1193269581
H   H54       1.0  0.37090  0.53190  0.80900  1.0000 0.1193269581
H   H55       1.0  0.87090  0.96810  0.19100  1.0000 0.1193269581
H   H56       1.0  0.62910  0.03190  0.69100  1.0000 0.1193269581
C   C1        1.0  0.78730  0.86400  0.42500  1.0000 -0.039418694
C   C2        1.0  0.71270  0.13600  0.92500  1.0000 -0.039418694
C   C3        1.0  0.21270  0.36400  0.07500  1.0000 -0.039418694
C   C4        1.0  0.28730  0.63600  0.57500  1.0000 -0.039418694
C   C5        1.0  0.76020  0.79610  0.44855  1.0000 -0.1000816881
C   C6        1.0  0.73980  0.20390  0.94855  1.0000 -0.1000816881
C   C7        1.0  0.23980  0.29610  0.05145  1.0000 -0.1000816881
C   C8        1.0  0.26020  0.70390  0.55145  1.0000 -0.1000816881
C   C9        1.0  0.68420  0.75230  0.42096  1.0000 -0.0315889496
C   C10       1.0  0.81580  0.24770  0.92096  1.0000 -0.0315889496
C   C11       1.0  0.31580  0.25230  0.07904  1.0000 -0.0315889496
C   C12       1.0  0.18420  0.74770  0.57904  1.0000 -0.0315889496
C   C13       1.0  0.63410  0.77510  0.37020  1.0000 -0.1413904339
C   C14       1.0  0.86590  0.22490  0.87020  1.0000 -0.1413904339
C   C15       1.0  0.36590  0.27510  0.12980  1.0000 -0.1413904339
C   C16       1.0  0.13410  0.72490  0.62980  1.0000 -0.1413904339
C   C17       1.0  0.65990  0.84210  0.34624  1.0000 0.0589892283
C   C18       1.0  0.84010  0.15790  0.84624  1.0000 0.0589892283
C   C19       1.0  0.34010  0.34210  0.15376  1.0000 0.0589892283
C   C20       1.0  0.15990  0.65790  0.65376  1.0000 0.0589892283
C   C21       1.0  0.73740  0.88480  0.37340  1.0000 -0.1301812291
C   C22       1.0  0.76260  0.11520  0.87340  1.0000 -0.1301812291
C   C23       1.0  0.26260  0.38480  0.12660  1.0000 -0.1301812291
C   C24       1.0  0.23740  0.61520  0.62660  1.0000 -0.1301812291
C   C25       1.0  0.86950  0.91110  0.45324  1.0000 0.5982837171
C   C26       1.0  0.63050  0.08890  0.95324  1.0000 0.5982837171
C   C27       1.0  0.13050  0.41110  0.04676  1.0000 0.5982837171
C   C28       1.0  0.36950  0.58890  0.54676  1.0000 0.5982837171
C   C29       1.0  0.65520  0.68100  0.44860  1.0000 0.6118232325
C   C30       1.0  0.84480  0.31900  0.94860  1.0000 0.6118232325
C   C31       1.0  0.34480  0.18100  0.05140  1.0000 0.6118232325
C   C32       1.0  0.15520  0.81900  0.55140  1.0000 0.6118232325
C   C33       1.0  0.60150  0.86710  0.29146  1.0000 0.0806028532
C   C34       1.0  0.89850  0.13290  0.79146  1.0000 0.0806028532
C   C35       1.0  0.39850  0.36710  0.20854  1.0000 0.0806028532
C   C36       1.0  0.10150  0.63290  0.70854  1.0000 0.0806028532
C   C37       1.0  0.55770  0.81880  0.25290  1.0000 -0.1585719719
C   C38       1.0  0.94230  0.18120  0.75290  1.0000 -0.1585719719
C   C39       1.0  0.44230  0.31880  0.24710  1.0000 -0.1585719719
C   C40       1.0  0.05770  0.68120  0.74710  1.0000 -0.1585719719
C   C41       1.0  0.50030  0.84130  0.20420  1.0000 -0.0882323965
C   C42       1.0  0.99970  0.15870  0.70420  1.0000 -0.0882323965
C   C43       1.0  0.49970  0.34130  0.29580  1.0000 -0.0882323965
C   C44       1.0  0.00030  0.65870  0.79580  1.0000 -0.0882323965
C   C45       1.0  0.49020  0.91440  0.19257  1.0000 -0.0315889496
C   C46       1.0  0.00980  0.08560  0.69257  1.0000 -0.0315889496
C   C47       1.0  0.50980  0.41440  0.30743  1.0000 -0.0315889496
C   C48       1.0  0.99020  0.58560  0.80743  1.0000 -0.0315889496
C   C49       1.0  0.53990  0.96340  0.23030  1.0000 -0.0882323965
C   C50       1.0  0.96010  0.03660  0.73030  1.0000 -0.0882323965
C   C51       1.0  0.46010  0.46340  0.26970  1.0000 -0.0882323965
C   C52       1.0  0.03990  0.53660  0.76970  1.0000 -0.0882323965
C   C53       1.0  0.59530  0.94000  0.27880  1.0000 -0.1516563356
C   C54       1.0  0.90470  0.06000  0.77880  1.0000 -0.1516563356
C   C55       1.0  0.40470  0.44000  0.22120  1.0000 -0.1516563356
C   C56       1.0  0.09530  0.56000  0.72120  1.0000 -0.1516563356
C   C57       1.0  0.43190  0.94060  0.13895  1.0000 0.5834955141
C   C58       1.0  0.06810  0.05940  0.63895  1.0000 0.5834955141
C   C59       1.0  0.56810  0.44060  0.36105  1.0000 0.5834955141
C   C60       1.0  0.93190  0.55940  0.86105  1.0000 0.5834955141
C   C61       1.0  0.21400  0.24700  0.42268  1.0000 -0.0191147022
C   C62       1.0  0.28600  0.75300  0.92268  1.0000 -0.0191147022
C   C63       1.0  0.78600  0.74700  0.07732  1.0000 -0.0191147022
C   C64       1.0  0.71400  0.25300  0.57732  1.0000 -0.0191147022
C   C65       1.0  0.28520  0.29270  0.45083  1.0000 -0.109944424
C   C66       1.0  0.21480  0.70730  0.95083  1.0000 -0.109944424
C   C67       1.0  0.71480  0.79270  0.04917  1.0000 -0.109944424
C   C68       1.0  0.78520  0.20730  0.54917  1.0000 -0.109944424
C   C69       1.0  0.30520  0.36230  0.42860  1.0000 -0.0191147022
C   C70       1.0  0.19480  0.63770  0.92860  1.0000 -0.0191147022
C   C71       1.0  0.69480  0.86230  0.07140  1.0000 -0.0191147022
C   C72       1.0  0.80520  0.13770  0.57140  1.0000 -0.0191147022
C   C73       1.0  0.25180  0.38380  0.37730  1.0000 -0.1516563356
C   C74       1.0  0.24820  0.61620  0.87730  1.0000 -0.1516563356
C   C75       1.0  0.74820  0.88380  0.12270  1.0000 -0.1516563356
C   C76       1.0  0.75180  0.11620  0.62270  1.0000 -0.1516563356
C   C77       1.0  0.18080  0.33710  0.34870  1.0000 0.052766265
C   C78       1.0  0.31920  0.66290  0.84870  1.0000 0.052766265
C   C79       1.0  0.81920  0.83710  0.15130  1.0000 0.052766265
C   C80       1.0  0.68080  0.16290  0.65130  1.0000 0.052766265
C   C81       1.0  0.16010  0.26900  0.37240  1.0000 -0.1413904339
C   C82       1.0  0.33990  0.73100  0.87240  1.0000 -0.1413904339
C   C83       1.0  0.83990  0.76900  0.12760  1.0000 -0.1413904339
C   C84       1.0  0.66010  0.23100  0.62760  1.0000 -0.1413904339
C   C85       1.0  0.18500  0.17330  0.44760  1.0000 0.5982837171
C   C86       1.0  0.31500  0.82670  0.94760  1.0000 0.5982837171
C   C87       1.0  0.81500  0.67330  0.05240  1.0000 0.5982837171
C   C88       1.0  0.68500  0.32670  0.55240  1.0000 0.5982837171
C   C89       1.0  0.38130  0.41310  0.45925  1.0000 0.5883218661
C   C90       1.0  0.11870  0.58690  0.95925  1.0000 0.5883218661
C   C91       1.0  0.61870  0.91310  0.04075  1.0000 0.5883218661
C   C92       1.0  0.88130  0.08690  0.54075  1.0000 0.5883218661
C   C93       1.0  0.12110  0.36040  0.29575  1.0000 0.0806028532
C   C94       1.0  0.37890  0.63960  0.79575  1.0000 0.0806028532
C   C95       1.0  0.87890  0.86040  0.20425  1.0000 0.0806028532
C   C96       1.0  0.62110  0.13960  0.70425  1.0000 0.0806028532
C   C97       1.0  0.08970  0.31000  0.25250  1.0000 -0.1585719719
C   C98       1.0  0.41030  0.69000  0.75250  1.0000 -0.1585719719
C   C99       1.0  0.91030  0.81000  0.24750  1.0000 -0.1585719719
C   C100      1.0  0.58970  0.19000  0.74750  1.0000 -0.1585719719
C   C101      1.0  0.02740  0.33290  0.20360  1.0000 -0.0882323965
C   C102      1.0  0.47260  0.66710  0.70360  1.0000 -0.0882323965
C   C103      1.0  0.97260  0.83290  0.29640  1.0000 -0.0882323965
C   C104      1.0  0.52740  0.16710  0.79640  1.0000 -0.0882323965
C   C105      1.0  0.00170  0.40520  0.19690  1.0000 -0.0315889496
C   C106      1.0  0.49830  0.59480  0.69690  1.0000 -0.0315889496
C   C107      1.0  0.99830  0.90520  0.30310  1.0000 -0.0315889496
C   C108      1.0  0.50170  0.09480  0.80310  1.0000 -0.0315889496
C   C109      1.0  0.04060  0.45310  0.23600  1.0000 -0.0882323965
C   C110      1.0  0.45940  0.54690  0.73600  1.0000 -0.0882323965
C   C111      1.0  0.95940  0.95310  0.26400  1.0000 -0.0882323965
C   C112      1.0  0.54060  0.04690  0.76400  1.0000 -0.0882323965
C   C113      1.0  0.10140  0.43290  0.28430  1.0000 -0.1516563356
C   C114      1.0  0.39860  0.56710  0.78430  1.0000 -0.1516563356
C   C115      1.0  0.89860  0.93290  0.21570  1.0000 -0.1516563356
C   C116      1.0  0.60140  0.06710  0.71570  1.0000 -0.1516563356
C   C117      1.0  0.93370  0.42900  0.14522  1.0000 0.5883218661
C   C118      1.0  0.56630  0.57100  0.64522  1.0000 0.5883218661
C   C119      1.0  0.06630  0.92900  0.35478  1.0000 0.5883218661
C   C120      1.0  0.43370  0.07100  0.85478  1.0000 0.5883218661
O   O1        1.0  0.11160  0.99784  0.49341  1.0000 -1.0292934462
O   O2        1.0  0.38840  0.00216  0.99341  1.0000 -1.0292934462
O   O3        1.0  0.88840  0.49784  0.00659  1.0000 -1.0292934462
O   O4        1.0  0.61160  0.50216  0.50659  1.0000 -1.0292934462
O   O5        1.0  0.88750  0.97282  0.43058  1.0000 -0.5693207219
O   O6        1.0  0.61250  0.02718  0.93058  1.0000 -0.5693207219
O   O7        1.0  0.11250  0.47282  0.06942  1.0000 -0.5693207219
O   O8        1.0  0.38750  0.52718  0.56942  1.0000 -0.5693207219
O   O9        1.0  0.91410  0.88799  0.50027  1.0000 -0.5390048039
O   O10       1.0  0.58590  0.11201  0.00027  1.0000 -0.5390048039
O   O11       1.0  0.08590  0.38799  0.99973  1.0000 -0.5390048039
O   O12       1.0  0.41410  0.61201  0.49973  1.0000 -0.5390048039
O   O13       1.0  0.70070  0.66518  0.49576  1.0000 -0.548343344
O   O14       1.0  0.79930  0.33482  0.99576  1.0000 -0.548343344
O   O15       1.0  0.29930  0.16518  0.00424  1.0000 -0.548343344
O   O16       1.0  0.20070  0.83482  0.50424  1.0000 -0.548343344
O   O17       1.0  0.58540  0.64219  0.42144  1.0000 -0.5207643568
O   O18       1.0  0.91460  0.35781  0.92144  1.0000 -0.5207643568
O   O19       1.0  0.41460  0.14219  0.07856  1.0000 -0.5207643568
O   O20       1.0  0.08540  0.85781  0.57856  1.0000 -0.5207643568
O   O21       1.0  0.39000  0.89176  0.10658  1.0000 -0.548343344
O   O22       1.0  0.11000  0.10824  0.60658  1.0000 -0.548343344
O   O23       1.0  0.61000  0.39176  0.39342  1.0000 -0.548343344
O   O24       1.0  0.89000  0.60824  0.89342  1.0000 -0.548343344
O   O25       1.0  0.42560  0.00690  0.12931  1.0000 -0.5320495319
O   O26       1.0  0.07440  0.99310  0.62931  1.0000 -0.5390048039
O   O27       1.0  0.57440  0.50690  0.37069  1.0000 -0.5390048039
O   O28       1.0  0.92560  0.49310  0.87069  1.0000 -0.5390048039
O   O29       1.0  0.12320  0.13427  0.41945  1.0000 -0.5207643568
O   O30       1.0  0.37680  0.86573  0.91945  1.0000 -0.5207643568
O   O31       1.0  0.87680  0.63427  0.08055  1.0000 -0.5207643568
O   O32       1.0  0.62320  0.36573  0.58055  1.0000 -0.5207643568
O   O33       1.0  0.23130  0.15803  0.49540  1.0000 -0.5390048039
O   O34       1.0  0.26870  0.84197  0.99540  1.0000 -0.5390048039
O   O35       1.0  0.76870  0.65803  0.00460  1.0000 -0.5390048039
O   O36       1.0  0.73130  0.34197  0.50460  1.0000 -0.5390048039
O   O37       1.0  0.38900  0.47610  0.43730  1.0000 -0.548343344
O   O38       1.0  0.11100  0.52390  0.93730  1.0000 -0.548343344
O   O39       1.0  0.61100  0.97610  0.06270  1.0000 -0.548343344
O   O40       1.0  0.88900  0.02390  0.56270  1.0000 -0.548343344
O   O41       1.0  0.43240  0.38902  0.50237  1.0000 -0.548343344
O   O42       1.0  0.06760  0.61098  0.00237  1.0000 -0.548343344
O   O43       1.0  0.56760  0.88902  0.99763  1.0000 -0.548343344
O   O44       1.0  0.93240  0.11098  0.49763  1.0000 -0.548343344
O   O45       1.0  0.90260  0.37874  0.11153  1.0000 -0.5320495319
O   O46       1.0  0.59740  0.62126  0.61153  1.0000 -0.5320495319
O   O47       1.0  0.09740  0.87874  0.38847  1.0000 -0.5320495319
O   O48       1.0  0.40260  0.12126  0.88847  1.0000 -0.5320495319
O   O49       1.0  0.91530  0.49353  0.13764  1.0000 -0.5320495319
O   O50       1.0  0.58470  0.50647  0.63764  1.0000 -0.5320495319
O   O51       1.0  0.08470  0.99353  0.36236  1.0000 -0.5320495319
O   O52       1.0  0.41530  0.00647  0.86236  1.0000 -0.5320495319
