# DDEC6 charges by PACMAN v1.1 (https://github.com/mtap-research/PACMAN-charge/)
data_2013[Cd][dia]3[ASR]4
_chemical_formula_sum              "Cd8 H432 C432 N16 O64"
_cell_length_a       19.5995
_cell_length_b       28.7424
_cell_length_c       20.4414
_cell_angle_alpha    90
_cell_angle_beta     91.627
_cell_angle_gamma    90

_symmetry_space_group_name_H-M    "P 1"
_symmetry_Int_Tables_number       1

loop_
  _symmetry_equiv_pos_as_xyz
  'x, y, z'

loop_
  _atom_site_type_symbol
  _atom_site_label
  _atom_site_symmetry_multiplicity
  _atom_site_fract_x
  _atom_site_fract_y
  _atom_site_fract_z
  _atom_site_occupancy
  _atom_site_charge
Cd  Cd1       1.0  0.86088  0.17914  0.76546  1.0000 0.8971460946
Cd  Cd2       1.0  0.13912  0.67914  0.23454  1.0000 0.8971460946
Cd  Cd3       1.0  0.35000  0.89836  0.75144  1.0000 0.8971460946
Cd  Cd4       1.0  0.65000  0.39836  0.24856  1.0000 0.8971460946
Cd  Cd5       1.0  0.27245  0.64620  0.34880  1.0000 0.8936396726
Cd  Cd6       1.0  0.72755  0.14620  0.65120  1.0000 0.8936396726
Cd  Cd7       1.0  0.21673  0.93015  0.86156  1.0000 0.8936396726
Cd  Cd8       1.0  0.78327  0.43015  0.13844  1.0000 0.8936396726
H   H1        1.0  0.26446  0.23851  0.92731  1.0000 0.3298106566
H   H2        1.0  0.73554  0.73851  0.07269  1.0000 0.3298106566
H   H3        1.0  0.36647  0.19348  0.86486  1.0000 0.3298106566
H   H4        1.0  0.63353  0.69348  0.13514  1.0000 0.3298106566
H   H5        1.0  0.75294  0.83889  0.60144  1.0000 0.3298106566
H   H6        1.0  0.24706  0.33889  0.39856  1.0000 0.3298106566
H   H7        1.0  0.84632  0.88203  0.67545  1.0000 0.3298106566
H   H8        1.0  0.15368  0.38203  0.32455  1.0000 0.3298106566
H   H9        1.0  0.30387  0.57550  0.76311  1.0000 0.3298106566
H   H10       1.0  0.69613  0.07550  0.23689  1.0000 0.3298106566
H   H11       1.0  0.37522  0.64566  0.83690  1.0000 0.3298106566
H   H12       1.0  0.62478  0.14566  0.16310  1.0000 0.3298106566
H   H13       1.0  0.18001  0.00153  0.27303  1.0000 0.3298106566
H   H14       1.0  0.81999  0.50153  0.72697  1.0000 0.3298106566
H   H15       1.0  0.10600  0.93163  0.34759  1.0000 0.3298106566
H   H16       1.0  0.89400  0.43163  0.65241  1.0000 0.3298106566
H   H17       1.0  0.17839  0.29181  0.71797  1.0000 0.0902698546
H   H18       1.0  0.82161  0.79181  0.28203  1.0000 0.0902698546
H   H19       1.0  0.24611  0.30028  0.77843  1.0000 0.0998969038
H   H20       1.0  0.75389  0.80028  0.22157  1.0000 0.0998969038
H   H21       1.0  0.07839  0.24884  0.73778  1.0000 0.0998969038
H   H22       1.0  0.92161  0.74884  0.26222  1.0000 0.0998969038
H   H23       1.0  0.03248  0.21404  0.93679  1.0000 0.1093048037
H   H24       1.0  0.96752  0.71404  0.06321  1.0000 0.1093048037
H   H25       1.0  0.11664  0.23017  0.02179  1.0000 0.1093048037
H   H26       1.0  0.88336  0.73017  0.97821  1.0000 0.1093048037
H   H27       1.0  0.20288  0.24691  0.00494  1.0000 0.0902698546
H   H28       1.0  0.79712  0.74691  0.99506  1.0000 0.0902698546
H   H29       1.0  0.07571  0.15012  0.99401  1.0000 0.1093048037
H   H30       1.0  0.92429  0.65012  0.00599  1.0000 0.1093048037
H   H31       1.0  0.10653  0.06510  0.99279  1.0000 0.1093048037
H   H32       1.0  0.89347  0.56510  0.00721  1.0000 0.1093048037
H   H33       1.0  0.22856  0.04174  0.98932  1.0000 0.0998969038
H   H34       1.0  0.77144  0.54174  0.01068  1.0000 0.0998969038
H   H35       1.0  0.37511  0.12482  0.00468  1.0000 0.0998969038
H   H36       1.0  0.62489  0.62482  0.99532  1.0000 0.0998969038
H   H37       1.0  0.34945  0.06438  0.01266  1.0000 0.0998969038
H   H38       1.0  0.65055  0.56438  0.98734  1.0000 0.0998969038
H   H39       1.0  0.33709  0.01468  0.92191  1.0000 0.1216540631
H   H40       1.0  0.66291  0.51468  0.07809  1.0000 0.1216540631
H   H41       1.0  0.40365  0.06598  0.73524  1.0000 0.1093048037
H   H42       1.0  0.59635  0.56598  0.26476  1.0000 0.1093048037
H   H43       1.0  0.43573  0.14398  0.72486  1.0000 0.1093048037
H   H44       1.0  0.56427  0.64398  0.27514  1.0000 0.1216540631
H   H45       1.0  0.43260  0.18526  0.79001  1.0000 0.0902698546
H   H46       1.0  0.56740  0.68526  0.20999  1.0000 0.0902698546
H   H47       1.0  0.33007  0.12249  0.65966  1.0000 0.1093048037
H   H48       1.0  0.66993  0.62249  0.34034  1.0000 0.1093048037
H   H49       1.0  0.22014  0.15227  0.61016  1.0000 0.0998969038
H   H50       1.0  0.77986  0.65227  0.38984  1.0000 0.0998969038
H   H51       1.0  0.16739  0.22494  0.65476  1.0000 0.0902698546
H   H52       1.0  0.83261  0.72494  0.34524  1.0000 0.0902698546
H   H53       1.0  0.34350  0.30229  0.74155  1.0000 0.0600611849
H   H54       1.0  0.65650  0.80229  0.25845  1.0000 0.0600611849
H   H55       1.0  0.42253  0.27043  0.74915  1.0000 0.0600611849
H   H56       1.0  0.57747  0.77043  0.25085  1.0000 0.0600611849
H   H57       1.0  0.35312  0.32101  0.86385  1.0000 0.0998969038
H   H58       1.0  0.64688  0.82101  0.13615  1.0000 0.0998969038
H   H59       1.0  0.43475  0.29272  0.86695  1.0000 0.0798761418
H   H60       1.0  0.56525  0.79272  0.13305  1.0000 0.0798761418
H   H61       1.0  0.39579  0.38219  0.79210  1.0000 0.0680356066
H   H62       1.0  0.60421  0.88219  0.20790  1.0000 0.0680356066
H   H63       1.0  0.47242  0.35119  0.77641  1.0000 0.0600611849
H   H64       1.0  0.52758  0.85119  0.22359  1.0000 0.0600611849
H   H65       1.0  0.49346  0.41231  0.86503  1.0000 0.1093048037
H   H66       1.0  0.50654  0.91231  0.13497  1.0000 0.1093048037
H   H67       1.0  0.50490  0.35445  0.89759  1.0000 0.1093048037
H   H68       1.0  0.49510  0.85445  0.10241  1.0000 0.1093048037
H   H69       1.0  0.42828  0.38592  0.91313  1.0000 0.1093048037
H   H70       1.0  0.57172  0.88592  0.08687  1.0000 0.1093048037
H   H71       1.0  0.33098  0.16651  0.09249  1.0000 0.0600611849
H   H72       1.0  0.66902  0.66651  0.90751  1.0000 0.0600611849
H   H73       1.0  0.27511  0.21659  0.09327  1.0000 0.0600611849
H   H74       1.0  0.72489  0.71659  0.90673  1.0000 0.0600611849
H   H75       1.0  0.42302  0.21468  0.04306  1.0000 0.0902698546
H   H76       1.0  0.57698  0.71468  0.95694  1.0000 0.0902698546
H   H77       1.0  0.39715  0.23890  0.12016  1.0000 0.0798761418
H   H78       1.0  0.60285  0.73890  0.87984  1.0000 0.0798761418
H   H79       1.0  0.31815  0.29444  0.05881  1.0000 0.0680356066
H   H80       1.0  0.68185  0.79444  0.94119  1.0000 0.0680356066
H   H81       1.0  0.34496  0.27050  0.98266  1.0000 0.0798761418
H   H82       1.0  0.65504  0.77050  0.01734  1.0000 0.0798761418
H   H83       1.0  0.41135  0.34379  0.01103  1.0000 0.1093048037
H   H84       1.0  0.58865  0.84379  0.98897  1.0000 0.1093048037
H   H85       1.0  0.46681  0.29388  0.00906  1.0000 0.1093048037
H   H86       1.0  0.53319  0.79388  0.99094  1.0000 0.1093048037
H   H87       1.0  0.44174  0.31719  0.08632  1.0000 0.1093048037
H   H88       1.0  0.55826  0.81719  0.91368  1.0000 0.1093048037
H   H89       1.0  0.67211  0.79199  0.81160  1.0000 0.0902698546
H   H90       1.0  0.32789  0.29199  0.18840  1.0000 0.0902698546
H   H91       1.0  0.74069  0.78454  0.75381  1.0000 0.0998969038
H   H92       1.0  0.25931  0.28454  0.24619  1.0000 0.0998969038
H   H93       1.0  0.57268  0.83126  0.78796  1.0000 0.0998969038
H   H94       1.0  0.42732  0.33126  0.21204  1.0000 0.0998969038
H   H95       1.0  0.51849  0.86669  0.58794  1.0000 0.1093048037
H   H96       1.0  0.48151  0.36669  0.41206  1.0000 0.1093048037
H   H97       1.0  0.68674  0.83024  0.52605  1.0000 0.0902698546
H   H98       1.0  0.31326  0.33024  0.47395  1.0000 0.0902698546
H   H99       1.0  0.60175  0.84873  0.50397  1.0000 0.1093048037
H   H100      1.0  0.39825  0.34873  0.49603  1.0000 0.1093048037
H   H101      1.0  0.56972  0.93490  0.52874  1.0000 0.1093048037
H   H102      1.0  0.43028  0.43490  0.47126  1.0000 0.1093048037
H   H103      1.0  0.61317  0.01774  0.52028  1.0000 0.1093048037
H   H104      1.0  0.38683  0.51774  0.47972  1.0000 0.1093048037
H   H105      1.0  0.73828  0.03304  0.53140  1.0000 0.0902698546
H   H106      1.0  0.26172  0.53304  0.46860  1.0000 0.0902698546
H   H107      1.0  0.84768  0.00362  0.51053  1.0000 0.0998969038
H   H108      1.0  0.15232  0.50362  0.48947  1.0000 0.0998969038
H   H109      1.0  0.86983  0.94410  0.51935  1.0000 0.0998969038
H   H110      1.0  0.13017  0.44410  0.48065  1.0000 0.0998969038
H   H111      1.0  0.84299  0.05762  0.60231  1.0000 0.1216540631
H   H112      1.0  0.15701  0.55762  0.39769  1.0000 0.1216540631
H   H113      1.0  0.91238  0.01256  0.79487  1.0000 0.1093048037
H   H114      1.0  0.08762  0.51256  0.20513  1.0000 0.1093048037
H   H115      1.0  0.93349  0.89054  0.74376  1.0000 0.0902698546
H   H116      1.0  0.06651  0.39054  0.25624  1.0000 0.0902698546
H   H117      1.0  0.93843  0.93061  0.81144  1.0000 0.1093048037
H   H118      1.0  0.06157  0.43061  0.18856  1.0000 0.1093048037
H   H119      1.0  0.83723  0.95954  0.86188  1.0000 0.0998969038
H   H120      1.0  0.16277  0.45954  0.13812  1.0000 0.0998969038
H   H121      1.0  0.72869  0.93893  0.91185  1.0000 0.1093048037
H   H122      1.0  0.27131  0.43893  0.08815  1.0000 0.1093048037
H   H123      1.0  0.66004  0.86955  0.87107  1.0000 0.0998969038
H   H124      1.0  0.33996  0.36955  0.12893  1.0000 0.0998969038
H   H125      1.0  0.87489  0.77085  0.63472  1.0000 0.0798761418
H   H126      1.0  0.12511  0.27085  0.36528  1.0000 0.0798761418
H   H127      1.0  0.82671  0.74389  0.69732  1.0000 0.0798761418
H   H128      1.0  0.17329  0.24389  0.30268  1.0000 0.0798761418
H   H129      1.0  0.87623  0.68084  0.63381  1.0000 0.0998969038
H   H130      1.0  0.12377  0.18084  0.36619  1.0000 0.0998969038
H   H131      1.0  0.92433  0.68281  0.71016  1.0000 0.0998969038
H   H132      1.0  0.07567  0.18281  0.28984  1.0000 0.0998969038
H   H133      1.0  0.95979  0.70677  0.63720  1.0000 0.0998969038
H   H134      1.0  0.04021  0.20677  0.36280  1.0000 0.0998969038
H   H135      1.0  0.82125  0.89778  0.43670  1.0000 0.0508879258
H   H136      1.0  0.17875  0.39778  0.56330  1.0000 0.0508879258
H   H137      1.0  0.76782  0.84673  0.43900  1.0000 0.0600611849
H   H138      1.0  0.23218  0.34673  0.56100  1.0000 0.0600611849
H   H139      1.0  0.91717  0.85315  0.45124  1.0000 0.0902698546
H   H140      1.0  0.08283  0.35315  0.54876  1.0000 0.0798761418
H   H141      1.0  0.88655  0.83354  0.52836  1.0000 0.0998969038
H   H142      1.0  0.11345  0.33354  0.47164  1.0000 0.0998969038
H   H143      1.0  0.32646  0.04126  0.33942  1.0000 0.0508879258
H   H144      1.0  0.67354  0.54126  0.66058  1.0000 0.0508879258
H   H145      1.0  0.30958  0.00543  0.40940  1.0000 0.0600611849
H   H146      1.0  0.69042  0.50543  0.59060  1.0000 0.0600611849
H   H147      1.0  0.16423  0.55049  0.64440  1.0000 0.0998969038
H   H148      1.0  0.83577  0.05049  0.35560  1.0000 0.0998969038
H   H149      1.0  0.21577  0.53968  0.71699  1.0000 0.0902698546
H   H150      1.0  0.78423  0.03968  0.28301  1.0000 0.0902698546
H   H151      1.0  0.20834  0.58458  0.54961  1.0000 0.1093048037
H   H152      1.0  0.79166  0.08458  0.45039  1.0000 0.1093048037
H   H153      1.0  0.42078  0.62152  0.54170  1.0000 0.1093048037
H   H154      1.0  0.57922  0.12152  0.45830  1.0000 0.1093048037
H   H155      1.0  0.46335  0.57751  0.70881  1.0000 0.0998969038
H   H156      1.0  0.53665  0.07751  0.29119  1.0000 0.0998969038
H   H157      1.0  0.49506  0.59635  0.63057  1.0000 0.0998969038
H   H158      1.0  0.50494  0.09635  0.36943  1.0000 0.0998969038
H   H159      1.0  0.48540  0.68121  0.59844  1.0000 0.1093048037
H   H160      1.0  0.51460  0.18121  0.40156  1.0000 0.1093048037
H   H161      1.0  0.48499  0.76356  0.63974  1.0000 0.1093048037
H   H162      1.0  0.51501  0.26356  0.36026  1.0000 0.1093048037
H   H163      1.0  0.46951  0.77997  0.75795  1.0000 0.1093048037
H   H164      1.0  0.53049  0.27997  0.24205  1.0000 0.1093048037
H   H165      1.0  0.47445  0.74676  0.87177  1.0000 0.1093048037
H   H166      1.0  0.52555  0.24676  0.12823  1.0000 0.1093048037
H   H167      1.0  0.45144  0.68692  0.88406  1.0000 0.0798761418
H   H168      1.0  0.54856  0.18692  0.11594  1.0000 0.0798761418
H   H169      1.0  0.38487  0.80732  0.85936  1.0000 0.1216540631
H   H170      1.0  0.61513  0.30732  0.14064  1.0000 0.1216540631
H   H171      1.0  0.17546  0.76573  0.88392  1.0000 0.1093048037
H   H172      1.0  0.82454  0.26573  0.11608  1.0000 0.1093048037
H   H173      1.0  0.22441  0.63824  0.89360  1.0000 0.1093048037
H   H174      1.0  0.77559  0.13824  0.10640  1.0000 0.1093048037
H   H175      1.0  0.15550  0.67839  0.90839  1.0000 0.1093048037
H   H176      1.0  0.84450  0.17839  0.09161  1.0000 0.1093048037
H   H177      1.0  0.10329  0.71920  0.80051  1.0000 0.0998969038
H   H178      1.0  0.89671  0.21920  0.19949  1.0000 0.0998969038
H   H179      1.0  0.06827  0.70280  0.68460  1.0000 0.0998969038
H   H180      1.0  0.93173  0.20280  0.31540  1.0000 0.0998969038
H   H181      1.0  0.11318  0.63399  0.62744  1.0000 0.0998969038
H   H182      1.0  0.88682  0.13399  0.37256  1.0000 0.0998969038
H   H183      1.0  0.26456  0.04147  0.22935  1.0000 0.0902698546
H   H184      1.0  0.73544  0.54147  0.77065  1.0000 0.0902698546
H   H185      1.0  0.31597  0.02762  0.16007  1.0000 0.0998969038
H   H186      1.0  0.68403  0.52762  0.83993  1.0000 0.0998969038
H   H187      1.0  0.27762  0.98206  0.07053  1.0000 0.1093048037
H   H188      1.0  0.72238  0.48206  0.92947  1.0000 0.1093048037
H   H189      1.0  0.06081  0.96132  0.04418  1.0000 0.1093048037
H   H190      1.0  0.93919  0.46132  0.95582  1.0000 0.1093048037
H   H191      1.0  0.01695  0.00039  0.21190  1.0000 0.0998969038
H   H192      1.0  0.98305  0.50039  0.78810  1.0000 0.0998969038
H   H193      1.0  0.98497  0.98193  0.13169  1.0000 0.0902698546
H   H194      1.0  0.01503  0.48193  0.86831  1.0000 0.0902698546
H   H195      1.0  0.99353  0.90114  0.09626  1.0000 0.0998969038
H   H196      1.0  0.00647  0.40114  0.90374  1.0000 0.0998969038
H   H197      1.0  0.99027  0.81757  0.13166  1.0000 0.1093048037
H   H198      1.0  0.00973  0.31757  0.86834  1.0000 0.1093048037
H   H199      1.0  0.01469  0.79700  0.24869  1.0000 0.1093048037
H   H200      1.0  0.98531  0.29700  0.75131  1.0000 0.1093048037
H   H201      1.0  0.01067  0.82239  0.35912  1.0000 0.0998969038
H   H202      1.0  0.98933  0.32239  0.64088  1.0000 0.0998969038
H   H203      1.0  0.02453  0.88183  0.38380  1.0000 0.0798761418
H   H204      1.0  0.97547  0.38183  0.61620  1.0000 0.0798761418
H   H205      1.0  0.09958  0.76878  0.34595  1.0000 0.1216540631
H   H206      1.0  0.90042  0.26878  0.65405  1.0000 0.1216540631
H   H207      1.0  0.30810  0.81073  0.38784  1.0000 0.1093048037
H   H208      1.0  0.69190  0.31073  0.61216  1.0000 0.1093048037
H   H209      1.0  0.32859  0.88855  0.42049  1.0000 0.0998969038
H   H210      1.0  0.67141  0.38855  0.57951  1.0000 0.0998969038
H   H211      1.0  0.26361  0.93304  0.41847  1.0000 0.0998969038
H   H212      1.0  0.73639  0.43304  0.58153  1.0000 0.0998969038
H   H213      1.0  0.37606  0.85952  0.31577  1.0000 0.0998969038
H   H214      1.0  0.62394  0.35952  0.68423  1.0000 0.0998969038
H   H215      1.0  0.41036  0.87786  0.20331  1.0000 0.0998969038
H   H216      1.0  0.58964  0.37786  0.79669  1.0000 0.0998969038
H   H217      1.0  0.37338  0.95344  0.14990  1.0000 0.0998969038
H   H218      1.0  0.62662  0.45344  0.85010  1.0000 0.0998969038
H   H219      1.0  0.79448  0.08076  0.82156  1.0000 0.0902698546
H   H220      1.0  0.20552  0.58076  0.17844  1.0000 0.0902698546
H   H221      1.0  0.65491  0.19784  0.01567  1.0000 0.1093048037
H   H222      1.0  0.34509  0.69784  0.98433  1.0000 0.1093048037
H   H223      1.0  0.67373  0.27802  0.99001  1.0000 0.1093048037
H   H224      1.0  0.32627  0.77802  0.00999  1.0000 0.1093048037
H   H225      1.0  0.85251  0.29467  0.76547  1.0000 0.0902698546
H   H226      1.0  0.14749  0.79467  0.23453  1.0000 0.0902698546
H   H227      1.0  0.69556  0.02606  0.94816  1.0000 0.1216540631
H   H228      1.0  0.30444  0.52606  0.05184  1.0000 0.1216540631
H   H229      1.0  0.78022  0.02414  0.91601  1.0000 0.1288574144
H   H230      1.0  0.21978  0.52414  0.08399  1.0000 0.1288574144
H   H231      1.0  0.70861  0.02388  0.86136  1.0000 0.1288574144
H   H232      1.0  0.29139  0.52388  0.13864  1.0000 0.1288574144
H   H233      1.0  0.64416  0.07305  0.00226  1.0000 0.1288574144
H   H234      1.0  0.35584  0.57305  0.99774  1.0000 0.1288574144
H   H235      1.0  0.60002  0.12494  0.97723  1.0000 0.1216540631
H   H236      1.0  0.39998  0.62494  0.02277  1.0000 0.1216540631
H   H237      1.0  0.66066  0.12754  0.04365  1.0000 0.1374104917
H   H238      1.0  0.33934  0.62754  0.95635  1.0000 0.1374104917
H   H239      1.0  0.69578  0.33531  0.97786  1.0000 0.1288574144
H   H240      1.0  0.30422  0.83531  0.02214  1.0000 0.1288574144
H   H241      1.0  0.69265  0.37327  0.90694  1.0000 0.1216540631
H   H242      1.0  0.30735  0.87327  0.09306  1.0000 0.1216540631
H   H243      1.0  0.76861  0.37008  0.95900  1.0000 0.1498984061
H   H244      1.0  0.23139  0.87008  0.04100  1.0000 0.1498984061
H   H245      1.0  0.84221  0.37062  0.77715  1.0000 0.1288574144
H   H246      1.0  0.15779  0.87062  0.22285  1.0000 0.1288574144
H   H247      1.0  0.83923  0.39189  0.85894  1.0000 0.1288574144
H   H248      1.0  0.16077  0.89189  0.14106  1.0000 0.1288574144
H   H249      1.0  0.76437  0.39303  0.80744  1.0000 0.1216540631
H   H250      1.0  0.23563  0.89303  0.19256  1.0000 0.1216540631
H   H251      1.0  0.33404  0.78211  0.74018  1.0000 0.0902698546
H   H252      1.0  0.66596  0.28211  0.25982  1.0000 0.0902698546
H   H253      1.0  0.16574  0.81902  0.49808  1.0000 0.1093048037
H   H254      1.0  0.83426  0.31902  0.50192  1.0000 0.1093048037
H   H255      1.0  0.14753  0.90022  0.48887  1.0000 0.1093048037
H   H256      1.0  0.85247  0.40022  0.51113  1.0000 0.1093048037
H   H257      1.0  0.28374  0.00025  0.70460  1.0000 0.0902698546
H   H258      1.0  0.71626  0.50025  0.29540  1.0000 0.0902698546
H   H259      1.0  0.29028  0.70476  0.72447  1.0000 0.1288574144
H   H260      1.0  0.70972  0.20476  0.27553  1.0000 0.1288574144
H   H261      1.0  0.33809  0.69685  0.65176  1.0000 0.1288574144
H   H262      1.0  0.66191  0.19685  0.34824  1.0000 0.1288574144
H   H263      1.0  0.24822  0.68741  0.64968  1.0000 0.1216540631
H   H264      1.0  0.75178  0.18741  0.35032  1.0000 0.1216540631
H   H265      1.0  0.19875  0.70516  0.57768  1.0000 0.1288574144
H   H266      1.0  0.80125  0.20516  0.42232  1.0000 0.1288574144
H   H267      1.0  0.25581  0.72624  0.51873  1.0000 0.1589379721
H   H268      1.0  0.74419  0.22624  0.48127  1.0000 0.1589379721
H   H269      1.0  0.17039  0.74872  0.52004  1.0000 0.1216540631
H   H270      1.0  0.82961  0.24872  0.47996  1.0000 0.1216540631
H   H271      1.0  0.09796  0.98564  0.52228  1.0000 0.1288574144
H   H272      1.0  0.90204  0.48564  0.47772  1.0000 0.1288574144
H   H273      1.0  0.16063  0.96444  0.46719  1.0000 0.1374104917
H   H274      1.0  0.83937  0.46444  0.53281  1.0000 0.1374104917
H   H275      1.0  0.16719  0.02241  0.49985  1.0000 0.1216540631
H   H276      1.0  0.83281  0.52241  0.50015  1.0000 0.1216540631
H   H277      1.0  0.22531  0.06308  0.66297  1.0000 0.1288574144
H   H278      1.0  0.77469  0.56308  0.33703  1.0000 0.1288574144
H   H279      1.0  0.16360  0.05784  0.59648  1.0000 0.1288574144
H   H280      1.0  0.83640  0.55784  0.40352  1.0000 0.1288574144
H   H281      1.0  0.25276  0.06339  0.57975  1.0000 0.1288574144
H   H282      1.0  0.74724  0.56339  0.42025  1.0000 0.1288574144
H   H283      1.0  0.33359  0.74462  0.27900  1.0000 0.0998969038
H   H284      1.0  0.66641  0.24462  0.72100  1.0000 0.0998969038
H   H285      1.0  0.48728  0.62064  0.10567  1.0000 0.1093048037
H   H286      1.0  0.51272  0.12064  0.89433  1.0000 0.1093048037
H   H287      1.0  0.46858  0.54082  0.13695  1.0000 0.1216540631
H   H288      1.0  0.53142  0.04082  0.86305  1.0000 0.1216540631
H   H289      1.0  0.26858  0.53157  0.34553  1.0000 0.0798761418
H   H290      1.0  0.73142  0.03157  0.65447  1.0000 0.0798761418
H   H291      1.0  0.44099  0.79673  0.22354  1.0000 0.1216540631
H   H292      1.0  0.55901  0.29673  0.77646  1.0000 0.1216540631
H   H293      1.0  0.35128  0.79617  0.20258  1.0000 0.1288574144
H   H294      1.0  0.64872  0.29617  0.79742  1.0000 0.1288574144
H   H295      1.0  0.41236  0.79038  0.13879  1.0000 0.1216540631
H   H296      1.0  0.58764  0.29038  0.86121  1.0000 0.1216540631
H   H297      1.0  0.44534  0.74198  0.07661  1.0000 0.1216540631
H   H298      1.0  0.55466  0.24198  0.92339  1.0000 0.1216540631
H   H299      1.0  0.47139  0.68274  0.06712  1.0000 0.1288574144
H   H300      1.0  0.52861  0.18274  0.93288  1.0000 0.1288574144
H   H301      1.0  0.52169  0.72163  0.11681  1.0000 0.1288574144
H   H302      1.0  0.47831  0.22163  0.88319  1.0000 0.1288574144
H   H303      1.0  0.46797  0.46133  0.22960  1.0000 0.1589379721
H   H304      1.0  0.53203  0.96133  0.77040  1.0000 0.1589379721
H   H305      1.0  0.43912  0.47892  0.14929  1.0000 0.1288574144
H   H306      1.0  0.56088  0.97892  0.85071  1.0000 0.1288574144
H   H307      1.0  0.38813  0.43950  0.19623  1.0000 0.1216540631
H   H308      1.0  0.61187  0.93950  0.80377  1.0000 0.1216540631
H   H309      1.0  0.30622  0.43142  0.25841  1.0000 0.1216540631
H   H310      1.0  0.69378  0.93142  0.74159  1.0000 0.1216540631
H   H311      1.0  0.27930  0.45517  0.33529  1.0000 0.1288574144
H   H312      1.0  0.72070  0.95517  0.66471  1.0000 0.1288574144
H   H313      1.0  0.36680  0.43805  0.32543  1.0000 0.1374104917
H   H314      1.0  0.63320  0.93805  0.67457  1.0000 0.1374104917
H   H315      1.0  0.16407  0.83660  0.77936  1.0000 0.0998969038
H   H316      1.0  0.83593  0.33660  0.22064  1.0000 0.0998969038
H   H317      1.0  0.00438  0.96644  0.60964  1.0000 0.1093048037
H   H318      1.0  0.99562  0.46644  0.39036  1.0000 0.1093048037
H   H319      1.0  0.02459  0.04532  0.64474  1.0000 0.1093048037
H   H320      1.0  0.97541  0.54532  0.35526  1.0000 0.1093048037
H   H321      1.0  0.22015  0.04187  0.87100  1.0000 0.0902698546
H   H322      1.0  0.77985  0.54187  0.12900  1.0000 0.0902698546
H   H323      1.0  0.13703  0.78672  0.66761  1.0000 0.1288574144
H   H324      1.0  0.86297  0.28672  0.33239  1.0000 0.1288574144
H   H325      1.0  0.05009  0.79529  0.64276  1.0000 0.1216540631
H   H326      1.0  0.94991  0.29529  0.35724  1.0000 0.1216540631
H   H327      1.0  0.07211  0.78065  0.72590  1.0000 0.1216540631
H   H328      1.0  0.92789  0.28065  0.27410  1.0000 0.1216540631
H   H329      1.0  0.98561  0.84300  0.61328  1.0000 0.1288574144
H   H330      1.0  0.01439  0.34300  0.38672  1.0000 0.1288574144
H   H331      1.0  0.04648  0.87020  0.56197  1.0000 0.1288574144
H   H332      1.0  0.95352  0.37020  0.43803  1.0000 0.1288574144
H   H333      1.0  0.97830  0.90364  0.59636  1.0000 0.1288574144
H   H334      1.0  0.02170  0.40364  0.40364  1.0000 0.1288574144
H   H335      1.0  0.11478  0.13385  0.68710  1.0000 0.1216540631
H   H336      1.0  0.88522  0.63385  0.31290  1.0000 0.1216540631
H   H337      1.0  0.05571  0.13734  0.75252  1.0000 0.1498984061
H   H338      1.0  0.94429  0.63734  0.24748  1.0000 0.1498984061
H   H339      1.0  0.03431  0.10297  0.68179  1.0000 0.1374104917
H   H340      1.0  0.96569  0.60297  0.31821  1.0000 0.1374104917
H   H341      1.0  0.21905  0.12253  0.86038  1.0000 0.1216540631
H   H342      1.0  0.78095  0.62253  0.13962  1.0000 0.1216540631
H   H343      1.0  0.13303  0.14334  0.84671  1.0000 0.1288574144
H   H344      1.0  0.86697  0.64334  0.15329  1.0000 0.1288574144
H   H345      1.0  0.19291  0.14756  0.78254  1.0000 0.1288574144
H   H346      1.0  0.80709  0.64756  0.21746  1.0000 0.1288574144
H   H347      1.0  0.91018  0.82331  0.81213  1.0000 0.0600611849
H   H348      1.0  0.08982  0.32331  0.18787  1.0000 0.0600611849
H   H349      1.0  0.84561  0.77871  0.80664  1.0000 0.0600611849
H   H350      1.0  0.15439  0.27871  0.19336  1.0000 0.0600611849
H   H351      1.0  0.95321  0.74998  0.76249  1.0000 0.0902698546
H   H352      1.0  0.04679  0.24998  0.23751  1.0000 0.0902698546
H   H353      1.0  0.95877  0.79944  0.70873  1.0000 0.0798761418
H   H354      1.0  0.04123  0.29944  0.29127  1.0000 0.0798761418
H   H355      1.0  0.54960  0.64064  0.84340  1.0000 0.0508879258
H   H356      1.0  0.45040  0.14064  0.15660  1.0000 0.0508879258
H   H357      1.0  0.54091  0.58831  0.79528  1.0000 0.0600611849
H   H358      1.0  0.45909  0.08831  0.20472  1.0000 0.0600611849
H   H359      1.0  0.47358  0.60972  0.92717  1.0000 0.0902698546
H   H360      1.0  0.52642  0.10972  0.07283  1.0000 0.0902698546
H   H361      1.0  0.54500  0.57065  0.91660  1.0000 0.0902698546
H   H362      1.0  0.45500  0.07065  0.08340  1.0000 0.0902698546
H   H363      1.0  0.39739  0.55976  0.85928  1.0000 0.0798761418
H   H364      1.0  0.60261  0.05976  0.14072  1.0000 0.0798761418
H   H365      1.0  0.43655  0.52709  0.92586  1.0000 0.0680356066
H   H366      1.0  0.56345  0.02709  0.07414  1.0000 0.0680356066
H   H367      1.0  0.43590  0.48202  0.82022  1.0000 0.1093048037
H   H368      1.0  0.56410  0.98202  0.17978  1.0000 0.1093048037
H   H369      1.0  0.52218  0.49385  0.84799  1.0000 0.0998969038
H   H370      1.0  0.47782  0.99385  0.15201  1.0000 0.0998969038
H   H371      1.0  0.48332  0.52664  0.78154  1.0000 0.1216540631
H   H372      1.0  0.51668  0.02664  0.21846  1.0000 0.1216540631
H   H373      1.0  0.01445  0.98200  0.42446  1.0000 0.0902698546
H   H374      1.0  0.98555  0.48200  0.57554  1.0000 0.0902698546
H   H375      1.0  0.93121  0.00559  0.41328  1.0000 0.0798761418
H   H376      1.0  0.06879  0.50559  0.58672  1.0000 0.0798761418
H   H377      1.0  0.94012  0.93057  0.35347  1.0000 0.0508879258
H   H378      1.0  0.05988  0.43057  0.64653  1.0000 0.0508879258
H   H379      1.0  0.93268  0.97771  0.29460  1.0000 0.0600611849
H   H380      1.0  0.06732  0.47771  0.70540  1.0000 0.0600611849
H   H381      1.0  0.21278  0.07948  0.34668  1.0000 0.0902698546
H   H382      1.0  0.78722  0.57948  0.65332  1.0000 0.0902698546
H   H383      1.0  0.19000  0.04094  0.41166  1.0000 0.0902698546
H   H384      1.0  0.81000  0.54094  0.58834  1.0000 0.0902698546
H   H385      1.0  0.28555  0.07100  0.48326  1.0000 0.0600611849
H   H386      1.0  0.71445  0.57100  0.51674  1.0000 0.0600611849
H   H387      1.0  0.31563  0.10679  0.41756  1.0000 0.0680356066
H   H388      1.0  0.68437  0.60679  0.58244  1.0000 0.0680356066
H   H389      1.0  0.25024  0.15340  0.49637  1.0000 0.1093048037
H   H390      1.0  0.74976  0.65340  0.50363  1.0000 0.1093048037
H   H391      1.0  0.17578  0.11705  0.48348  1.0000 0.0998969038
H   H392      1.0  0.82422  0.61705  0.51652  1.0000 0.0998969038
H   H393      1.0  0.20640  0.15269  0.41769  1.0000 0.1093048037
H   H394      1.0  0.79360  0.65269  0.58231  1.0000 0.1093048037
H   H395      1.0  0.15595  0.53116  0.80476  1.0000 0.0508879258
H   H396      1.0  0.84405  0.03116  0.19524  1.0000 0.0508879258
H   H397      1.0  0.04024  0.05668  0.41077  1.0000 0.0680356066
H   H398      1.0  0.95976  0.55668  0.58923  1.0000 0.0680356066
H   H399      1.0  0.06391  0.02387  0.33802  1.0000 0.0798761418
H   H400      1.0  0.93609  0.52387  0.66198  1.0000 0.0798761418
H   H401      1.0  0.21665  0.46080  0.79330  1.0000 0.0680356066
H   H402      1.0  0.78335  0.96080  0.20670  1.0000 0.0680356066
H   H403      1.0  0.28849  0.49856  0.77934  1.0000 0.0798761418
H   H404      1.0  0.71151  0.99856  0.22066  1.0000 0.0798761418
H   H405      1.0  0.28343  0.52510  0.89913  1.0000 0.0902698546
H   H406      1.0  0.71657  0.02510  0.10087  1.0000 0.0902698546
H   H407      1.0  0.20903  0.48964  0.90757  1.0000 0.0902698546
H   H408      1.0  0.79097  0.98964  0.09243  1.0000 0.0902698546
H   H409      1.0  0.05180  0.10244  0.32132  1.0000 0.1093048037
H   H410      1.0  0.94820  0.60244  0.67868  1.0000 0.1093048037
H   H411      1.0  0.96493  0.10657  0.33870  1.0000 0.0998969038
H   H412      1.0  0.03507  0.60657  0.66130  1.0000 0.0998969038
H   H413      1.0  0.99178  0.07527  0.26738  1.0000 0.1093048037
H   H414      1.0  0.00822  0.57527  0.73262  1.0000 0.1093048037
H   H415      1.0  0.32180  0.41603  0.80232  1.0000 0.1093048037
H   H416      1.0  0.67820  0.91603  0.19768  1.0000 0.1093048037
H   H417      1.0  0.28853  0.41945  0.88300  1.0000 0.1093048037
H   H418      1.0  0.71147  0.91945  0.11700  1.0000 0.1093048037
H   H419      1.0  0.35975  0.45517  0.86088  1.0000 0.0998969038
H   H420      1.0  0.64025  0.95517  0.13912  1.0000 0.0998969038
H   H421      1.0  0.84022  0.78987  0.39599  1.0000 0.0508879258
H   H422      1.0  0.15978  0.28987  0.60401  1.0000 0.0508879258
H   H423      1.0  0.82770  0.76695  0.47659  1.0000 0.0680356066
H   H424      1.0  0.17230  0.26695  0.52341  1.0000 0.0680356066
H   H425      1.0  0.92744  0.72978  0.41313  1.0000 0.1216540631
H   H426      1.0  0.07256  0.22978  0.58687  1.0000 0.1216540631
H   H427      1.0  0.95090  0.75151  0.49324  1.0000 0.1093048037
H   H428      1.0  0.04910  0.25151  0.50676  1.0000 0.1093048037
H   H429      1.0  0.97142  0.78415  0.42178  1.0000 0.0998969038
H   H430      1.0  0.02858  0.28415  0.57822  1.0000 0.0998969038
H   H431      1.0  0.15368  0.56542  0.87665  1.0000 0.0680356066
H   H432      1.0  0.84632  0.06542  0.12335  1.0000 0.0680356066
C   C1        1.0  0.24654  0.23505  0.72816  1.0000 0.0290340594
C   C2        1.0  0.75346  0.73505  0.27184  1.0000 0.0290340594
C   C3        1.0  0.20910  0.27501  0.75727  1.0000 -0.2120690266
C   C4        1.0  0.79090  0.77501  0.24273  1.0000 -0.2120690266
C   C5        1.0  0.16155  0.25690  0.80848  1.0000 0.0198227627
C   C6        1.0  0.83845  0.75690  0.19152  1.0000 0.0198227627
C   C7        1.0  0.09549  0.24354  0.78912  1.0000 -0.1409959858
C   C8        1.0  0.90451  0.74354  0.21088  1.0000 -0.1409959858
C   C9        1.0  0.04942  0.22611  0.83456  1.0000 -0.0585878414
C   C10       1.0  0.95058  0.72611  0.16544  1.0000 -0.0585878414
C   C11       1.0  0.07070  0.22309  0.90047  1.0000 -0.1409959858
C   C12       1.0  0.92930  0.72309  0.09953  1.0000 -0.1409959858
C   C13       1.0  0.13789  0.23321  0.92040  1.0000 -0.0087936741
C   C14       1.0  0.86211  0.73321  0.07960  1.0000 -0.0087936741
C   C15       1.0  0.15976  0.22397  0.98996  1.0000 -0.2190350518
C   C16       1.0  0.84024  0.72397  0.01004  1.0000 -0.2190350518
C   C17       1.0  0.17993  0.17340  0.99615  1.0000 0.0290340594
C   C18       1.0  0.82007  0.67340  0.00385  1.0000 0.0290340594
C   C19       1.0  0.12860  0.13903  0.99510  1.0000 -0.1409959858
C   C20       1.0  0.87140  0.63903  0.00490  1.0000 -0.1409959858
C   C21       1.0  0.14597  0.09170  0.99378  1.0000 -0.0874373522
C   C22       1.0  0.85403  0.59170  0.00622  1.0000 -0.0874373522
C   C23       1.0  0.21470  0.07825  0.99216  1.0000 -0.1409959858
C   C24       1.0  0.78530  0.57825  0.00784  1.0000 -0.1409959858
C   C25       1.0  0.26707  0.11189  0.99353  1.0000 0.0290340594
C   C26       1.0  0.73293  0.61189  0.00647  1.0000 0.0290340594
C   C27       1.0  0.34030  0.09719  0.98659  1.0000 -0.2190350518
C   C28       1.0  0.65970  0.59719  0.01341  1.0000 -0.2190350518
C   C29       1.0  0.35498  0.08895  0.91543  1.0000 0.0198227627
C   C30       1.0  0.64502  0.58895  0.08457  1.0000 0.0198227627
C   C31       1.0  0.35284  0.04383  0.89026  1.0000 -0.1494076993
C   C32       1.0  0.64716  0.54383  0.10974  1.0000 -0.1494076993
C   C33       1.0  0.37027  0.03549  0.82557  1.0000 -0.0468159467
C   C34       1.0  0.62973  0.53549  0.17443  1.0000 -0.0468159467
C   C35       1.0  0.38752  0.07297  0.78517  1.0000 -0.1579599157
C   C36       1.0  0.61248  0.57297  0.21483  1.0000 -0.1579599157
C   C37       1.0  0.38608  0.11858  0.80820  1.0000 -0.0046434829
C   C38       1.0  0.61392  0.61858  0.19180  1.0000 -0.0087936741
C   C39       1.0  0.40352  0.15795  0.76299  1.0000 -0.2190350518
C   C40       1.0  0.59648  0.65795  0.23701  1.0000 -0.2190350518
C   C41       1.0  0.33954  0.17796  0.73124  1.0000 0.0290340594
C   C42       1.0  0.66046  0.67796  0.26876  1.0000 0.0290340594
C   C43       1.0  0.30656  0.15393  0.67857  1.0000 -0.1409959858
C   C44       1.0  0.69344  0.65393  0.32143  1.0000 -0.1409959858
C   C45       1.0  0.24487  0.17087  0.65051  1.0000 -0.1094997441
C   C46       1.0  0.75513  0.67087  0.34949  1.0000 -0.1094997441
C   C47       1.0  0.21495  0.21091  0.67537  1.0000 -0.1494076993
C   C48       1.0  0.78505  0.71091  0.32463  1.0000 -0.1494076993
C   C49       1.0  0.18279  0.24961  0.87374  1.0000 0.1991992295
C   C50       1.0  0.81721  0.74961  0.12626  1.0000 0.1991992295
C   C51       1.0  0.30889  0.21837  0.75416  1.0000 0.1216540631
C   C52       1.0  0.69111  0.71837  0.24584  1.0000 0.1216540631
C   C53       1.0  0.37082  0.12600  0.87408  1.0000 0.1926248607
C   C54       1.0  0.62918  0.62600  0.12592  1.0000 0.1926248607
C   C55       1.0  0.24827  0.15895  0.99616  1.0000 0.1216540631
C   C56       1.0  0.75173  0.65895  0.00384  1.0000 0.1216540631
C   C57       1.0  0.97952  0.21090  0.81560  1.0000 0.5444116779
C   C58       1.0  0.02048  0.71090  0.18440  1.0000 0.5444116779
C   C59       1.0  0.36867  0.98748  0.79793  1.0000 0.5557956584
C   C60       1.0  0.63133  0.48748  0.20207  1.0000 0.5557956584
C   C61       1.0  0.37814  0.28335  0.77720  1.0000 0.0508879258
C   C62       1.0  0.62186  0.78335  0.22280  1.0000 0.0508879258
C   C63       1.0  0.39904  0.31313  0.83425  1.0000 -0.1798234664
C   C64       1.0  0.60096  0.81313  0.16575  1.0000 -0.1798234664
C   C65       1.0  0.43411  0.35800  0.81514  1.0000 -0.0707362724
C   C66       1.0  0.56589  0.85800  0.18486  1.0000 -0.0707362724
C   C67       1.0  0.46736  0.37941  0.87590  1.0000 -0.3482655398
C   C68       1.0  0.53264  0.87941  0.12410  1.0000 -0.3482655398
C   C69       1.0  0.31953  0.20055  0.06869  1.0000 0.0412121083
C   C70       1.0  0.68047  0.70055  0.93131  1.0000 0.0412121083
C   C71       1.0  0.38001  0.23221  0.06859  1.0000 -0.1798234664
C   C72       1.0  0.61999  0.73221  0.93141  1.0000 -0.1798234664
C   C73       1.0  0.36291  0.27814  0.03410  1.0000 -0.0707362724
C   C74       1.0  0.63709  0.77814  0.96590  1.0000 -0.0809308502
C   C75       1.0  0.42403  0.31039  0.03507  1.0000 -0.3482655398
C   C76       1.0  0.57597  0.81039  0.96493  1.0000 -0.3482655398
C   C77       1.0  0.73853  0.84944  0.80219  1.0000 0.0412121083
C   C78       1.0  0.26147  0.34944  0.19781  1.0000 0.0412121083
C   C79       1.0  0.70186  0.80845  0.77299  1.0000 -0.2190350518
C   C80       1.0  0.29814  0.30845  0.22701  1.0000 -0.2190350518
C   C81       1.0  0.65311  0.82492  0.71951  1.0000 0.0198227627
C   C82       1.0  0.34689  0.32492  0.28049  1.0000 0.0198227627
C   C83       1.0  0.58689  0.83679  0.73677  1.0000 -0.1409959858
C   C84       1.0  0.41311  0.33679  0.26323  1.0000 -0.1409959858
C   C85       1.0  0.53871  0.85378  0.69023  1.0000 -0.0585878414
C   C86       1.0  0.46129  0.35378  0.30977  1.0000 -0.0585878414
C   C87       1.0  0.55840  0.85762  0.62494  1.0000 -0.1409959858
C   C88       1.0  0.44160  0.35762  0.37506  1.0000 -0.1409959858
C   C89       1.0  0.62495  0.84763  0.60651  1.0000 -0.0046434829
C   C90       1.0  0.37505  0.34763  0.39349  1.0000 -0.0046434829
C   C91       1.0  0.64578  0.85524  0.53737  1.0000 -0.2190350518
C   C92       1.0  0.35422  0.35524  0.46263  1.0000 -0.2190350518
C   C93       1.0  0.67112  0.90479  0.52926  1.0000 0.0198227627
C   C94       1.0  0.32888  0.40479  0.47074  1.0000 0.0198227627
C   C95       1.0  0.62469  0.94197  0.52720  1.0000 -0.133661481
C   C96       1.0  0.37531  0.44197  0.47280  1.0000 -0.133661481
C   C97       1.0  0.64837  0.98850  0.52517  1.0000 -0.0874373522
C   C98       1.0  0.35163  0.48850  0.47483  1.0000 -0.0874373522
C   C99       1.0  0.71868  0.99733  0.52982  1.0000 -0.1409959858
C   C100      1.0  0.28132  0.49733  0.47018  1.0000 -0.1409959858
C   C101      1.0  0.76538  0.96065  0.53228  1.0000 0.0290340594
C   C102      1.0  0.23462  0.46065  0.46772  1.0000 0.0290340594
C   C103      1.0  0.83924  0.97247  0.53928  1.0000 -0.2120690266
C   C104      1.0  0.16076  0.47247  0.46072  1.0000 -0.2120690266
C   C105      1.0  0.85716  0.98278  0.61185  1.0000 0.0198227627
C   C106      1.0  0.14284  0.48278  0.38815  1.0000 0.0198227627
C   C107      1.0  0.85696  0.02892  0.63553  1.0000 -0.1579599157
C   C108      1.0  0.14304  0.52892  0.36447  1.0000 -0.1579599157
C   C109      1.0  0.87417  0.03940  0.70126  1.0000 -0.0585878414
C   C110      1.0  0.12583  0.53940  0.29874  1.0000 -0.0585878414
C   C111      1.0  0.89229  0.00362  0.74496  1.0000 -0.1494076993
C   C112      1.0  0.10771  0.50362  0.25504  1.0000 -0.1494076993
C   C113      1.0  0.88780  0.95723  0.72413  1.0000 -0.0161707178
C   C114      1.0  0.11220  0.45723  0.27587  1.0000 -0.0161707178
C   C115      1.0  0.90534  0.91785  0.77047  1.0000 -0.2190350518
C   C116      1.0  0.09466  0.41785  0.22953  1.0000 -0.2190350518
C   C117      1.0  0.83949  0.90034  0.79928  1.0000 0.0198227627
C   C118      1.0  0.16051  0.40034  0.20072  1.0000 0.0198227627
C   C119      1.0  0.81000  0.92812  0.84671  1.0000 -0.133661481
C   C120      1.0  0.19000  0.42812  0.15329  1.0000 -0.133661481
C   C121      1.0  0.74720  0.91617  0.87407  1.0000 -0.1000275959
C   C122      1.0  0.25280  0.41617  0.12593  1.0000 -0.1000275959
C   C123      1.0  0.71057  0.87690  0.85112  1.0000 -0.1494076993
C   C124      1.0  0.28943  0.37690  0.14888  1.0000 -0.1494076993
C   C125      1.0  0.67229  0.83142  0.65453  1.0000 0.207667126
C   C126      1.0  0.32771  0.33142  0.34547  1.0000 0.207667126
C   C127      1.0  0.80298  0.86127  0.77837  1.0000 0.1093048037
C   C128      1.0  0.19702  0.36127  0.22163  1.0000 0.1093048037
C   C129      1.0  0.86749  0.94747  0.65922  1.0000 0.1991992295
C   C130      1.0  0.13251  0.44747  0.34078  1.0000 0.1991992295
C   C131      1.0  0.74082  0.91489  0.52988  1.0000 0.1288574144
C   C132      1.0  0.25918  0.41489  0.47012  1.0000 0.1288574144
C   C133      1.0  0.46937  0.86804  0.70845  1.0000 0.5498581566
C   C134      1.0  0.53063  0.36804  0.29155  1.0000 0.5498581566
C   C135      1.0  0.87551  0.08796  0.72513  1.0000 0.5557956584
C   C136      1.0  0.12449  0.58796  0.27487  1.0000 0.5557956584
C   C137      1.0  0.88013  0.74858  0.67973  1.0000 -0.0707362724
C   C138      1.0  0.11987  0.24858  0.32027  1.0000 -0.0707362724
C   C139      1.0  0.91188  0.70194  0.66411  1.0000 -0.3482655398
C   C140      1.0  0.08812  0.20194  0.33589  1.0000 -0.3482655398
C   C141      1.0  0.81043  0.86562  0.46547  1.0000 0.0508879258
C   C142      1.0  0.18957  0.36562  0.53453  1.0000 0.0508879258
C   C143      1.0  0.87350  0.83568  0.47467  1.0000 -0.1861263662
C   C144      1.0  0.12650  0.33568  0.52533  1.0000 -0.1861263662
C   C145      1.0  0.28473  0.02456  0.36733  1.0000 0.0600611849
C   C146      1.0  0.71527  0.52456  0.63267  1.0000 0.0600611849
C   C147      1.0  0.17124  0.60757  0.71218  1.0000 0.0290340594
C   C148      1.0  0.82876  0.10757  0.28782  1.0000 0.0290340594
C   C149      1.0  0.20229  0.56586  0.67881  1.0000 -0.2120690266
C   C150      1.0  0.79771  0.06586  0.32119  1.0000 -0.2120690266
C   C151      1.0  0.26496  0.57900  0.64240  1.0000 -0.0087936741
C   C152      1.0  0.73504  0.07900  0.35760  1.0000 -0.0087936741
C   C153      1.0  0.25773  0.58875  0.57531  1.0000 -0.1409959858
C   C154      1.0  0.74227  0.08875  0.42469  1.0000 -0.1409959858
C   C155      1.0  0.31301  0.60440  0.53911  1.0000 -0.0585878414
C   C156      1.0  0.68699  0.10440  0.46089  1.0000 -0.0585878414
C   C157      1.0  0.37725  0.60896  0.57029  1.0000 -0.1409959858
C   C158      1.0  0.62275  0.10896  0.42971  1.0000 -0.1409959858
C   C159      1.0  0.38705  0.59739  0.63612  1.0000 0.0124777905
C   C160      1.0  0.61295  0.09739  0.36388  1.0000 0.0124777905
C   C161      1.0  0.45702  0.60274  0.66807  1.0000 -0.2120690266
C   C162      1.0  0.54298  0.10274  0.33193  1.0000 -0.2120690266
C   C163      1.0  0.46660  0.65145  0.69354  1.0000 0.0290340594
C   C164      1.0  0.53340  0.15145  0.30646  1.0000 0.0290340594
C   C165      1.0  0.47776  0.68875  0.65016  1.0000 -0.1409959858
C   C166      1.0  0.52224  0.18875  0.34984  1.0000 -0.1409959858
C   C167      1.0  0.47843  0.73486  0.67325  1.0000 -0.0874373522
C   C168      1.0  0.52157  0.23486  0.32675  1.0000 -0.0874373522
C   C169      1.0  0.46851  0.74450  0.73947  1.0000 -0.1409959858
C   C170      1.0  0.53149  0.24450  0.26053  1.0000 -0.1409959858
C   C171      1.0  0.45814  0.70784  0.78377  1.0000 0.0198227627
C   C172      1.0  0.54186  0.20784  0.21623  1.0000 0.0198227627
C   C173      1.0  0.44148  0.71837  0.85367  1.0000 -0.2190350518
C   C174      1.0  0.55852  0.21837  0.14633  1.0000 -0.2190350518
C   C175      1.0  0.36779  0.73214  0.85909  1.0000 -0.0087936741
C   C176      1.0  0.63221  0.23214  0.14091  1.0000 -0.0087936741
C   C177      1.0  0.34748  0.77896  0.86234  1.0000 -0.1494076993
C   C178      1.0  0.65252  0.27896  0.13766  1.0000 -0.1494076993
C   C179      1.0  0.27840  0.79045  0.86970  1.0000 -0.0707362724
C   C180      1.0  0.72160  0.29045  0.13030  1.0000 -0.0707362724
C   C181      1.0  0.22889  0.75557  0.87532  1.0000 -0.1409959858
C   C182      1.0  0.77111  0.25557  0.12468  1.0000 -0.1409959858
C   C183      1.0  0.24693  0.70897  0.87069  1.0000 0.0198227627
C   C184      1.0  0.75307  0.20897  0.12931  1.0000 0.0198227627
C   C185      1.0  0.19675  0.66936  0.87564  1.0000 -0.2283095754
C   C186      1.0  0.80325  0.16936  0.12436  1.0000 -0.2283095754
C   C187      1.0  0.16761  0.65734  0.80919  1.0000 0.0412121083
C   C188      1.0  0.83239  0.15734  0.19081  1.0000 0.0412121083
C   C189      1.0  0.12247  0.68806  0.77554  1.0000 -0.1409959858
C   C190      1.0  0.87753  0.18806  0.22446  1.0000 -0.1409959858
C   C191      1.0  0.10245  0.67907  0.71064  1.0000 -0.1000275959
C   C192      1.0  0.89755  0.17907  0.28936  1.0000 -0.1000275959
C   C193      1.0  0.12848  0.63978  0.67843  1.0000 -0.133661481
C   C194      1.0  0.87152  0.13978  0.32157  1.0000 -0.133661481
C   C195      1.0  0.33105  0.58254  0.67160  1.0000 0.207667126
C   C196      1.0  0.66895  0.08254  0.32840  1.0000 0.207667126
C   C197      1.0  0.18875  0.61680  0.77774  1.0000 0.1216540631
C   C198      1.0  0.81125  0.11680  0.22226  1.0000 0.1216540631
C   C199      1.0  0.31562  0.69822  0.86063  1.0000 0.1926248607
C   C200      1.0  0.68438  0.19822  0.13937  1.0000 0.1926248607
C   C201      1.0  0.45864  0.66242  0.75939  1.0000 0.1216540631
C   C202      1.0  0.54136  0.16242  0.24061  1.0000 0.1216540631
C   C203      1.0  0.30352  0.61707  0.46968  1.0000 0.5498581566
C   C204      1.0  0.69648  0.11707  0.53032  1.0000 0.5498581566
C   C205      1.0  0.25720  0.83921  0.87110  1.0000 0.5498581566
C   C206      1.0  0.74280  0.33921  0.12890  1.0000 0.5498581566
C   C207      1.0  0.31127  0.97350  0.23080  1.0000 0.0198227627
C   C208      1.0  0.68873  0.47350  0.76920  1.0000 0.0198227627
C   C209      1.0  0.27886  0.01369  0.19448  1.0000 -0.2120690266
C   C210      1.0  0.72114  0.51369  0.80552  1.0000 -0.2120690266
C   C211      1.0  0.21698  0.99823  0.15508  1.0000 -0.0087936741
C   C212      1.0  0.78302  0.49823  0.84492  1.0000 -0.0087936741
C   C213      1.0  0.22606  0.98385  0.09035  1.0000 -0.1409959858
C   C214      1.0  0.77394  0.48385  0.90965  1.0000 -0.1409959858
C   C215      1.0  0.17013  0.97088  0.04975  1.0000 -0.0585878414
C   C216      1.0  0.82987  0.47088  0.95025  1.0000 -0.0585878414
C   C217      1.0  0.10452  0.97162  0.07572  1.0000 -0.1494076993
C   C218      1.0  0.89548  0.47162  0.92428  1.0000 -0.1494076993
C   C219      1.0  0.09421  0.98315  0.14120  1.0000 0.0198227627
C   C220      1.0  0.90579  0.48315  0.85880  1.0000 0.0198227627
C   C221      1.0  0.02456  0.97660  0.17016  1.0000 -0.2120690266
C   C222      1.0  0.97544  0.47660  0.82984  1.0000 -0.2120690266
C   C223      1.0  0.01674  0.92735  0.19371  1.0000 0.0290340594
C   C224      1.0  0.98326  0.42735  0.80629  1.0000 0.0290340594
C   C225      1.0  0.00285  0.89185  0.14777  1.0000 -0.133661481
C   C226      1.0  0.99715  0.39185  0.85223  1.0000 -0.133661481
C   C227      1.0  0.00064  0.84499  0.16719  1.0000 -0.0874373522
C   C228      1.0  0.99936  0.34499  0.83281  1.0000 -0.0874373522
C   C229      1.0  0.01331  0.83334  0.23303  1.0000 -0.133661481
C   C230      1.0  0.98669  0.33333  0.76697  1.0000 -0.133661481
C   C231      1.0  0.02445  0.86842  0.28003  1.0000 0.0124777905
C   C232      1.0  0.97555  0.36842  0.71997  1.0000 0.0124777905
C   C233      1.0  0.04036  0.85407  0.34961  1.0000 -0.2190350518
C   C234      1.0  0.95964  0.35407  0.65039  1.0000 -0.2190350518
C   C235      1.0  0.11541  0.84303  0.35905  1.0000 -0.0087936741
C   C236      1.0  0.88459  0.34303  0.64095  1.0000 -0.0087936741
C   C237      1.0  0.13703  0.79651  0.35551  1.0000 -0.1494076993
C   C238      1.0  0.86297  0.29651  0.64449  1.0000 -0.1494076993
C   C239      1.0  0.20642  0.78505  0.36505  1.0000 -0.0585878414
C   C240      1.0  0.79358  0.28505  0.63495  1.0000 -0.0585878414
C   C241      1.0  0.25413  0.82043  0.37773  1.0000 -0.1494076993
C   C242      1.0  0.74587  0.32043  0.62227  1.0000 -0.1494076993
C   C243      1.0  0.23466  0.86680  0.37863  1.0000 0.0198227627
C   C244      1.0  0.76534  0.36680  0.62137  1.0000 0.0198227627
C   C245      1.0  0.28696  0.90432  0.39091  1.0000 -0.2120690266
C   C246      1.0  0.71304  0.40432  0.60909  1.0000 -0.2120690266
C   C247      1.0  0.31396  0.92069  0.32646  1.0000 0.0412121083
C   C248      1.0  0.68604  0.42069  0.67354  1.0000 0.0412121083
C   C249      1.0  0.35827  0.89162  0.29211  1.0000 -0.1409959858
C   C250      1.0  0.64173  0.39162  0.70789  1.0000 -0.1409959858
C   C251      1.0  0.37910  0.90245  0.22894  1.0000 -0.1000275959
C   C252      1.0  0.62090  0.40245  0.77106  1.0000 -0.1000275959
C   C253      1.0  0.35651  0.94374  0.19844  1.0000 -0.1494076993
C   C254      1.0  0.64349  0.44374  0.80156  1.0000 -0.1494076993
C   C255      1.0  0.15084  0.99659  0.18042  1.0000 0.207667126
C   C256      1.0  0.84916  0.49659  0.81958  1.0000 0.207667126
C   C257      1.0  0.29199  0.96132  0.29417  1.0000 0.1288574144
C   C258      1.0  0.70801  0.46132  0.70583  1.0000 0.1288574144
C   C259      1.0  0.16565  0.87784  0.36842  1.0000 0.1926248607
C   C260      1.0  0.83435  0.37784  0.63158  1.0000 0.1926248607
C   C261      1.0  0.02428  0.91479  0.25965  1.0000 0.1216540631
C   C262      1.0  0.97572  0.41479  0.74035  1.0000 0.1216540631
C   C263      1.0  0.18081  0.95644  0.98141  1.0000 0.5444116779
C   C264      1.0  0.81919  0.45644  0.01859  1.0000 0.5444116779
C   C265      1.0  0.23169  0.73693  0.36219  1.0000 0.5498581566
C   C266      1.0  0.76831  0.23693  0.63781  1.0000 0.5498581566
C   C267      1.0  0.77260  0.10642  0.85380  1.0000 0.0508879258
C   C268      1.0  0.22740  0.60642  0.14620  1.0000 0.0508879258
C   C269      1.0  0.73246  0.08983  0.90517  1.0000 0.0600611849
C   C270      1.0  0.26754  0.58983  0.09483  1.0000 0.0600611849
C   C271      1.0  0.70089  0.12193  0.94596  1.0000 0.0998969038
C   C272      1.0  0.29911  0.62193  0.05404  1.0000 0.0998969038
C   C273      1.0  0.71533  0.17014  0.93560  1.0000 -0.0046434829
C   C274      1.0  0.28467  0.67014  0.06440  1.0000 -0.0046434829
C   C275      1.0  0.68638  0.20606  0.97478  1.0000 -0.120604261
C   C276      1.0  0.31362  0.70606  0.02522  1.0000 -0.120604261
C   C277      1.0  0.69832  0.25179  0.96153  1.0000 -0.1094997441
C   C278      1.0  0.30168  0.75179  0.03847  1.0000 -0.1094997441
C   C279      1.0  0.74036  0.26557  0.90965  1.0000 -0.0087936741
C   C280      1.0  0.25964  0.76557  0.09035  1.0000 -0.0087936741
C   C281      1.0  0.75349  0.31307  0.89566  1.0000 0.0998969038
C   C282      1.0  0.24651  0.81307  0.10434  1.0000 0.0998969038
C   C283      1.0  0.79319  0.32409  0.84202  1.0000 0.0680356066
C   C284      1.0  0.20681  0.82409  0.15798  1.0000 0.0680356066
C   C285      1.0  0.81960  0.28663  0.80535  1.0000 0.0412121083
C   C286      1.0  0.18040  0.78663  0.19465  1.0000 0.0412121083
C   C287      1.0  0.76902  0.23067  0.86857  1.0000 0.1288574144
C   C288      1.0  0.23098  0.73067  0.13143  1.0000 0.1288574144
C   C289      1.0  0.75680  0.18293  0.88218  1.0000 0.1216540631
C   C290      1.0  0.24320  0.68293  0.11782  1.0000 0.1216540631
C   C291      1.0  0.72817  0.03772  0.90844  1.0000 -0.3991600895
C   C292      1.0  0.27183  0.53772  0.09156  1.0000 -0.3991600895
C   C293      1.0  0.64895  0.11075  0.99606  1.0000 -0.4092270347
C   C294      1.0  0.35105  0.61075  0.00394  1.0000 -0.4092270347
C   C295      1.0  0.72517  0.35018  0.93787  1.0000 -0.3910437835
C   C296      1.0  0.27483  0.85018  0.06213  1.0000 -0.3910437835
C   C297      1.0  0.81057  0.37265  0.82036  1.0000 -0.3910437835
C   C298      1.0  0.18943  0.87265  0.17964  1.0000 -0.3910437835
C   C299      1.0  0.30354  0.79335  0.69778  1.0000 0.0508879258
C   C300      1.0  0.69646  0.29335  0.30222  1.0000 0.0508879258
C   C301      1.0  0.27691  0.75885  0.65418  1.0000 0.0680356066
C   C302      1.0  0.72309  0.25885  0.34582  1.0000 0.0680356066
C   C303      1.0  0.23958  0.77274  0.59836  1.0000 0.0902698546
C   C304      1.0  0.76042  0.27274  0.40164  1.0000 0.0902698546
C   C305      1.0  0.22772  0.82165  0.58951  1.0000 -0.0087936741
C   C306      1.0  0.77228  0.32165  0.41049  1.0000 -0.0087936741
C   C307      1.0  0.18802  0.84048  0.53599  1.0000 -0.120604261
C   C308      1.0  0.81198  0.34048  0.46401  1.0000 -0.120604261
C   C309      1.0  0.17726  0.88722  0.52984  1.0000 -0.1094997441
C   C310      1.0  0.82274  0.38722  0.47016  1.0000 -0.1094997441
C   C311      1.0  0.20529  0.91922  0.57575  1.0000 -0.0046434829
C   C312      1.0  0.79471  0.41922  0.42425  1.0000 -0.0087936741
C   C313      1.0  0.19440  0.96813  0.56814  1.0000 0.0902698546
C   C314      1.0  0.80560  0.46813  0.43186  1.0000 0.0902698546
C   C315      1.0  0.22317  0.99697  0.61550  1.0000 0.0600611849
C   C316      1.0  0.77683  0.49697  0.38450  1.0000 0.0600611849
C   C317      1.0  0.26165  0.97703  0.66794  1.0000 0.0412121083
C   C318      1.0  0.73835  0.47703  0.33206  1.0000 0.0412121083
C   C319      1.0  0.24470  0.90237  0.63003  1.0000 0.1288574144
C   C320      1.0  0.75530  0.40237  0.36997  1.0000 0.1288574144
C   C321      1.0  0.25587  0.85316  0.63750  1.0000 0.1216540631
C   C322      1.0  0.74413  0.35316  0.36250  1.0000 0.1216540631
C   C323      1.0  0.28935  0.70892  0.67121  1.0000 -0.3910437835
C   C324      1.0  0.71065  0.20892  0.32879  1.0000 -0.3910437835
C   C325      1.0  0.21387  0.73654  0.55074  1.0000 -0.3910437835
C   C326      1.0  0.78613  0.23654  0.44926  1.0000 -0.3910437835
C   C327      1.0  0.15288  0.98621  0.51075  1.0000 -0.4092270347
C   C328      1.0  0.84712  0.48621  0.48925  1.0000 -0.3991600895
C   C329      1.0  0.21568  0.04878  0.61380  1.0000 -0.3991600895
C   C330      1.0  0.78432  0.54878  0.38620  1.0000 -0.3991600895
C   C331      1.0  0.35646  0.71696  0.25120  1.0000 0.0508879258
C   C332      1.0  0.64354  0.21696  0.74880  1.0000 0.0508879258
C   C333      1.0  0.39774  0.73064  0.19900  1.0000 0.0600611849
C   C334      1.0  0.60226  0.23064  0.80100  1.0000 0.0600611849
C   C335      1.0  0.42818  0.69827  0.15979  1.0000 0.0902698546
C   C336      1.0  0.57182  0.19827  0.84021  1.0000 0.0902698546
C   C337      1.0  0.41854  0.65025  0.17661  1.0000 -0.0087936741
C   C338      1.0  0.58146  0.15025  0.82339  1.0000 -0.0087936741
C   C339      1.0  0.45156  0.61337  0.14324  1.0000 -0.120604261
C   C340      1.0  0.54844  0.11337  0.85676  1.0000 -0.120604261
C   C341      1.0  0.44202  0.56753  0.16137  1.0000 -0.120604261
C   C342      1.0  0.55798  0.06753  0.83863  1.0000 -0.120604261
C   C343      1.0  0.39763  0.55615  0.21248  1.0000 -0.0087936741
C   C344      1.0  0.60237  0.05615  0.78752  1.0000 -0.0087936741
C   C345      1.0  0.38551  0.50951  0.23000  1.0000 0.0902698546
C   C346      1.0  0.61449  0.00951  0.77000  1.0000 0.0902698546
C   C347      1.0  0.33800  0.50097  0.27843  1.0000 0.0680356066
C   C348      1.0  0.66200  0.00097  0.72157  1.0000 0.0680356066
C   C349      1.0  0.30594  0.53927  0.30830  1.0000 0.0508879258
C   C350      1.0  0.69406  0.03927  0.69170  1.0000 0.0508879258
C   C351      1.0  0.36271  0.59244  0.24648  1.0000 0.1216540631
C   C352      1.0  0.63729  0.09244  0.75352  1.0000 0.1216540631
C   C353      1.0  0.37476  0.63969  0.22933  1.0000 0.1216540631
C   C354      1.0  0.62524  0.13969  0.77067  1.0000 0.1216540631
C   C355      1.0  0.40129  0.78213  0.19000  1.0000 -0.3991600895
C   C356      1.0  0.59871  0.28213  0.81000  1.0000 -0.3991600895
C   C357      1.0  0.46906  0.71196  0.10170  1.0000 -0.3991600895
C   C358      1.0  0.53094  0.21196  0.89830  1.0000 -0.3991600895
C   C359      1.0  0.42224  0.46999  0.19884  1.0000 -0.3991600895
C   C360      1.0  0.57776  0.96999  0.80116  1.0000 -0.3991600895
C   C361      1.0  0.32111  0.45311  0.30091  1.0000 -0.3910437835
C   C362      1.0  0.67889  0.95311  0.69909  1.0000 -0.3910437835
C   C363      1.0  0.13750  0.86354  0.75234  1.0000 0.0290340594
C   C364      1.0  0.86250  0.36354  0.24766  1.0000 0.0290340594
C   C365      1.0  0.09373  0.85144  0.69905  1.0000 0.0600611849
C   C366      1.0  0.90627  0.35144  0.30095  1.0000 0.0600611849
C   C367      1.0  0.05983  0.88615  0.66334  1.0000 0.0902698546
C   C368      1.0  0.94017  0.38615  0.33666  1.0000 0.0902698546
C   C369      1.0  0.07060  0.93359  0.68282  1.0000 -0.0046434829
C   C370      1.0  0.92940  0.43359  0.31718  1.0000 -0.0046434829
C   C371      1.0  0.03891  0.97204  0.65022  1.0000 -0.120604261
C   C372      1.0  0.96109  0.47204  0.34978  1.0000 -0.120604261
C   C373      1.0  0.05023  0.01739  0.67022  1.0000 -0.1094997441
C   C374      1.0  0.94977  0.51739  0.32978  1.0000 -0.1094997441
C   C375      1.0  0.09493  0.02698  0.72446  1.0000 -0.0087936741
C   C376      1.0  0.90507  0.52698  0.27554  1.0000 -0.0087936741
C   C377      1.0  0.10934  0.07283  0.74675  1.0000 0.1093048037
C   C378      1.0  0.89066  0.57283  0.25325  1.0000 0.1093048037
C   C379      1.0  0.15613  0.07906  0.79930  1.0000 0.0680356066
C   C380      1.0  0.84387  0.57906  0.20070  1.0000 0.0680356066
C   C381      1.0  0.18491  0.03865  0.82911  1.0000 0.0508879258
C   C382      1.0  0.81509  0.53865  0.17089  1.0000 0.0508879258
C   C383      1.0  0.12793  0.98908  0.75734  1.0000 0.1216540631
C   C384      1.0  0.87207  0.48908  0.24266  1.0000 0.1216540631
C   C385      1.0  0.11593  0.94212  0.73723  1.0000 0.1216540631
C   C386      1.0  0.88407  0.44212  0.26277  1.0000 0.1288574144
C   C387      1.0  0.08777  0.80054  0.68301  1.0000 -0.3991600895
C   C388      1.0  0.91223  0.30054  0.31699  1.0000 -0.3991600895
C   C389      1.0  0.01460  0.87518  0.60505  1.0000 -0.3991600895
C   C390      1.0  0.98540  0.37518  0.39495  1.0000 -0.3991600895
C   C391      1.0  0.07625  0.11438  0.71473  1.0000 -0.3991600895
C   C392      1.0  0.92375  0.61438  0.28527  1.0000 -0.3991600895
C   C393      1.0  0.17669  0.12564  0.82390  1.0000 -0.3910437835
C   C394      1.0  0.82331  0.62564  0.17610  1.0000 -0.3910437835
C   C395      1.0  0.87990  0.80126  0.77739  1.0000 0.0412121083
C   C396      1.0  0.12010  0.30126  0.22261  1.0000 0.0412121083
C   C397      1.0  0.92298  0.77474  0.73185  1.0000 -0.1798234664
C   C398      1.0  0.07702  0.27474  0.26815  1.0000 -0.1798234664
C   C399      1.0  0.51574  0.61025  0.83282  1.0000 0.0600611849
C   C400      1.0  0.48426  0.11025  0.16718  1.0000 0.0600611849
C   C401      1.0  0.49729  0.58429  0.89330  1.0000 -0.1798234664
C   C402      1.0  0.50271  0.08429  0.10670  1.0000 -0.1798234664
C   C403      1.0  0.44684  0.54466  0.87830  1.0000 -0.0707362724
C   C404      1.0  0.55316  0.04466  0.12170  1.0000 -0.0707362724
C   C405      1.0  0.47382  0.50982  0.82930  1.0000 -0.3482655398
C   C406      1.0  0.52618  0.00982  0.17070  1.0000 -0.3482655398
C   C407      1.0  0.97929  0.99825  0.38744  1.0000 -0.1663327329
C   C408      1.0  0.02071  0.49825  0.61256  1.0000 -0.1663327329
C   C409      1.0  0.96528  0.96271  0.33512  1.0000 0.0508879258
C   C410      1.0  0.03472  0.46271  0.66488  1.0000 0.0508879258
C   C411      1.0  0.23403  0.05963  0.38989  1.0000 -0.1798234664
C   C412      1.0  0.76597  0.55963  0.61011  1.0000 -0.1798234664
C   C413      1.0  0.26833  0.09205  0.43945  1.0000 -0.0707362724
C   C414      1.0  0.73167  0.59205  0.56055  1.0000 -0.0707362724
C   C415      1.0  0.22226  0.13126  0.46068  1.0000 -0.3482655398
C   C416      1.0  0.77774  0.63126  0.53932  1.0000 -0.3482655398
C   C417      1.0  0.18988  0.54789  0.84332  1.0000 0.0508879258
C   C418      1.0  0.81012  0.04789  0.15668  1.0000 0.0508879258
C   C419      1.0  0.02157  0.04075  0.36407  1.0000 -0.0809308502
C   C420      1.0  0.97843  0.54075  0.63593  1.0000 -0.0809308502
C   C421      1.0  0.26226  0.47778  0.81783  1.0000 -0.0707362724
C   C422      1.0  0.73774  0.97778  0.18217  1.0000 -0.0707362724
C   C423      1.0  0.23749  0.51074  0.87174  1.0000 -0.1861263662
C   C424      1.0  0.76251  0.01074  0.12826  1.0000 -0.1861263662
C   C425      1.0  0.00370  0.08285  0.31984  1.0000 -0.3327516429
C   C426      1.0  0.99630  0.58285  0.68016  1.0000 -0.3327516429
C   C427      1.0  0.31067  0.44003  0.84279  1.0000 -0.3482655398
C   C428      1.0  0.68933  0.94003  0.15721  1.0000 -0.3482655398
C   C429      1.0  0.86464  0.78702  0.44630  1.0000 -0.0707362724
C   C430      1.0  0.13536  0.28702  0.55370  1.0000 -0.0707362724
C   C431      1.0  0.93217  0.76144  0.44346  1.0000 -0.3436302654
C   C432      1.0  0.06783  0.26144  0.55654  1.0000 -0.3436302654
N   N1        1.0  0.78408  0.15081  0.84088  1.0000 -0.2643832378
N   N2        1.0  0.21592  0.65081  0.15912  1.0000 -0.2643832378
N   N3        1.0  0.80777  0.24148  0.81690  1.0000 -0.2720489495
N   N4        1.0  0.19223  0.74148  0.18310  1.0000 -0.2720489495
N   N5        1.0  0.29371  0.83888  0.69086  1.0000 -0.279718671
N   N6        1.0  0.70629  0.33888  0.30914  1.0000 -0.279718671
N   N7        1.0  0.27283  0.93135  0.67621  1.0000 -0.2720489495
N   N8        1.0  0.72717  0.43135  0.32379  1.0000 -0.2720489495
N   N9        1.0  0.34330  0.67282  0.26590  1.0000 -0.2720489495
N   N10       1.0  0.65670  0.17282  0.73410  1.0000 -0.2720489495
N   N11       1.0  0.31769  0.58339  0.29434  1.0000 -0.2720489495
N   N12       1.0  0.68231  0.08339  0.70566  1.0000 -0.2720489495
N   N13       1.0  0.14911  0.90775  0.77114  1.0000 -0.2720489495
N   N14       1.0  0.85089  0.40775  0.22886  1.0000 -0.2720489495
N   N15       1.0  0.17209  0.99536  0.80947  1.0000 -0.279718671
N   N16       1.0  0.82791  0.49536  0.19053  1.0000 -0.279718671
O   O1        1.0  0.25003  0.26055  0.89261  1.0000 -0.45768575
O   O2        1.0  0.74997  0.76055  0.10739  1.0000 -0.45768575
O   O3        1.0  0.34310  0.24371  0.80387  1.0000 -0.2496279565
O   O4        1.0  0.65690  0.74371  0.19613  1.0000 -0.2496279565
O   O5        1.0  0.37306  0.17051  0.90056  1.0000 -0.45768575
O   O6        1.0  0.62694  0.67051  0.09944  1.0000 -0.45768575
O   O7        1.0  0.29989  0.19310  0.00061  1.0000 -0.2496279565
O   O8        1.0  0.70011  0.69310  0.99939  1.0000 -0.2496279565
O   O9        1.0  0.96150  0.21500  0.75379  1.0000 -0.5615769465
O   O10       1.0  0.03850  0.71500  0.24621  1.0000 -0.5615769465
O   O11       1.0  0.94120  0.19394  0.85849  1.0000 -0.5301585806
O   O12       1.0  0.05880  0.69394  0.14151  1.0000 -0.5301585806
O   O13       1.0  0.32665  0.95875  0.82404  1.0000 -0.5615769465
O   O14       1.0  0.67335  0.45875  0.17596  1.0000 -0.5615769465
O   O15       1.0  0.40606  0.97680  0.75134  1.0000 -0.5301585806
O   O16       1.0  0.59394  0.47680  0.24866  1.0000 -0.5301585806
O   O17       1.0  0.73834  0.81907  0.63781  1.0000 -0.45768575
O   O18       1.0  0.26166  0.31907  0.36219  1.0000 -0.45768575
O   O19       1.0  0.83554  0.83037  0.73585  1.0000 -0.240435943
O   O20       1.0  0.16446  0.33037  0.26415  1.0000 -0.240435943
O   O21       1.0  0.86139  0.90153  0.63889  1.0000 -0.45768575
O   O22       1.0  0.13861  0.40153  0.36111  1.0000 -0.45768575
O   O23       1.0  0.78825  0.87783  0.53048  1.0000 -0.2496279565
O   O24       1.0  0.21175  0.37783  0.46952  1.0000 -0.2496279565
O   O25       1.0  0.43045  0.88670  0.66512  1.0000 -0.5301585806
O   O26       1.0  0.56955  0.38670  0.33488  1.0000 -0.5301585806
O   O27       1.0  0.45201  0.86205  0.76874  1.0000 -0.5615769465
O   O28       1.0  0.54799  0.36205  0.23126  1.0000 -0.5615769465
O   O29       1.0  0.83522  0.11755  0.69548  1.0000 -0.5615769465
O   O30       1.0  0.16478  0.61755  0.30452  1.0000 -0.5615769465
O   O31       1.0  0.91345  0.09935  0.77378  1.0000 -0.5301585806
O   O32       1.0  0.08655  0.59935  0.22622  1.0000 -0.5301585806
O   O33       1.0  0.34499  0.57134  0.73686  1.0000 -0.4696635268
O   O34       1.0  0.65501  0.07134  0.26314  1.0000 -0.4696635268
O   O35       1.0  0.23085  0.58397  0.81253  1.0000 -0.2496279565
O   O36       1.0  0.76915  0.08397  0.18747  1.0000 -0.2496279565
O   O37       1.0  0.33020  0.65098  0.85612  1.0000 -0.4805399589
O   O38       1.0  0.66980  0.15098  0.14388  1.0000 -0.4805399589
O   O39       1.0  0.45050  0.62605  0.80486  1.0000 -0.240435943
O   O40       1.0  0.54950  0.12605  0.19514  1.0000 -0.240435943
O   O41       1.0  0.35511  0.62809  0.43628  1.0000 -0.5301585806
O   O42       1.0  0.64489  0.12809  0.56372  1.0000 -0.5301585806
O   O43       1.0  0.24094  0.61696  0.44586  1.0000 -0.5512437932
O   O44       1.0  0.75906  0.11696  0.55414  1.0000 -0.5512437932
O   O45       1.0  0.29527  0.87008  0.84330  1.0000 -0.5615769465
O   O46       1.0  0.70473  0.37008  0.15670  1.0000 -0.5615769465
O   O47       1.0  0.20133  0.85042  0.89821  1.0000 -0.5245100669
O   O48       1.0  0.79867  0.35042  0.10179  1.0000 -0.5245100669
O   O49       1.0  0.13831  0.00766  0.24522  1.0000 -0.4696635268
O   O50       1.0  0.86169  0.50766  0.75478  1.0000 -0.4696635268
O   O51       1.0  0.24777  0.99201  0.32572  1.0000 -0.2496279565
O   O52       1.0  0.75223  0.49201  0.67428  1.0000 -0.2496279565
O   O53       1.0  0.14994  0.92490  0.37148  1.0000 -0.4805399589
O   O54       1.0  0.85006  0.42490  0.62852  1.0000 -0.4805399589
O   O55       1.0  0.03155  0.94983  0.30857  1.0000 -0.2496279565
O   O56       1.0  0.96845  0.44983  0.69143  1.0000 -0.2496279565
O   O57       1.0  0.24351  0.95886  0.96132  1.0000 -0.5512437932
O   O58       1.0  0.75649  0.45886  0.03868  1.0000 -0.5615769465
O   O59       1.0  0.13070  0.94275  0.94562  1.0000 -0.5366270653
O   O60       1.0  0.86930  0.44275  0.05438  1.0000 -0.5366270653
O   O61       1.0  0.19375  0.70640  0.33102  1.0000 -0.5654178373
O   O62       1.0  0.80625  0.20640  0.66898  1.0000 -0.5654178373
O   O63       1.0  0.28863  0.72684  0.38869  1.0000 -0.5301585806
O   O64       1.0  0.71137  0.22684  0.61131  1.0000 -0.5301585806
