# DDEC6 charges by PACMAN v1.1 (https://github.com/mtap-research/PACMAN-charge/)
data_2013[Zn][nan]3[ASR]25
_chemical_formula_sum              "Zn12 H108 C152 N4 O36"
_cell_length_a       16.304
_cell_length_b       27.649
_cell_length_c       16.4078
_cell_angle_alpha    90
_cell_angle_beta     117.32
_cell_angle_gamma    90

_symmetry_space_group_name_H-M    "P 1"
_symmetry_Int_Tables_number       1

loop_
  _symmetry_equiv_pos_as_xyz
  'x, y, z'

loop_
  _atom_site_type_symbol
  _atom_site_label
  _atom_site_symmetry_multiplicity
  _atom_site_fract_x
  _atom_site_fract_y
  _atom_site_fract_z
  _atom_site_occupancy
  _atom_site_charge
Zn  Zn1       1.0  0.05511  0.97178  0.81119  1.0000 0.8380870366
Zn  Zn2       1.0  0.05511  0.52822  0.81119  1.0000 0.8380870366
Zn  Zn3       1.0  0.97827  0.82527  0.84629  1.0000 0.6909716273
Zn  Zn4       1.0  0.97827  0.67473  0.84629  1.0000 0.6909716273
Zn  Zn5       1.0  0.05480  0.85036  0.80343  1.0000 0.8081864262
Zn  Zn6       1.0  0.05480  0.64964  0.80343  1.0000 0.8081864262
Zn  Zn7       1.0  0.94489  0.47178  0.18881  1.0000 0.8380870366
Zn  Zn8       1.0  0.94489  0.02822  0.18881  1.0000 0.8380870366
Zn  Zn9       1.0  0.02173  0.32527  0.15371  1.0000 0.6909716273
Zn  Zn10      1.0  0.02173  0.17473  0.15371  1.0000 0.6909716273
Zn  Zn11      1.0  0.94520  0.35036  0.19657  1.0000 0.8081864262
Zn  Zn12      1.0  0.94520  0.14964  0.19657  1.0000 0.8081864262
H   H1        1.0  0.21620  0.99740  0.66580  1.0000 0.1200538626
H   H2        1.0  0.21620  0.50260  0.66580  1.0000 0.1200538626
H   H3        1.0  0.51130  0.88750  0.69200  1.0000 0.1282311863
H   H4        1.0  0.51130  0.61250  0.69200  1.0000 0.1282311863
H   H5        1.0  0.55570  0.93770  0.68360  1.0000 0.1282311863
H   H6        1.0  0.55570  0.56230  0.68360  1.0000 0.1282311863
H   H7        1.0  0.46060  0.93740  0.69000  1.0000 0.1200538626
H   H8        1.0  0.46060  0.56260  0.69000  1.0000 0.1200538626
H   H9        1.0  0.29050  0.98450  0.25130  1.0000 0.1200538626
H   H10       1.0  0.29050  0.51550  0.25130  1.0000 0.1200538626
H   H11       1.0  0.61090  0.98830  0.53630  1.0000 0.1200538626
H   H12       1.0  0.61090  0.51170  0.53630  1.0000 0.1200538626
H   H13       1.0  0.55860  0.91080  0.39200  1.0000 0.1282311863
H   H14       1.0  0.55860  0.58920  0.39200  1.0000 0.1282311863
H   H15       1.0  0.46370  0.90320  0.30050  1.0000 0.1282311863
H   H16       1.0  0.46370  0.59680  0.30050  1.0000 0.1282311863
H   H17       1.0  0.49700  0.95660  0.33960  1.0000 0.1282311863
H   H18       1.0  0.49700  0.54340  0.33960  1.0000 0.1282311863
H   H19       1.0  0.77200  0.84960  0.68340  1.0000 0.1200538626
H   H20       1.0  0.77200  0.65040  0.68340  1.0000 0.1200538626
H   H21       1.0  0.17160  0.91820  0.41740  1.0000 0.1282311863
H   H22       1.0  0.17160  0.58180  0.41740  1.0000 0.1282311863
H   H23       1.0  0.16880  0.92710  0.31980  1.0000 0.1282311863
H   H24       1.0  0.16880  0.57290  0.31980  1.0000 0.1282311863
H   H25       1.0  0.17900  0.87330  0.35950  1.0000 0.1356522436
H   H26       1.0  0.17900  0.62670  0.35950  1.0000 0.1356522436
H   H27       1.0  0.29720  0.99080  0.58100  1.0000 0.1200538626
H   H28       1.0  0.29720  0.50920  0.58100  1.0000 0.1200538626
H   H29       1.0  0.61090  0.84780  0.59490  1.0000 0.1200538626
H   H30       1.0  0.61090  0.65220  0.59490  1.0000 0.1200538626
H   H31       1.0  0.28330  0.84750  0.58560  1.0000 0.1200538626
H   H32       1.0  0.28330  0.65250  0.58560  1.0000 0.1200538626
H   H33       1.0  0.20120  0.98480  0.08970  1.0000 0.1200538626
H   H34       1.0  0.20120  0.51520  0.08970  1.0000 0.1200538626
H   H35       1.0  0.28320  0.84010  0.25360  1.0000 0.1200538626
H   H36       1.0  0.28320  0.65990  0.25360  1.0000 0.1200538626
H   H37       1.0  0.14730  0.05800  0.77850  1.0000 0.1127191032
H   H38       1.0  0.14730  0.44200  0.77850  1.0000 0.1127191032
H   H39       1.0  0.94390  0.20820  0.85350  1.0000 0.1127191032
H   H40       1.0  0.94390  0.29180  0.85350  1.0000 0.1127191032
H   H41       1.0  0.19230  0.83870  0.09650  1.0000 0.1200538626
H   H42       1.0  0.19230  0.66130  0.09650  1.0000 0.1200538626
H   H43       1.0  0.77290  0.99010  0.61720  1.0000 0.1127191032
H   H44       1.0  0.77290  0.50990  0.61720  1.0000 0.1127191032
H   H45       1.0  0.97920  0.05030  0.89150  1.0000 0.1127191032
H   H46       1.0  0.97920  0.44970  0.89150  1.0000 0.1127191032
H   H47       1.0  0.20060  0.85340  0.66960  1.0000 0.1282311863
H   H48       1.0  0.20060  0.64660  0.66960  1.0000 0.1282311863
H   H49       1.0  0.98600  0.13210  0.91260  1.0000 0.1200538626
H   H50       1.0  0.98600  0.36790  0.91260  1.0000 0.1200538626
H   H51       1.0  0.20220  0.20800  0.87920  1.0000 0.1018798905
H   H52       1.0  0.20220  0.29200  0.87920  1.0000 0.1018798905
H   H53       1.0  0.15270  0.14080  0.79200  1.0000 0.1282311863
H   H54       1.0  0.15270  0.35920  0.79200  1.0000 0.1282311863
H   H55       1.0  0.78380  0.49740  0.33420  1.0000 0.1200538626
H   H56       1.0  0.78380  0.00260  0.33420  1.0000 0.1200538626
H   H57       1.0  0.48870  0.38750  0.30800  1.0000 0.1282311863
H   H58       1.0  0.48870  0.11250  0.30800  1.0000 0.1282311863
H   H59       1.0  0.44430  0.43770  0.31640  1.0000 0.1282311863
H   H60       1.0  0.44430  0.06230  0.31640  1.0000 0.1282311863
H   H61       1.0  0.53940  0.43740  0.31000  1.0000 0.1200538626
H   H62       1.0  0.53940  0.06260  0.31000  1.0000 0.1200538626
H   H63       1.0  0.70950  0.48450  0.74870  1.0000 0.1200538626
H   H64       1.0  0.70950  0.01550  0.74870  1.0000 0.1200538626
H   H65       1.0  0.38910  0.48830  0.46370  1.0000 0.1200538626
H   H66       1.0  0.38910  0.01170  0.46370  1.0000 0.1200538626
H   H67       1.0  0.44140  0.41080  0.60800  1.0000 0.1282311863
H   H68       1.0  0.44140  0.08920  0.60800  1.0000 0.1282311863
H   H69       1.0  0.53630  0.40320  0.69950  1.0000 0.1282311863
H   H70       1.0  0.53630  0.09680  0.69950  1.0000 0.1282311863
H   H71       1.0  0.50300  0.45660  0.66040  1.0000 0.1282311863
H   H72       1.0  0.50300  0.04340  0.66040  1.0000 0.1282311863
H   H73       1.0  0.22800  0.34960  0.31660  1.0000 0.1200538626
H   H74       1.0  0.22800  0.15040  0.31660  1.0000 0.1200538626
H   H75       1.0  0.82840  0.41820  0.58260  1.0000 0.1282311863
H   H76       1.0  0.82840  0.08180  0.58260  1.0000 0.1282311863
H   H77       1.0  0.83120  0.42710  0.68020  1.0000 0.1282311863
H   H78       1.0  0.83120  0.07290  0.68020  1.0000 0.1282311863
H   H79       1.0  0.82100  0.37330  0.64050  1.0000 0.1356522436
H   H80       1.0  0.82100  0.12670  0.64050  1.0000 0.1356522436
H   H81       1.0  0.70280  0.49080  0.41900  1.0000 0.1200538626
H   H82       1.0  0.70280  0.00920  0.41900  1.0000 0.1200538626
H   H83       1.0  0.38910  0.34780  0.40510  1.0000 0.1200538626
H   H84       1.0  0.38910  0.15220  0.40510  1.0000 0.1200538626
H   H85       1.0  0.71670  0.34750  0.41440  1.0000 0.1200538626
H   H86       1.0  0.71670  0.15250  0.41440  1.0000 0.1200538626
H   H87       1.0  0.79880  0.48480  0.91030  1.0000 0.1200538626
H   H88       1.0  0.79880  0.01520  0.91030  1.0000 0.1200538626
H   H89       1.0  0.71680  0.34010  0.74640  1.0000 0.1200538626
H   H90       1.0  0.71680  0.15990  0.74640  1.0000 0.1200538626
H   H91       1.0  0.85270  0.55800  0.22150  1.0000 0.1127191032
H   H92       1.0  0.85270  0.94200  0.22150  1.0000 0.1127191032
H   H93       1.0  0.05610  0.70820  0.14650  1.0000 0.1127191032
H   H94       1.0  0.05610  0.79180  0.14650  1.0000 0.1127191032
H   H95       1.0  0.80770  0.33870  0.90350  1.0000 0.1200538626
H   H96       1.0  0.80770  0.16130  0.90350  1.0000 0.1200538626
H   H97       1.0  0.22710  0.49010  0.38280  1.0000 0.1127191032
H   H98       1.0  0.22710  0.00990  0.38280  1.0000 0.1127191032
H   H99       1.0  0.02080  0.55030  0.10850  1.0000 0.1127191032
H   H100      1.0  0.02080  0.94970  0.10850  1.0000 0.1127191032
H   H101      1.0  0.79940  0.35340  0.33040  1.0000 0.1282311863
H   H102      1.0  0.79940  0.14660  0.33040  1.0000 0.1282311863
H   H103      1.0  0.01400  0.63210  0.08740  1.0000 0.1200538626
H   H104      1.0  0.01400  0.86790  0.08740  1.0000 0.1200538626
H   H105      1.0  0.79780  0.70800  0.12080  1.0000 0.1018798905
H   H106      1.0  0.79780  0.79200  0.12080  1.0000 0.1018798905
H   H107      1.0  0.84730  0.64080  0.20800  1.0000 0.1282311863
H   H108      1.0  0.84730  0.85920  0.20800  1.0000 0.1282311863
C   C1        1.0  0.23040  0.96640  0.65080  1.0000 -0.1001888549
C   C2        1.0  0.23040  0.53360  0.65080  1.0000 -0.1001888549
C   C3        1.0  0.29760  0.91800  0.57380  1.0000 0.0908548268
C   C4        1.0  0.29760  0.58200  0.57380  1.0000 0.0908548268
C   C5        1.0  0.44430  0.91720  0.56220  1.0000 0.0714316996
C   C6        1.0  0.44430  0.58280  0.56220  1.0000 0.0714316996
C   C7        1.0  0.29990  0.91250  0.42210  1.0000 0.0783128696
C   C8        1.0  0.29990  0.58750  0.42210  1.0000 0.0783128696
C   C9        1.0  0.44380  0.91870  0.41370  1.0000 0.0783128696
C   C10       1.0  0.44380  0.58130  0.41370  1.0000 0.0783128696
C   C11       1.0  0.49770  0.92020  0.66620  1.0000 -0.4492284065
C   C12       1.0  0.49770  0.57980  0.66620  1.0000 -0.4492284065
C   C13       1.0  0.34810  0.91600  0.51810  1.0000 -0.0610132074
C   C14       1.0  0.34810  0.58400  0.51810  1.0000 -0.0610132074
C   C15       1.0  0.27030  0.95470  0.21950  1.0000 -0.1520284941
C   C16       1.0  0.27030  0.54530  0.21950  1.0000 -0.1520284941
C   C17       1.0  0.07220  0.19790  0.86290  1.0000 0.0469362581
C   C18       1.0  0.07220  0.30210  0.86290  1.0000 0.0469362581
C   C19       1.0  0.49260  0.91760  0.50930  1.0000 -0.0691224323
C   C20       1.0  0.49260  0.58240  0.50930  1.0000 -0.0691224323
C   C21       1.0  0.64320  0.95960  0.56540  1.0000 -0.1580443015
C   C22       1.0  0.64320  0.54040  0.56540  1.0000 -0.1580443015
C   C23       1.0  0.49540  0.92270  0.35630  1.0000 -0.4492284065
C   C24       1.0  0.49540  0.57730  0.35630  1.0000 -0.4492284065
C   C25       1.0  0.73970  0.87820  0.65360  1.0000 -0.1001888549
C   C26       1.0  0.73970  0.62180  0.65360  1.0000 -0.1001888549
C   C27       1.0  0.59410  0.91870  0.55710  1.0000 0.0908548268
C   C28       1.0  0.59410  0.58130  0.55710  1.0000 0.0908548268
C   C29       1.0  0.19560  0.90730  0.37560  1.0000 -0.4664011901
C   C30       1.0  0.19560  0.59270  0.37560  1.0000 -0.4664011901
C   C31       1.0  0.78730  0.92040  0.66220  1.0000 -0.046713757
C   C32       1.0  0.78730  0.57960  0.66220  1.0000 -0.046713757
C   C33       1.0  0.29420  0.91230  0.26870  1.0000 0.1018798905
C   C34       1.0  0.29420  0.58770  0.26870  1.0000 0.1018798905
C   C35       1.0  0.34820  0.91520  0.37030  1.0000 -0.0691224323
C   C36       1.0  0.34820  0.58480  0.37030  1.0000 -0.0691224323
C   C37       1.0  0.20420  0.92540  0.68000  1.0000 -0.046713757
C   C38       1.0  0.20420  0.57460  0.68000  1.0000 -0.046713757
C   C39       1.0  0.89010  0.92300  0.72350  1.0000 0.5905026043
C   C40       1.0  0.89010  0.57700  0.72350  1.0000 0.5905026043
C   C41       1.0  0.27780  0.96220  0.59930  1.0000 -0.1580443015
C   C42       1.0  0.27780  0.53780  0.59930  1.0000 -0.1580443015
C   C43       1.0  0.18720  0.91090  0.07850  1.0000 -0.0610132074
C   C44       1.0  0.18720  0.58910  0.07850  1.0000 -0.0610132074
C   C45       1.0  0.06900  0.14670  0.85410  1.0000 0.1127191032
C   C46       1.0  0.06900  0.35330  0.85410  1.0000 0.1127191032
C   C47       1.0  0.64320  0.87730  0.60090  1.0000 -0.1442120826
C   C48       1.0  0.64320  0.62270  0.60090  1.0000 -0.1442120826
C   C49       1.0  0.26990  0.87850  0.60140  1.0000 -0.1520284941
C   C50       1.0  0.26990  0.62150  0.60140  1.0000 -0.1520284941
C   C51       1.0  0.21660  0.95530  0.12300  1.0000 -0.1060664987
C   C52       1.0  0.21660  0.54470  0.12300  1.0000 -0.1060664987
C   C53       1.0  0.26560  0.86980  0.22110  1.0000 -0.1580443015
C   C54       1.0  0.26560  0.63020  0.22110  1.0000 -0.1580443015
C   C55       1.0  0.11260  0.07320  0.80460  1.0000 0.0714316996
C   C56       1.0  0.11260  0.42680  0.80460  1.0000 0.0714316996
C   C57       1.0  0.99660  0.22490  0.85740  1.0000 -0.1349873548
C   C58       1.0  0.99660  0.27510  0.85740  1.0000 -0.1349873548
C   C59       1.0  0.21200  0.86880  0.12730  1.0000 -0.1060664987
C   C60       1.0  0.21200  0.63120  0.12730  1.0000 -0.1060664987
C   C61       1.0  0.15170  0.92940  0.73390  1.0000 0.5733616496
C   C62       1.0  0.15170  0.57060  0.73390  1.0000 0.5733616496
C   C63       1.0  0.74030  0.96130  0.61550  1.0000 -0.1060664987
C   C64       1.0  0.74030  0.53870  0.61550  1.0000 -0.1060664987
C   C65       1.0  0.01540  0.06890  0.87120  1.0000 0.0714316996
C   C66       1.0  0.01540  0.43110  0.87120  1.0000 0.0714316996
C   C67       1.0  0.22160  0.88210  0.65310  1.0000 -0.0890245313
C   C68       1.0  0.22160  0.61790  0.65310  1.0000 -0.0890245313
C   C69       1.0  0.12770  0.91190  0.97610  1.0000 0.5905026043
C   C70       1.0  0.12770  0.58810  0.97610  1.0000 0.5905026043
C   C71       1.0  0.01870  0.11780  0.88350  1.0000 -0.1943470767
C   C72       1.0  0.01870  0.38220  0.88350  1.0000 -0.1943470767
C   C73       1.0  0.14850  0.22470  0.87250  1.0000 -0.1442120826
C   C74       1.0  0.14850  0.27530  0.87250  1.0000 -0.1442120826
C   C75       1.0  0.11690  0.12270  0.81350  1.0000 -0.1958305096
C   C76       1.0  0.11690  0.37730  0.81350  1.0000 -0.1958305096
C   C77       1.0  0.76960  0.46640  0.34920  1.0000 -0.1001888549
C   C78       1.0  0.76960  0.03360  0.34920  1.0000 -0.1001888549
C   C79       1.0  0.70240  0.41800  0.42620  1.0000 0.0908548268
C   C80       1.0  0.70240  0.08200  0.42620  1.0000 0.0908548268
C   C81       1.0  0.55570  0.41720  0.43780  1.0000 0.0714316996
C   C82       1.0  0.55570  0.08280  0.43780  1.0000 0.0714316996
C   C83       1.0  0.70010  0.41250  0.57790  1.0000 0.0783128696
C   C84       1.0  0.70010  0.08750  0.57790  1.0000 0.0783128696
C   C85       1.0  0.55620  0.41870  0.58630  1.0000 0.0783128696
C   C86       1.0  0.55620  0.08130  0.58630  1.0000 0.0783128696
C   C87       1.0  0.50230  0.42020  0.33380  1.0000 -0.4492284065
C   C88       1.0  0.50230  0.07980  0.33380  1.0000 -0.4492284065
C   C89       1.0  0.65190  0.41600  0.48190  1.0000 -0.0610132074
C   C90       1.0  0.65190  0.08400  0.48190  1.0000 -0.0610132074
C   C91       1.0  0.72970  0.45470  0.78050  1.0000 -0.1520284941
C   C92       1.0  0.72970  0.04530  0.78050  1.0000 -0.1520284941
C   C93       1.0  0.92780  0.69790  0.13710  1.0000 0.0469362581
C   C94       1.0  0.92780  0.80210  0.13710  1.0000 0.0469362581
C   C95       1.0  0.50740  0.41760  0.49070  1.0000 -0.0691224323
C   C96       1.0  0.50740  0.08240  0.49070  1.0000 -0.0691224323
C   C97       1.0  0.35680  0.45960  0.43460  1.0000 -0.1580443015
C   C98       1.0  0.35680  0.04040  0.43460  1.0000 -0.1580443015
C   C99       1.0  0.50460  0.42270  0.64370  1.0000 -0.4492284065
C   C100      1.0  0.50460  0.07730  0.64370  1.0000 -0.4492284065
C   C101      1.0  0.26030  0.37820  0.34640  1.0000 -0.1001888549
C   C102      1.0  0.26030  0.12180  0.34640  1.0000 -0.1001888549
C   C103      1.0  0.40590  0.41870  0.44290  1.0000 0.0908548268
C   C104      1.0  0.40590  0.08130  0.44290  1.0000 0.0908548268
C   C105      1.0  0.80440  0.40730  0.62440  1.0000 -0.4664011901
C   C106      1.0  0.80440  0.09270  0.62440  1.0000 -0.4664011901
C   C107      1.0  0.21270  0.42040  0.33780  1.0000 -0.046713757
C   C108      1.0  0.21270  0.07960  0.33780  1.0000 -0.046713757
C   C109      1.0  0.70580  0.41230  0.73130  1.0000 0.1018798905
C   C110      1.0  0.70580  0.08770  0.73130  1.0000 0.1018798905
C   C111      1.0  0.65180  0.41520  0.62970  1.0000 -0.0691224323
C   C112      1.0  0.65180  0.08480  0.62970  1.0000 -0.0691224323
C   C113      1.0  0.79580  0.42540  0.32000  1.0000 -0.046713757
C   C114      1.0  0.79580  0.07460  0.32000  1.0000 -0.046713757
C   C115      1.0  0.10990  0.42300  0.27650  1.0000 0.5905026043
C   C116      1.0  0.10990  0.07700  0.27650  1.0000 0.5905026043
C   C117      1.0  0.72220  0.46220  0.40070  1.0000 -0.1656705742
C   C118      1.0  0.72220  0.03780  0.40070  1.0000 -0.1656705742
C   C119      1.0  0.81280  0.41090  0.92150  1.0000 -0.0610132074
C   C120      1.0  0.81280  0.08910  0.92150  1.0000 -0.0610132074
C   C121      1.0  0.93100  0.64670  0.14590  1.0000 0.1127191032
C   C122      1.0  0.93100  0.85330  0.14590  1.0000 0.1127191032
C   C123      1.0  0.35680  0.37730  0.39910  1.0000 -0.1442120826
C   C124      1.0  0.35680  0.12270  0.39910  1.0000 -0.1442120826
C   C125      1.0  0.73010  0.37850  0.39860  1.0000 -0.1520284941
C   C126      1.0  0.73010  0.12150  0.39860  1.0000 -0.1520284941
C   C127      1.0  0.78340  0.45530  0.87700  1.0000 -0.1001888549
C   C128      1.0  0.78340  0.04470  0.87700  1.0000 -0.1001888549
C   C129      1.0  0.73440  0.36980  0.77890  1.0000 -0.1580443015
C   C130      1.0  0.73440  0.13020  0.77890  1.0000 -0.1580443015
C   C131      1.0  0.88740  0.57320  0.19540  1.0000 0.0714316996
C   C132      1.0  0.88740  0.92680  0.19540  1.0000 0.0714316996
C   C133      1.0  0.00340  0.72490  0.14260  1.0000 -0.1349873548
C   C134      1.0  0.00340  0.77510  0.14260  1.0000 -0.1349873548
C   C135      1.0  0.78800  0.36880  0.87270  1.0000 -0.1060664987
C   C136      1.0  0.78800  0.13120  0.87270  1.0000 -0.1060664987
C   C137      1.0  0.84830  0.42940  0.26610  1.0000 0.5733616496
C   C138      1.0  0.84830  0.07060  0.26610  1.0000 0.5733616496
C   C139      1.0  0.25970  0.46130  0.38450  1.0000 -0.1060664987
C   C140      1.0  0.25970  0.03870  0.38450  1.0000 -0.1060664987
C   C141      1.0  0.98460  0.56890  0.12880  1.0000 0.0714316996
C   C142      1.0  0.98460  0.93110  0.12880  1.0000 0.0714316996
C   C143      1.0  0.77840  0.38210  0.34690  1.0000 -0.0890245313
C   C144      1.0  0.77840  0.11790  0.34690  1.0000 -0.0890245313
C   C145      1.0  0.87230  0.41190  0.02390  1.0000 0.5905026043
C   C146      1.0  0.87230  0.08810  0.02390  1.0000 0.5905026043
C   C147      1.0  0.98130  0.61780  0.11650  1.0000 -0.1943470767
C   C148      1.0  0.98130  0.88220  0.11650  1.0000 -0.1943470767
C   C149      1.0  0.85150  0.72470  0.12750  1.0000 -0.1442120826
C   C150      1.0  0.85150  0.77530  0.12750  1.0000 -0.1442120826
C   C151      1.0  0.88310  0.62270  0.18650  1.0000 -0.1958305096
C   C152      1.0  0.88310  0.87730  0.18650  1.0000 -0.1958305096
N   N1        1.0  0.06130  0.04510  0.83130  1.0000 -0.2453625655
N   N2        1.0  0.06130  0.45490  0.83130  1.0000 -0.2453625655
N   N3        1.0  0.93870  0.54510  0.16870  1.0000 -0.2453625655
N   N4        1.0  0.93870  0.95490  0.16870  1.0000 -0.2453625655
O   O1        1.0  0.93230  0.88430  0.75570  1.0000 -0.5388491904
O   O2        1.0  0.93230  0.61570  0.75570  1.0000 -0.5388491904
O   O3        1.0  0.92750  0.96390  0.73510  1.0000 -0.5388491904
O   O4        1.0  0.92750  0.53610  0.73510  1.0000 -0.5388491904
O   O5        1.0  0.10840  0.95280  0.93730  1.0000 -0.5567387795
O   O6        1.0  0.10840  0.54720  0.93730  1.0000 -0.5567387795
O   O7        1.0  0.09890  0.87290  0.93810  1.0000 -0.5310309982
O   O8        1.0  0.09890  0.62710  0.93810  1.0000 -0.5310309982
O   O9        1.0  0.13460  0.96990  0.75370  1.0000 -0.5238960391
O   O10       1.0  0.13460  0.53010  0.75370  1.0000 -0.5238960391
O   O11       1.0  0.12680  0.89240  0.75520  1.0000 -0.5000640606
O   O12       1.0  0.12680  0.60760  0.75520  1.0000 -0.5000640606
O   O13       1.0  0.02950  0.77260  0.93580  1.0000 -0.0890245313
O   O14       1.0  0.02950  0.72740  0.93580  1.0000 -0.0890245313
O   O15       1.0  0.06260  0.80940  0.78770  1.0000 -0.4439731097
O   O16       1.0  0.06260  0.69060  0.78770  1.0000 -0.4439731097
O   O17       1.0  0.87630  0.77680  0.75710  1.0000 -0.3023129558
O   O18       1.0  0.87630  0.72320  0.75710  1.0000 -0.3023129558
O   O19       1.0  0.06770  0.38430  0.24430  1.0000 -0.5388491904
O   O20       1.0  0.06770  0.11570  0.24430  1.0000 -0.5388491904
O   O21       1.0  0.07250  0.46390  0.26490  1.0000 -0.5388491904
O   O22       1.0  0.07250  0.03610  0.26490  1.0000 -0.5388491904
O   O23       1.0  0.89160  0.45280  0.06270  1.0000 -0.5567387795
O   O24       1.0  0.89160  0.04720  0.06270  1.0000 -0.5567387795
O   O25       1.0  0.90110  0.37290  0.06190  1.0000 -0.5310309982
O   O26       1.0  0.90110  0.12710  0.06190  1.0000 -0.5310309982
O   O27       1.0  0.86540  0.46990  0.24630  1.0000 -0.5238960391
O   O28       1.0  0.86540  0.03010  0.24630  1.0000 -0.5238960391
O   O29       1.0  0.87320  0.39240  0.24480  1.0000 -0.5000640606
O   O30       1.0  0.87320  0.10760  0.24480  1.0000 -0.5000640606
O   O31       1.0  0.97050  0.27260  0.06420  1.0000 -0.0890245313
O   O32       1.0  0.97050  0.22740  0.06420  1.0000 -0.0890245313
O   O33       1.0  0.93740  0.30940  0.21230  1.0000 -0.4439731097
O   O34       1.0  0.93740  0.19060  0.21230  1.0000 -0.4439731097
O   O35       1.0  0.12370  0.27680  0.24290  1.0000 -0.3023129558
O   O36       1.0  0.12370  0.22320  0.24290  1.0000 -0.3023129558
