# DDEC6 charges by PACMAN v1.1 (https://github.com/mtap-research/PACMAN-charge/)
data_2013[Co][sqc]3[ASR]2
_chemical_formula_sum              "Co2 H20 C24 N4 O6 F2"
_cell_length_a       9.62024
_cell_length_b       9.62024
_cell_length_c       11.3957
_cell_angle_alpha    83.0857
_cell_angle_beta     96.9143
_cell_angle_gamma    135.298

_symmetry_space_group_name_H-M    "P 1"
_symmetry_Int_Tables_number       1

loop_
  _symmetry_equiv_pos_as_xyz
  'x, y, z'

loop_
  _atom_site_type_symbol
  _atom_site_label
  _atom_site_symmetry_multiplicity
  _atom_site_fract_x
  _atom_site_fract_y
  _atom_site_fract_z
  _atom_site_occupancy
  _atom_site_charge
Co  Co1       1.0  0.56096  0.05866  0.99650  1.0000 0.9431322856
Co  Co2       1.0  0.05866  0.56096  0.00350  1.0000 0.9431322856
H   H1        1.0  0.35970  0.06590  0.76850  1.0000 0.107877758
H   H2        1.0  0.06590  0.35970  0.23150  1.0000 0.107877758
H   H3        1.0  0.35840  0.07200  0.56440  1.0000 0.1220630935
H   H4        1.0  0.07200  0.35840  0.43560  1.0000 0.1220630935
H   H5        1.0  0.76660  0.05000  0.60820  1.0000 0.1220630935
H   H6        1.0  0.05000  0.76660  0.39180  1.0000 0.1220630935
H   H7        1.0  0.76510  0.05590  0.81130  1.0000 0.107877758
H   H8        1.0  0.05590  0.76510  0.18870  1.0000 0.107877758
H   H9        1.0  0.59210  0.87370  0.22940  1.0000 0.0996388298
H   H10       1.0  0.87370  0.59210  0.77060  1.0000 0.0996388298
H   H11       1.0  0.59530  0.87150  0.43290  1.0000 0.1220630935
H   H12       1.0  0.87150  0.59530  0.56710  1.0000 0.1220630935
H   H13       1.0  0.52740  0.24500  0.38580  1.0000 0.1220630935
H   H14       1.0  0.24500  0.52740  0.61420  1.0000 0.1220630935
H   H15       1.0  0.52320  0.23400  0.18320  1.0000 0.0996388298
H   H16       1.0  0.23400  0.52320  0.81680  1.0000 0.0996388298
H   H17       1.0  0.67080  0.67380  0.10200  1.0000 0.107877758
H   H18       1.0  0.67380  0.67080  0.89800  1.0000 0.0996388298
H   H19       1.0  0.40000  0.42200  0.19370  1.0000 0.3277610286
H   H20       1.0  0.42200  0.40000  0.80630  1.0000 0.3277610286
C   C1        1.0  0.44423  0.06397  0.73540  1.0000 0.0896672445
C   C2        1.0  0.06397  0.44423  0.26460  1.0000 0.0896672445
C   C3        1.0  0.44076  0.06524  0.61340  1.0000 -0.2076279528
C   C4        1.0  0.06524  0.44076  0.38660  1.0000 -0.2076279528
C   C5        1.0  0.55944  0.05656  0.56340  1.0000 0.0896672445
C   C6        1.0  0.05656  0.55944  0.43660  1.0000 0.0896672445
C   C7        1.0  0.68202  0.05378  0.63910  1.0000 -0.2076279528
C   C8        1.0  0.05378  0.68202  0.36090  1.0000 -0.2076279528
C   C9        1.0  0.67964  0.05656  0.76050  1.0000 0.0996388298
C   C10       1.0  0.05656  0.67964  0.23950  1.0000 0.0996388298
C   C11       1.0  0.57898  0.95022  0.26180  1.0000 0.0896672445
C   C12       1.0  0.95022  0.57898  0.73820  1.0000 0.0896672445
C   C13       1.0  0.58040  0.94760  0.38360  1.0000 -0.2040963726
C   C14       1.0  0.94760  0.58040  0.61640  1.0000 -0.2040963726
C   C15       1.0  0.56001  0.05679  0.43360  1.0000 0.0996388298
C   C16       1.0  0.05679  0.56001  0.56640  1.0000 0.0996388298
C   C17       1.0  0.54014  0.16666  0.35590  1.0000 -0.2076279528
C   C18       1.0  0.16666  0.54014  0.64410  1.0000 -0.2076279528
C   C19       1.0  0.53922  0.16038  0.23480  1.0000 0.0896672445
C   C20       1.0  0.16038  0.53922  0.76520  1.0000 0.0896672445
C   C21       1.0  0.45204  0.66196  0.03200  1.0000 0.5485109134
C   C22       1.0  0.66196  0.45204  0.96800  1.0000 0.5485109134
C   C23       1.0  0.53991  0.57469  0.05830  1.0000 0.0021402297
C   C24       1.0  0.57469  0.53991  0.94170  1.0000 0.0021402297
N   N1        1.0  0.56211  0.06029  0.80916  1.0000 -0.2359616638
N   N2        1.0  0.06029  0.56211  0.19084  1.0000 -0.2359616638
N   N3        1.0  0.55990  0.05550  0.18708  1.0000 -0.2295400606
N   N4        1.0  0.05550  0.55990  0.81292  1.0000 -0.2295400606
O   O1        1.0  0.57796  0.84784  0.00970  1.0000 -0.5829679922
O   O2        1.0  0.84784  0.57796  0.99030  1.0000 -0.5829679922
O   O3        1.0  0.27012  0.54488  0.03500  1.0000 -0.5305560188
O   O4        1.0  0.54488  0.27012  0.96500  1.0000 -0.5305560188
O   O5        1.0  0.41647  0.39893  0.13070  1.0000 -0.4195411162
O   O6        1.0  0.39893  0.41647  0.86930  1.0000 -0.4195411162
F   F1        1.0  0.26350  0.85810  0.99020  1.0000 -0.5609878557
F   F2        1.0  0.85810  0.26350  0.00980  1.0000 -0.5609878557
