# DDEC6 charges by PACMAN v1.1 (https://github.com/mtap-research/PACMAN-charge/)
data_2013[Zn][nan]3[ASR]38
_chemical_formula_sum              "Zn8 H72 C112 N12 O32"
_cell_length_a       16.358
_cell_length_b       16.358
_cell_length_c       14.5584
_cell_angle_alpha    87.174
_cell_angle_beta     92.826
_cell_angle_gamma    118.779

_symmetry_space_group_name_H-M    "P 1"
_symmetry_Int_Tables_number       1

loop_
  _symmetry_equiv_pos_as_xyz
  'x, y, z'

loop_
  _atom_site_type_symbol
  _atom_site_label
  _atom_site_symmetry_multiplicity
  _atom_site_fract_x
  _atom_site_fract_y
  _atom_site_fract_z
  _atom_site_occupancy
  _atom_site_charge
Zn  Zn1       1.0  0.55050  0.15366  0.35902  1.0000 0.8273008231
Zn  Zn2       1.0  0.15366  0.55050  0.14098  1.0000 0.8273008231
Zn  Zn3       1.0  0.44950  0.84634  0.64098  1.0000 0.8273008231
Zn  Zn4       1.0  0.84634  0.44950  0.85902  1.0000 0.8273008231
Zn  Zn5       1.0  0.54126  0.96414  0.42505  1.0000 0.8977852825
Zn  Zn6       1.0  0.96414  0.54126  0.07495  1.0000 0.8977852825
Zn  Zn7       1.0  0.45874  0.03586  0.57495  1.0000 0.8977852825
Zn  Zn8       1.0  0.03586  0.45874  0.92505  1.0000 0.8977852825
H   H1        1.0  0.05700  0.15700  0.34870  1.0000 0.2730944518
H   H2        1.0  0.15700  0.05700  0.15130  1.0000 0.2730944518
H   H3        1.0  0.94300  0.84300  0.65130  1.0000 0.2730944518
H   H4        1.0  0.84300  0.94300  0.84870  1.0000 0.2730944518
H   H5        1.0  0.15010  0.14150  0.40990  1.0000 0.1131498331
H   H6        1.0  0.14150  0.15010  0.09010  1.0000 0.1131498331
H   H7        1.0  0.84990  0.85850  0.59010  1.0000 0.1131498331
H   H8        1.0  0.85850  0.84990  0.90990  1.0000 0.1131498331
H   H9        1.0  0.26970  0.10950  0.45340  1.0000 0.1131498331
H   H10       1.0  0.10950  0.26970  0.04660  1.0000 0.1131498331
H   H11       1.0  0.73030  0.89050  0.54660  1.0000 0.1131498331
H   H12       1.0  0.89050  0.73030  0.95340  1.0000 0.1131498331
H   H13       1.0  0.09430  0.83870  0.43150  1.0000 0.1313454287
H   H14       1.0  0.83870  0.09430  0.06850  1.0000 0.1313454287
H   H15       1.0  0.90570  0.16130  0.56850  1.0000 0.1313454287
H   H16       1.0  0.16130  0.90570  0.93150  1.0000 0.1313454287
H   H17       1.0  0.97580  0.87100  0.38610  1.0000 0.1216750964
H   H18       1.0  0.87100  0.97580  0.11390  1.0000 0.1216750964
H   H19       1.0  0.02420  0.12900  0.61390  1.0000 0.1216750964
H   H20       1.0  0.12900  0.02420  0.88610  1.0000 0.1216750964
H   H21       1.0  0.81390  0.05670  0.34090  1.0000 0.1313454287
H   H22       1.0  0.05670  0.81390  0.15910  1.0000 0.1313454287
H   H23       1.0  0.18610  0.94330  0.65910  1.0000 0.1313454287
H   H24       1.0  0.94330  0.18610  0.84090  1.0000 0.1313454287
H   H25       1.0  0.81450  0.28810  0.23590  1.0000 0.1216750964
H   H26       1.0  0.28810  0.81450  0.26410  1.0000 0.1216750964
H   H27       1.0  0.18550  0.71190  0.76410  1.0000 0.1216750964
H   H28       1.0  0.71190  0.18550  0.73590  1.0000 0.1216750964
H   H29       1.0  0.05540  0.28140  0.27590  1.0000 0.1313454287
H   H30       1.0  0.28140  0.05540  0.22410  1.0000 0.1313454287
H   H31       1.0  0.94460  0.71860  0.72410  1.0000 0.1313454287
H   H32       1.0  0.71860  0.94460  0.77590  1.0000 0.1313454287
H   H33       1.0  0.41960  0.23060  0.36830  1.0000 0.1131498331
H   H34       1.0  0.23060  0.41960  0.13170  1.0000 0.1131498331
H   H35       1.0  0.58040  0.76940  0.63170  1.0000 0.1131498331
H   H36       1.0  0.76940  0.58040  0.86830  1.0000 0.1131498331
H   H37       1.0  0.42250  0.37210  0.37270  1.0000 0.1313454287
H   H38       1.0  0.37210  0.42250  0.12730  1.0000 0.1313454287
H   H39       1.0  0.57750  0.62790  0.62730  1.0000 0.1313454287
H   H40       1.0  0.62790  0.57750  0.87270  1.0000 0.1313454287
H   H41       1.0  0.69980  0.49780  0.37230  1.0000 0.1416216358
H   H42       1.0  0.49780  0.69980  0.12770  1.0000 0.1416216358
H   H43       1.0  0.30020  0.50220  0.62770  1.0000 0.1416216358
H   H44       1.0  0.50220  0.30020  0.87230  1.0000 0.1416216358
H   H45       1.0  0.69090  0.35330  0.37060  1.0000 0.1216750964
H   H46       1.0  0.35330  0.69090  0.12940  1.0000 0.1216750964
H   H47       1.0  0.30910  0.64670  0.62940  1.0000 0.1216750964
H   H48       1.0  0.64670  0.30910  0.87060  1.0000 0.1216750964
H   H49       1.0  0.65740  0.87840  0.36650  1.0000 0.1216750964
H   H50       1.0  0.87840  0.65740  0.13350  1.0000 0.1216750964
H   H51       1.0  0.34260  0.12160  0.63350  1.0000 0.1216750964
H   H52       1.0  0.12160  0.34260  0.86650  1.0000 0.1216750964
H   H53       1.0  0.64960  0.73580  0.35750  1.0000 0.1313454287
H   H54       1.0  0.73580  0.64960  0.14250  1.0000 0.1313454287
H   H55       1.0  0.35040  0.26420  0.64250  1.0000 0.1313454287
H   H56       1.0  0.26420  0.35040  0.85750  1.0000 0.1313454287
H   H57       1.0  0.37340  0.61720  0.38540  1.0000 0.1313454287
H   H58       1.0  0.61720  0.37340  0.11460  1.0000 0.1313454287
H   H59       1.0  0.62660  0.38280  0.61460  1.0000 0.1313454287
H   H60       1.0  0.38280  0.62660  0.88540  1.0000 0.1313454287
H   H61       1.0  0.38990  0.76310  0.39370  1.0000 0.1216750964
H   H62       1.0  0.76310  0.38990  0.10630  1.0000 0.1216750964
H   H63       1.0  0.61010  0.23690  0.60630  1.0000 0.1216750964
H   H64       1.0  0.23690  0.61010  0.89370  1.0000 0.1216750964
H   H65       1.0  0.62980  0.59520  0.37680  1.0000 0.1216750964
H   H66       1.0  0.59520  0.62980  0.12320  1.0000 0.1216750964
H   H67       1.0  0.37020  0.40480  0.62320  1.0000 0.1216750964
H   H68       1.0  0.40480  0.37020  0.87680  1.0000 0.1216750964
H   H69       1.0  0.43980  0.51400  0.37260  1.0000 0.1216750964
H   H70       1.0  0.51400  0.43980  0.12740  1.0000 0.1216750964
H   H71       1.0  0.56020  0.48600  0.62740  1.0000 0.1216750964
H   H72       1.0  0.48600  0.56020  0.87260  1.0000 0.1216750964
C   C1        1.0  0.05111  0.00989  0.39080  1.0000 -0.0320674453
C   C2        1.0  0.00989  0.05111  0.10920  1.0000 -0.0320674453
C   C3        1.0  0.94889  0.99011  0.60920  1.0000 -0.0320674453
C   C4        1.0  0.99011  0.94889  0.89080  1.0000 -0.0320674453
C   C5        1.0  0.13860  0.08000  0.41290  1.0000 -0.1412933852
C   C6        1.0  0.08000  0.13860  0.08710  1.0000 -0.1412933852
C   C7        1.0  0.86140  0.92000  0.58710  1.0000 -0.1412933852
C   C8        1.0  0.92000  0.86140  0.91290  1.0000 -0.1412933852
C   C9        1.0  0.21050  0.06090  0.43960  1.0000 -0.0981648333
C   C10       1.0  0.06090  0.21050  0.06040  1.0000 -0.0981648333
C   C11       1.0  0.78950  0.93910  0.56040  1.0000 -0.0981648333
C   C12       1.0  0.93910  0.78950  0.93960  1.0000 -0.0981648333
C   C13       1.0  0.19444  0.97036  0.44570  1.0000 -0.0100231564
C   C14       1.0  0.97036  0.19444  0.05430  1.0000 -0.0100231564
C   C15       1.0  0.80556  0.02964  0.55430  1.0000 -0.0100231564
C   C16       1.0  0.02964  0.80556  0.94570  1.0000 -0.0100231564
C   C17       1.0  0.10644  0.90036  0.42630  1.0000 -0.0935073506
C   C18       1.0  0.90036  0.10644  0.07370  1.0000 -0.0935073506
C   C19       1.0  0.89356  0.09964  0.57370  1.0000 -0.0935073506
C   C20       1.0  0.09964  0.89356  0.92630  1.0000 -0.0935073506
C   C21       1.0  0.03518  0.91982  0.39900  1.0000 -0.0981648333
C   C22       1.0  0.91982  0.03518  0.10100  1.0000 -0.0981648333
C   C23       1.0  0.96482  0.08018  0.60100  1.0000 -0.0981648333
C   C24       1.0  0.08018  0.96482  0.89900  1.0000 -0.0981648333
C   C25       1.0  0.94312  0.16148  0.31310  1.0000 0.2208214465
C   C26       1.0  0.16148  0.94312  0.18690  1.0000 0.2208214465
C   C27       1.0  0.05688  0.83852  0.68690  1.0000 0.2208214465
C   C28       1.0  0.83852  0.05688  0.81310  1.0000 0.2208214465
C   C29       1.0  0.84672  0.11788  0.31850  1.0000 -0.1614033964
C   C30       1.0  0.11788  0.84672  0.18150  1.0000 -0.1614033964
C   C31       1.0  0.15328  0.88212  0.68150  1.0000 -0.1614033964
C   C32       1.0  0.88212  0.15328  0.81850  1.0000 -0.1614033964
C   C33       1.0  0.79957  0.16703  0.29000  1.0000 -0.0164493478
C   C34       1.0  0.16703  0.79957  0.21000  1.0000 -0.0164493478
C   C35       1.0  0.20043  0.83297  0.71000  1.0000 -0.0164493478
C   C36       1.0  0.83297  0.20043  0.79000  1.0000 -0.0164493478
C   C37       1.0  0.84710  0.25670  0.25530  1.0000 -0.0981648333
C   C38       1.0  0.25670  0.84710  0.24470  1.0000 -0.0981648333
C   C39       1.0  0.15290  0.74330  0.74470  1.0000 -0.0981648333
C   C40       1.0  0.74330  0.15290  0.75530  1.0000 -0.0981648333
C   C41       1.0  0.94363  0.30117  0.24890  1.0000 -0.0164493478
C   C42       1.0  0.30117  0.94363  0.25110  1.0000 -0.0164493478
C   C43       1.0  0.05637  0.69883  0.75110  1.0000 -0.0164493478
C   C44       1.0  0.69883  0.05637  0.74890  1.0000 -0.0164493478
C   C45       1.0  0.99071  0.25229  0.27890  1.0000 -0.2011620292
C   C46       1.0  0.25229  0.99071  0.22110  1.0000 -0.2011620292
C   C47       1.0  0.00929  0.74771  0.72110  1.0000 -0.2011620292
C   C48       1.0  0.74771  0.00929  0.77890  1.0000 -0.2011620292
C   C49       1.0  0.69690  0.12430  0.30440  1.0000 0.5920617048
C   C50       1.0  0.12430  0.69690  0.19560  1.0000 0.5920617048
C   C51       1.0  0.30310  0.87570  0.69560  1.0000 0.5920617048
C   C52       1.0  0.87570  0.30310  0.80440  1.0000 0.5920617048
C   C53       1.0  0.99502  0.39718  0.20870  1.0000 0.5920617048
C   C54       1.0  0.39718  0.99502  0.29130  1.0000 0.5920617048
C   C55       1.0  0.00498  0.60282  0.79130  1.0000 0.5920617048
C   C56       1.0  0.60282  0.00498  0.70870  1.0000 0.5920617048
C   C57       1.0  0.27472  0.95248  0.47480  1.0000 0.5586517219
C   C58       1.0  0.95248  0.27472  0.02520  1.0000 0.5586517219
C   C59       1.0  0.72528  0.04752  0.52520  1.0000 0.5586517219
C   C60       1.0  0.04752  0.72528  0.97480  1.0000 0.5586517219
C   C61       1.0  0.97266  0.02914  0.36040  1.0000 0.461542717
C   C62       1.0  0.02914  0.97266  0.13960  1.0000 0.461542717
C   C63       1.0  0.02734  0.97086  0.63960  1.0000 0.461542717
C   C64       1.0  0.97086  0.02734  0.86040  1.0000 0.461542717
C   C65       1.0  0.47682  0.28498  0.36850  1.0000 0.0832081165
C   C66       1.0  0.28498  0.47682  0.13150  1.0000 0.0832081165
C   C67       1.0  0.52318  0.71502  0.63150  1.0000 0.0832081165
C   C68       1.0  0.71502  0.52318  0.86850  1.0000 0.0832081165
C   C69       1.0  0.47830  0.36990  0.37160  1.0000 -0.2011620292
C   C70       1.0  0.36990  0.47830  0.12840  1.0000 -0.2011620292
C   C71       1.0  0.52170  0.63010  0.62840  1.0000 -0.2011620292
C   C72       1.0  0.63010  0.52170  0.87160  1.0000 -0.2011620292
C   C73       1.0  0.56160  0.45100  0.37290  1.0000 0.1416216358
C   C74       1.0  0.45100  0.56160  0.12710  1.0000 0.1416216358
C   C75       1.0  0.43840  0.54900  0.62710  1.0000 0.1416216358
C   C76       1.0  0.54900  0.43840  0.87290  1.0000 0.1416216358
C   C77       1.0  0.64190  0.44430  0.37170  1.0000 -0.2011620292
C   C78       1.0  0.44430  0.64190  0.12830  1.0000 -0.2011620292
C   C79       1.0  0.35810  0.55570  0.62830  1.0000 -0.2011620292
C   C80       1.0  0.55570  0.35810  0.87170  1.0000 -0.2011620292
C   C81       1.0  0.63600  0.35720  0.36950  1.0000 0.0832081165
C   C82       1.0  0.35720  0.63600  0.13050  1.0000 0.0832081165
C   C83       1.0  0.36400  0.64280  0.63050  1.0000 0.0832081165
C   C84       1.0  0.64280  0.36400  0.86950  1.0000 0.0832081165
C   C85       1.0  0.59980  0.82500  0.37180  1.0000 0.1025961216
C   C86       1.0  0.82500  0.59980  0.12820  1.0000 0.1025961216
C   C87       1.0  0.40020  0.17500  0.62820  1.0000 0.1025961216
C   C88       1.0  0.17500  0.40020  0.87180  1.0000 0.1025961216
C   C89       1.0  0.59560  0.73940  0.36630  1.0000 -0.2191986453
C   C90       1.0  0.73940  0.59560  0.13370  1.0000 -0.2191986453
C   C91       1.0  0.40440  0.26060  0.63370  1.0000 -0.2191986453
C   C92       1.0  0.26060  0.40440  0.86630  1.0000 -0.2191986453
C   C93       1.0  0.50999  0.65781  0.37400  1.0000 0.1416216358
C   C94       1.0  0.65781  0.50999  0.12600  1.0000 0.1416216358
C   C95       1.0  0.49001  0.34219  0.62600  1.0000 0.1416216358
C   C96       1.0  0.34219  0.49001  0.87400  1.0000 0.1416216358
C   C97       1.0  0.43240  0.66900  0.38280  1.0000 -0.2191986453
C   C98       1.0  0.66900  0.43240  0.11720  1.0000 -0.2191986453
C   C99       1.0  0.56760  0.33100  0.61720  1.0000 -0.2191986453
C   C100      1.0  0.33100  0.56760  0.88280  1.0000 -0.2191986453
C   C101      1.0  0.44318  0.75722  0.38780  1.0000 0.1025961216
C   C102      1.0  0.75722  0.44318  0.11220  1.0000 0.1025961216
C   C103      1.0  0.55682  0.24278  0.61220  1.0000 0.1025961216
C   C104      1.0  0.24278  0.55682  0.88780  1.0000 0.1025961216
C   C105      1.0  0.56980  0.54480  0.37470  1.0000 -0.1507713135
C   C106      1.0  0.54480  0.56980  0.12530  1.0000 -0.1507713135
C   C107      1.0  0.43020  0.45520  0.62530  1.0000 -0.1507713135
C   C108      1.0  0.45520  0.43020  0.87470  1.0000 -0.1507713135
C   C109      1.0  0.50010  0.56410  0.37370  1.0000 -0.1614033964
C   C110      1.0  0.56410  0.50010  0.12630  1.0000 -0.1614033964
C   C111      1.0  0.49990  0.43590  0.62630  1.0000 -0.1614033964
C   C112      1.0  0.43590  0.49990  0.87370  1.0000 -0.1614033964
N   N1        1.0  0.55483  0.27857  0.36580  1.0000 -0.2258427229
N   N2        1.0  0.27857  0.55483  0.13420  1.0000 -0.2258427229
N   N3        1.0  0.44517  0.72143  0.63420  1.0000 -0.2258427229
N   N4        1.0  0.72143  0.44517  0.86580  1.0000 -0.2258427229
N   N5        1.0  0.52485  0.83475  0.38450  1.0000 -0.2011620292
N   N6        1.0  0.83475  0.52485  0.11550  1.0000 -0.2011620292
N   N7        1.0  0.47515  0.16525  0.61550  1.0000 -0.2011620292
N   N8        1.0  0.16525  0.47515  0.88450  1.0000 -0.2011620292
N   N9        1.0  0.99824  0.11916  0.34200  1.0000 -0.3576688107
N   N10       1.0  0.11916  0.99824  0.15800  1.0000 -0.3576688107
N   N11       1.0  0.00176  0.88084  0.65800  1.0000 -0.3576688107
N   N12       1.0  0.88084  0.00176  0.84200  1.0000 -0.3576688107
O   O1        1.0  0.66292  0.18008  0.29520  1.0000 -0.5432299908
O   O2        1.0  0.18008  0.66292  0.20480  1.0000 -0.5432299908
O   O3        1.0  0.33708  0.81992  0.70480  1.0000 -0.5432299908
O   O4        1.0  0.81992  0.33708  0.79520  1.0000 -0.5432299908
O   O5        1.0  0.65071  0.03921  0.32370  1.0000 -0.5347597238
O   O6        1.0  0.03921  0.65071  0.17630  1.0000 -0.5347597238
O   O7        1.0  0.34929  0.96079  0.67630  1.0000 -0.5347597238
O   O8        1.0  0.96079  0.34929  0.82370  1.0000 -0.5347597238
O   O9        1.0  0.08396  0.43558  0.21280  1.0000 -0.5432299908
O   O10       1.0  0.43558  0.08396  0.28720  1.0000 -0.5432299908
O   O11       1.0  0.91604  0.56442  0.78720  1.0000 -0.5432299908
O   O12       1.0  0.56442  0.91604  0.71280  1.0000 -0.5432299908
O   O13       1.0  0.94980  0.43434  0.17420  1.0000 -0.4987480875
O   O14       1.0  0.43434  0.94980  0.32580  1.0000 -0.4987480875
O   O15       1.0  0.05020  0.56566  0.82580  1.0000 -0.4987480875
O   O16       1.0  0.56566  0.05020  0.67420  1.0000 -0.4987480875
O   O17       1.0  0.35235  0.02525  0.48660  1.0000 -0.5432299908
O   O18       1.0  0.02525  0.35235  0.01340  1.0000 -0.5432299908
O   O19       1.0  0.64765  0.97475  0.51340  1.0000 -0.5432299908
O   O20       1.0  0.97475  0.64765  0.98660  1.0000 -0.5432299908
O   O21       1.0  0.26123  0.87117  0.48430  1.0000 -0.4762655731
O   O22       1.0  0.87117  0.26123  0.01570  1.0000 -0.4762655731
O   O23       1.0  0.73877  0.12883  0.51570  1.0000 -0.4762655731
O   O24       1.0  0.12883  0.73877  0.98430  1.0000 -0.4762655731
O   O25       1.0  0.89168  0.96712  0.35280  1.0000 -0.4478287335
O   O26       1.0  0.96712  0.89168  0.14720  1.0000 -0.4478287335
O   O27       1.0  0.10832  0.03288  0.64720  1.0000 -0.4478287335
O   O28       1.0  0.03288  0.10832  0.85280  1.0000 -0.4478287335
O   O29       1.0  0.55842  0.09260  0.47300  1.0000 -0.7073293116
O   O30       1.0  0.09260  0.55842  0.02700  1.0000 -0.7073293116
O   O31       1.0  0.44158  0.90740  0.52700  1.0000 -0.7073293116
O   O32       1.0  0.90740  0.44158  0.97300  1.0000 -0.7073293116
