# DDEC6 charges by PACMAN v1.1 (https://github.com/mtap-research/PACMAN-charge/)
data_2013[Cu][nan]3[ASR]8
_chemical_formula_sum              "Cu12 P16 H176 C136 N24 O48"
_cell_length_a       23.288
_cell_length_b       9.57
_cell_length_c       24.207
_cell_angle_alpha    90
_cell_angle_beta     105.705
_cell_angle_gamma    90

_symmetry_space_group_name_H-M    "P 1"
_symmetry_Int_Tables_number       1

loop_
  _symmetry_equiv_pos_as_xyz
  'x, y, z'

loop_
  _atom_site_type_symbol
  _atom_site_label
  _atom_site_symmetry_multiplicity
  _atom_site_fract_x
  _atom_site_fract_y
  _atom_site_fract_z
  _atom_site_occupancy
  _atom_site_charge
Cu  Cu1       1.0  0.73774  0.95725  0.51721  1.0000 0.9308386758
Cu  Cu2       1.0  0.26226  0.45725  0.98279  1.0000 0.9308386758
Cu  Cu3       1.0  0.26226  0.04275  0.48279  1.0000 0.9308386758
Cu  Cu4       1.0  0.73774  0.54275  0.01721  1.0000 0.9308386758
Cu  Cu5       1.0  0.73809  0.56352  0.42458  1.0000 0.8209015892
Cu  Cu6       1.0  0.26191  0.06352  0.07542  1.0000 0.8209015892
Cu  Cu7       1.0  0.26191  0.43648  0.57542  1.0000 0.8209015892
Cu  Cu8       1.0  0.73809  0.93648  0.92458  1.0000 0.8209015892
Cu  Cu9       1.0  0.72604  0.35362  0.62030  1.0000 0.8013691471
Cu  Cu10      1.0  0.27396  0.85362  0.87970  1.0000 0.8013691471
Cu  Cu11      1.0  0.27396  0.64638  0.37970  1.0000 0.8013691471
Cu  Cu12      1.0  0.72604  0.14638  0.12030  1.0000 0.8013691471
P   P1        1.0  0.81077  0.81930  0.43598  1.0000 1.2776188915
P   P2        1.0  0.18923  0.31930  0.06402  1.0000 1.2776188915
P   P3        1.0  0.18923  0.18070  0.56402  1.0000 1.2776188915
P   P4        1.0  0.81077  0.68070  0.93598  1.0000 1.2776188915
P   P5        1.0  0.78364  0.29410  0.48521  1.0000 1.2678378985
P   P6        1.0  0.21636  0.79410  0.01479  1.0000 1.2678378985
P   P7        1.0  0.21636  0.70590  0.51479  1.0000 1.2678378985
P   P8        1.0  0.78364  0.20590  0.98521  1.0000 1.2678378985
P   P9        1.0  0.66162  0.08150  0.59655  1.0000 1.2776188915
P   P10       1.0  0.33838  0.58150  0.90345  1.0000 1.2776188915
P   P11       1.0  0.33838  0.91850  0.40345  1.0000 1.2776188915
P   P12       1.0  0.66162  0.41850  0.09655  1.0000 1.2776188915
P   P13       1.0  0.68956  0.60300  0.54498  1.0000 1.2776188915
P   P14       1.0  0.31044  0.10300  0.95502  1.0000 1.2776188915
P   P15       1.0  0.31044  0.39700  0.45502  1.0000 1.2776188915
P   P16       1.0  0.68956  0.89700  0.04498  1.0000 1.2776188915
H   H1        1.0  0.82660  0.70770  0.52630  1.0000 0.1592279864
H   H2        1.0  0.17340  0.20770  0.97370  1.0000 0.1592279864
H   H3        1.0  0.17340  0.29230  0.47370  1.0000 0.1592279864
H   H4        1.0  0.82660  0.79230  0.02630  1.0000 0.1592279864
H   H5        1.0  0.88660  0.70190  0.50580  1.0000 0.1474505239
H   H6        1.0  0.11340  0.20190  0.99420  1.0000 0.1474505239
H   H7        1.0  0.11340  0.29810  0.49420  1.0000 0.1474505239
H   H8        1.0  0.88660  0.79810  0.00580  1.0000 0.1474505239
H   H9        1.0  0.87200  0.41170  0.53190  1.0000 0.1411512494
H   H10       1.0  0.12800  0.91170  0.96810  1.0000 0.1474505239
H   H11       1.0  0.12800  0.58830  0.46810  1.0000 0.1474505239
H   H12       1.0  0.87200  0.08830  0.03190  1.0000 0.1411512494
H   H13       1.0  0.81620  0.48340  0.54770  1.0000 0.1592279864
H   H14       1.0  0.18380  0.98340  0.95230  1.0000 0.1592279864
H   H15       1.0  0.18380  0.51660  0.45230  1.0000 0.1592279864
H   H16       1.0  0.81620  0.01660  0.04770  1.0000 0.1592279864
H   H17       1.0  0.86510  0.58540  0.40220  1.0000 0.1201681293
H   H18       1.0  0.13490  0.08540  0.09780  1.0000 0.1201681293
H   H19       1.0  0.13490  0.41460  0.59780  1.0000 0.1201681293
H   H20       1.0  0.86510  0.91460  0.90220  1.0000 0.1201681293
H   H21       1.0  0.83780  0.43210  0.40080  1.0000 0.1307900003
H   H22       1.0  0.16220  0.93210  0.09920  1.0000 0.1307900003
H   H23       1.0  0.16220  0.56790  0.59920  1.0000 0.1307900003
H   H24       1.0  0.83780  0.06790  0.90080  1.0000 0.1307900003
H   H25       1.0  0.94000  0.41940  0.42050  1.0000 0.1095633302
H   H26       1.0  0.06000  0.91940  0.07950  1.0000 0.1095633302
H   H27       1.0  0.06000  0.58060  0.57950  1.0000 0.1095633302
H   H28       1.0  0.94000  0.08060  0.92050  1.0000 0.1095633302
H   H29       1.0  0.91860  0.35850  0.47270  1.0000 0.1201681293
H   H30       1.0  0.08140  0.85850  0.02730  1.0000 0.1201681293
H   H31       1.0  0.08140  0.64150  0.52730  1.0000 0.1201681293
H   H32       1.0  0.91860  0.14150  0.97270  1.0000 0.1201681293
H   H33       1.0  0.97070  0.62600  0.47650  1.0000 0.1201681293
H   H34       1.0  0.02930  0.12600  0.02350  1.0000 0.1201681293
H   H35       1.0  0.02930  0.37400  0.52350  1.0000 0.1201681293
H   H36       1.0  0.97070  0.87400  0.97650  1.0000 0.1201681293
H   H37       1.0  0.95770  0.54380  0.52940  1.0000 0.1095633302
H   H38       1.0  0.04230  0.04380  0.97060  1.0000 0.1095633302
H   H39       1.0  0.04230  0.45620  0.47060  1.0000 0.1095633302
H   H40       1.0  0.95770  0.95620  0.02940  1.0000 0.1095633302
H   H41       1.0  0.58970  0.18970  0.52090  1.0000 0.1474505239
H   H42       1.0  0.41030  0.68970  0.97910  1.0000 0.1474505239
H   H43       1.0  0.41030  0.81030  0.47910  1.0000 0.1474505239
H   H44       1.0  0.58970  0.31030  0.02090  1.0000 0.1474505239
H   H45       1.0  0.65390  0.19690  0.50870  1.0000 0.1592279864
H   H46       1.0  0.34610  0.69690  0.99130  1.0000 0.1592279864
H   H47       1.0  0.34610  0.80310  0.49130  1.0000 0.1592279864
H   H48       1.0  0.65390  0.30310  0.00870  1.0000 0.1592279864
H   H49       1.0  0.66200  0.40590  0.48760  1.0000 0.1592279864
H   H50       1.0  0.33800  0.90590  0.01240  1.0000 0.1592279864
H   H51       1.0  0.33800  0.59410  0.51240  1.0000 0.1592279864
H   H52       1.0  0.66200  0.09410  0.98760  1.0000 0.1592279864
H   H53       1.0  0.60390  0.48480  0.49490  1.0000 0.1411512494
H   H54       1.0  0.39610  0.98480  0.00510  1.0000 0.1411512494
H   H55       1.0  0.39610  0.51520  0.50510  1.0000 0.1411512494
H   H56       1.0  0.60390  0.01520  0.99490  1.0000 0.1411512494
H   H57       1.0  0.60340  0.34150  0.62910  1.0000 0.1201681293
H   H58       1.0  0.39660  0.84150  0.87090  1.0000 0.1201681293
H   H59       1.0  0.39660  0.65850  0.37090  1.0000 0.1201681293
H   H60       1.0  0.60340  0.15850  0.12910  1.0000 0.1201681293
H   H61       1.0  0.59730  0.49240  0.60010  1.0000 0.1307900003
H   H62       1.0  0.40270  0.99240  0.89990  1.0000 0.1307900003
H   H63       1.0  0.40270  0.50760  0.39990  1.0000 0.1307900003
H   H64       1.0  0.59730  0.00760  0.10010  1.0000 0.1307900003
H   H65       1.0  0.50420  0.38890  0.58470  1.0000 0.1095633302
H   H66       1.0  0.49580  0.88890  0.91530  1.0000 0.1095633302
H   H67       1.0  0.49580  0.61110  0.41530  1.0000 0.1095633302
H   H68       1.0  0.50420  0.11110  0.08470  1.0000 0.1095633302
H   H69       1.0  0.52550  0.25610  0.55610  1.0000 0.1201681293
H   H70       1.0  0.47450  0.75610  0.94390  1.0000 0.1201681293
H   H71       1.0  0.47450  0.74390  0.44390  1.0000 0.1201681293
H   H72       1.0  0.52550  0.24390  0.05610  1.0000 0.1201681293
H   H73       1.0  0.52460  0.38820  0.47400  1.0000 0.1095633302
H   H74       1.0  0.47540  0.88820  0.02600  1.0000 0.1095633302
H   H75       1.0  0.47540  0.61180  0.52600  1.0000 0.1095633302
H   H76       1.0  0.52460  0.11180  0.97400  1.0000 0.1095633302
H   H77       1.0  0.46030  0.38260  0.48580  1.0000 0.1201681293
H   H78       1.0  0.53970  0.88260  0.01420  1.0000 0.1201681293
H   H79       1.0  0.53970  0.61740  0.51420  1.0000 0.1201681293
H   H80       1.0  0.46030  0.11740  0.98580  1.0000 0.1201681293
H   H81       1.0  0.60640  0.89550  0.47960  1.0000 0.1411512494
H   H82       1.0  0.39360  0.39550  0.02040  1.0000 0.1411512494
H   H83       1.0  0.39360  0.10450  0.52040  1.0000 0.1411512494
H   H84       1.0  0.60640  0.60450  0.97960  1.0000 0.1411512494
H   H85       1.0  0.52460  0.92260  0.40420  1.0000 0.1592279864
H   H86       1.0  0.47540  0.42260  0.09580  1.0000 0.1592279864
H   H87       1.0  0.47540  0.07740  0.59580  1.0000 0.1679609689
H   H88       1.0  0.52460  0.57740  0.90420  1.0000 0.1679609689
H   H89       1.0  0.63100  0.10400  0.31740  1.0000 0.1411512494
H   H90       1.0  0.36900  0.60400  0.18260  1.0000 0.1411512494
H   H91       1.0  0.36900  0.89600  0.68260  1.0000 0.1411512494
H   H92       1.0  0.63100  0.39600  0.81740  1.0000 0.1411512494
H   H93       1.0  0.71010  0.07340  0.39710  1.0000 0.1411512494
H   H94       1.0  0.28990  0.57340  0.10290  1.0000 0.1411512494
H   H95       1.0  0.28990  0.92660  0.60290  1.0000 0.1411512494
H   H96       1.0  0.71010  0.42660  0.89710  1.0000 0.1411512494
H   H97       1.0  0.34350  0.25550  0.15600  1.0000 0.1307900003
H   H98       1.0  0.65650  0.75550  0.34400  1.0000 0.1307900003
H   H99       1.0  0.65650  0.74450  0.84400  1.0000 0.1307900003
H   H100      1.0  0.34350  0.24450  0.65600  1.0000 0.1307900003
H   H101      1.0  0.44040  0.25420  0.21650  1.0000 0.1411512494
H   H102      1.0  0.55960  0.75420  0.28350  1.0000 0.1411512494
H   H103      1.0  0.55960  0.74580  0.78350  1.0000 0.1411512494
H   H104      1.0  0.44040  0.24580  0.71650  1.0000 0.1411512494
H   H105      1.0  0.46380  0.86480  0.16660  1.0000 0.1474505239
H   H106      1.0  0.53620  0.36480  0.33340  1.0000 0.1474505239
H   H107      1.0  0.53620  0.13520  0.83340  1.0000 0.1474505239
H   H108      1.0  0.46380  0.63520  0.66667  1.0000 0.1474505239
H   H109      1.0  0.36960  0.87370  0.10740  1.0000 0.1307900003
H   H110      1.0  0.63040  0.37370  0.39260  1.0000 0.1307900003
H   H111      1.0  0.63040  0.12630  0.89260  1.0000 0.1307900003
H   H112      1.0  0.36960  0.62630  0.60740  1.0000 0.1307900003
H   H113      1.0  0.48750  0.95000  0.29810  1.0000 0.1307900003
H   H114      1.0  0.51250  0.45000  0.20190  1.0000 0.1307900003
H   H115      1.0  0.51250  0.05000  0.70190  1.0000 0.1307900003
H   H116      1.0  0.48750  0.55000  0.79810  1.0000 0.1307900003
H   H117      1.0  0.48920  0.11420  0.30930  1.0000 0.1307900003
H   H118      1.0  0.51080  0.61420  0.19070  1.0000 0.1307900003
H   H119      1.0  0.51080  0.88580  0.69070  1.0000 0.1307900003
H   H120      1.0  0.48920  0.38580  0.80930  1.0000 0.1307900003
H   H121      1.0  0.54710  0.98400  0.23140  1.0000 0.1307900003
H   H122      1.0  0.45290  0.48400  0.26860  1.0000 0.1307900003
H   H123      1.0  0.45290  0.01600  0.76860  1.0000 0.1307900003
H   H124      1.0  0.54710  0.51600  0.73140  1.0000 0.1307900003
H   H125      1.0  0.54370  0.14980  0.24070  1.0000 0.1307900003
H   H126      1.0  0.45630  0.64980  0.25930  1.0000 0.1307900003
H   H127      1.0  0.45630  0.85020  0.75930  1.0000 0.1307900003
H   H128      1.0  0.54370  0.35020  0.74070  1.0000 0.1307900003
H   H129      1.0  0.76820  0.83330  0.63790  1.0000 0.1411512494
H   H130      1.0  0.23180  0.33333  0.86210  1.0000 0.1411512494
H   H131      1.0  0.23180  0.16670  0.36210  1.0000 0.1411512494
H   H132      1.0  0.76820  0.66667  0.13790  1.0000 0.1411512494
H   H133      1.0  0.84980  0.79240  0.71400  1.0000 0.1411512494
H   H134      1.0  0.15020  0.29240  0.78600  1.0000 0.1411512494
H   H135      1.0  0.15020  0.20760  0.28600  1.0000 0.1411512494
H   H136      1.0  0.84980  0.70760  0.21400  1.0000 0.1411512494
H   H137      1.0  0.95380  0.94420  0.61800  1.0000 0.1411512494
H   H138      1.0  0.04620  0.44420  0.88200  1.0000 0.1411512494
H   H139      1.0  0.04620  0.05580  0.38200  1.0000 0.1411512494
H   H140      1.0  0.95380  0.55580  0.11800  1.0000 0.1411512494
H   H141      1.0  0.86920  0.01150  0.54860  1.0000 0.1411512494
H   H142      1.0  0.13080  0.51150  0.95140  1.0000 0.1411512494
H   H143      1.0  0.13080  0.98850  0.45140  1.0000 0.1411512494
H   H144      1.0  0.86920  0.48850  0.04860  1.0000 0.1411512494
H   H145      1.0  0.15820  0.68800  0.86180  1.0000 0.1201681293
H   H146      1.0  0.84180  0.18800  0.63820  1.0000 0.1201681293
H   H147      1.0  0.84180  0.31200  0.13820  1.0000 0.1201681293
H   H148      1.0  0.15820  0.81200  0.36180  1.0000 0.1201681293
H   H149      1.0  0.05820  0.72780  0.81450  1.0000 0.1474505239
H   H150      1.0  0.94180  0.22780  0.68550  1.0000 0.1474505239
H   H151      1.0  0.94180  0.27220  0.18550  1.0000 0.1411512494
H   H152      1.0  0.05820  0.77220  0.31450  1.0000 0.1411512494
H   H153      1.0  0.10450  0.06870  0.74370  1.0000 0.1474505239
H   H154      1.0  0.89550  0.56870  0.75630  1.0000 0.1474505239
H   H155      1.0  0.89550  0.93130  0.25630  1.0000 0.1474505239
H   H156      1.0  0.10450  0.43130  0.24370  1.0000 0.1474505239
H   H157      1.0  0.19990  0.04020  0.79740  1.0000 0.1307900003
H   H158      1.0  0.80010  0.54020  0.70260  1.0000 0.1307900003
H   H159      1.0  0.80010  0.95980  0.20260  1.0000 0.1307900003
H   H160      1.0  0.19990  0.45980  0.29740  1.0000 0.1307900003
H   H161      1.0  0.98640  0.98900  0.76580  1.0000 0.1307900003
H   H162      1.0  0.01360  0.48900  0.73420  1.0000 0.1307900003
H   H163      1.0  0.01360  0.01100  0.23420  1.0000 0.1307900003
H   H164      1.0  0.98640  0.51100  0.26580  1.0000 0.1307900003
H   H165      1.0  0.00640  0.99930  0.70760  1.0000 0.1201681293
H   H166      1.0  0.99360  0.49930  0.79240  1.0000 0.1201681293
H   H167      1.0  0.99360  0.00070  0.29240  1.0000 0.1201681293
H   H168      1.0  0.00640  0.50070  0.20760  1.0000 0.1201681293
H   H169      1.0  0.95880  0.75690  0.74930  1.0000 0.1201681293
H   H170      1.0  0.04120  0.25690  0.75070  1.0000 0.1201681293
H   H171      1.0  0.04120  0.24310  0.25070  1.0000 0.1201681293
H   H172      1.0  0.95880  0.74310  0.24930  1.0000 0.1201681293
H   H173      1.0  0.99250  0.74270  0.69990  1.0000 0.1307900003
H   H174      1.0  0.00750  0.24270  0.80010  1.0000 0.1307900003
H   H175      1.0  0.00750  0.25730  0.30010  1.0000 0.1307900003
H   H176      1.0  0.99250  0.75730  0.19990  1.0000 0.1307900003
C   C1        1.0  0.84270  0.69180  0.49300  1.0000 -0.4494691923
C   C2        1.0  0.15730  0.19180  0.00700  1.0000 -0.4494691923
C   C3        1.0  0.15730  0.30820  0.50700  1.0000 -0.4494691923
C   C4        1.0  0.84270  0.80820  0.99300  1.0000 -0.4494691923
C   C5        1.0  0.83020  0.44240  0.51610  1.0000 -0.4761172667
C   C6        1.0  0.16980  0.94240  0.98390  1.0000 -0.4761172667
C   C7        1.0  0.16980  0.55760  0.48390  1.0000 -0.4761172667
C   C8        1.0  0.83020  0.05760  0.01610  1.0000 -0.4761172667
C   C9        1.0  0.86160  0.50410  0.42640  1.0000 -0.1129650671
C   C10       1.0  0.13840  0.00410  0.07360  1.0000 -0.1129650671
C   C11       1.0  0.13840  0.49590  0.57360  1.0000 -0.1129650671
C   C12       1.0  0.86160  0.99590  0.92640  1.0000 -0.1152160227
C   C13       1.0  0.92340  0.44600  0.45250  1.0000 -0.1714183133
C   C14       1.0  0.07660  0.94600  0.04750  1.0000 -0.1714183133
C   C15       1.0  0.07660  0.55400  0.54750  1.0000 -0.1714183133
C   C16       1.0  0.92340  0.05400  0.95250  1.0000 -0.1714183133
C   C17       1.0  0.96940  0.53210  0.49330  1.0000 -0.16116556
C   C18       1.0  0.03060  0.03210  0.00670  1.0000 -0.16116556
C   C19       1.0  0.03060  0.46790  0.50670  1.0000 -0.16116556
C   C20       1.0  0.96940  0.96790  0.99330  1.0000 -0.16116556
C   C21       1.0  0.63260  0.20790  0.53860  1.0000 -0.4380743339
C   C22       1.0  0.36740  0.70790  0.96140  1.0000 -0.4380743339
C   C23       1.0  0.36740  0.79210  0.46140  1.0000 -0.4380743339
C   C24       1.0  0.63260  0.29210  0.03860  1.0000 -0.4380743339
C   C25       1.0  0.64450  0.45320  0.51560  1.0000 -0.4680133521
C   C26       1.0  0.35550  0.95320  0.98440  1.0000 -0.4680133521
C   C27       1.0  0.35550  0.54680  0.48440  1.0000 -0.4680133521
C   C28       1.0  0.64450  0.04680  0.01560  1.0000 -0.4680133521
C   C29       1.0  0.59390  0.39100  0.59180  1.0000 -0.1129650671
C   C30       1.0  0.40610  0.89100  0.90820  1.0000 -0.1129650671
C   C31       1.0  0.40610  0.60900  0.40820  1.0000 -0.1129650671
C   C32       1.0  0.59390  0.10900  0.09180  1.0000 -0.1129650671
C   C33       1.0  0.52920  0.35900  0.55960  1.0000 -0.1714183133
C   C34       1.0  0.47080  0.85900  0.94040  1.0000 -0.1714183133
C   C35       1.0  0.47080  0.64100  0.44040  1.0000 -0.1714183133
C   C36       1.0  0.52920  0.14100  0.05960  1.0000 -0.1714183133
C   C37       1.0  0.50130  0.41980  0.50040  1.0000 -0.16116556
C   C38       1.0  0.49870  0.91980  0.99960  1.0000 -0.16116556
C   C39       1.0  0.49870  0.58020  0.49960  1.0000 -0.16116556
C   C40       1.0  0.50130  0.08020  0.00040  1.0000 -0.16116556
C   C41       1.0  0.61160  0.93880  0.44590  1.0000 0.1095633302
C   C42       1.0  0.38840  0.43880  0.05410  1.0000 0.1095633302
C   C43       1.0  0.38840  0.06120  0.55410  1.0000 0.1095633302
C   C44       1.0  0.61160  0.56120  0.94590  1.0000 0.1095633302
C   C45       1.0  0.56220  0.95460  0.40100  1.0000 -0.2181647628
C   C46       1.0  0.43780  0.45460  0.09900  1.0000 -0.2181647628
C   C47       1.0  0.43780  0.04540  0.59900  1.0000 -0.2181647628
C   C48       1.0  0.56220  0.54540  0.90100  1.0000 -0.2181647628
C   C49       1.0  0.56630  0.01630  0.35090  1.0000 0.1592279864
C   C50       1.0  0.43370  0.51630  0.14910  1.0000 0.1592279864
C   C51       1.0  0.43370  0.98370  0.64910  1.0000 0.1592279864
C   C52       1.0  0.56630  0.48370  0.85090  1.0000 0.1592279864
C   C53       1.0  0.62470  0.06080  0.35070  1.0000 -0.2181647628
C   C54       1.0  0.37530  0.56080  0.14930  1.0000 -0.2181647628
C   C55       1.0  0.37530  0.93920  0.64930  1.0000 -0.2181647628
C   C56       1.0  0.62470  0.43920  0.85070  1.0000 -0.2181647628
C   C57       1.0  0.67170  0.04160  0.39810  1.0000 0.0974505646
C   C58       1.0  0.32830  0.54160  0.10190  1.0000 0.0974505646
C   C59       1.0  0.32830  0.95840  0.60190  1.0000 0.0974505646
C   C60       1.0  0.67170  0.45840  0.89810  1.0000 0.0974505646
C   C61       1.0  0.36780  0.17490  0.15810  1.0000 0.0974505646
C   C62       1.0  0.63220  0.67490  0.34190  1.0000 0.0974505646
C   C63       1.0  0.63220  0.82510  0.84190  1.0000 0.0974505646
C   C64       1.0  0.36780  0.32510  0.65810  1.0000 0.0974505646
C   C65       1.0  0.42600  0.17360  0.19420  1.0000 -0.1885198414
C   C66       1.0  0.57400  0.67360  0.30580  1.0000 -0.1885198414
C   C67       1.0  0.57400  0.82640  0.80580  1.0000 -0.1885198414
C   C68       1.0  0.42600  0.32640  0.69420  1.0000 -0.1885198414
C   C69       1.0  0.46190  0.06390  0.19840  1.0000 0.1679609689
C   C70       1.0  0.53810  0.56390  0.30160  1.0000 0.1679609689
C   C71       1.0  0.53810  0.93610  0.80160  1.0000 0.1679609689
C   C72       1.0  0.46190  0.43610  0.69840  1.0000 0.1679609689
C   C73       1.0  0.44010  0.94620  0.16510  1.0000 -0.2121657267
C   C74       1.0  0.55990  0.44620  0.33490  1.0000 -0.2121657267
C   C75       1.0  0.55990  0.05380  0.83490  1.0000 -0.2121657267
C   C76       1.0  0.44010  0.55380  0.66510  1.0000 -0.2121657267
C   C77       1.0  0.38380  0.95300  0.13070  1.0000 0.0974505646
C   C78       1.0  0.61620  0.45300  0.36930  1.0000 0.0974505646
C   C79       1.0  0.61620  0.04700  0.86930  1.0000 0.0974505646
C   C80       1.0  0.38380  0.54700  0.63070  1.0000 0.0974505646
C   C81       1.0  0.51250  0.03460  0.30070  1.0000 -0.2391007291
C   C82       1.0  0.48750  0.53460  0.19930  1.0000 -0.2391007291
C   C83       1.0  0.48750  0.96540  0.69930  1.0000 -0.2391007291
C   C84       1.0  0.51250  0.46540  0.80070  1.0000 -0.2391007291
C   C85       1.0  0.52260  0.06010  0.24110  1.0000 -0.2391007291
C   C86       1.0  0.47740  0.56010  0.25890  1.0000 -0.2391007291
C   C87       1.0  0.47740  0.93990  0.75890  1.0000 -0.2391007291
C   C88       1.0  0.52260  0.43990  0.74110  1.0000 -0.2391007291
C   C89       1.0  0.80640  0.85930  0.63430  1.0000 0.1201681293
C   C90       1.0  0.19360  0.35930  0.86570  1.0000 0.1201681293
C   C91       1.0  0.19360  0.14070  0.36570  1.0000 0.1201681293
C   C92       1.0  0.80640  0.64070  0.13430  1.0000 0.1201681293
C   C93       1.0  0.85500  0.82850  0.67910  1.0000 -0.2181647628
C   C94       1.0  0.14500  0.32850  0.82090  1.0000 -0.2181647628
C   C95       1.0  0.14500  0.17150  0.32090  1.0000 -0.2181647628
C   C96       1.0  0.85500  0.67150  0.17910  1.0000 -0.2181647628
C   C97       1.0  0.91230  0.85100  0.67270  1.0000 0.1679609689
C   C98       1.0  0.08770  0.35100  0.82730  1.0000 0.1679609689
C   C99       1.0  0.08770  0.14900  0.32730  1.0000 0.1679609689
C   C100      1.0  0.91230  0.64900  0.17270  1.0000 0.1679609689
C   C101      1.0  0.91570  0.92190  0.62290  1.0000 -0.2181647628
C   C102      1.0  0.08430  0.42190  0.87710  1.0000 -0.2181647628
C   C103      1.0  0.08430  0.07810  0.37710  1.0000 -0.2181647628
C   C104      1.0  0.91570  0.57810  0.12290  1.0000 -0.2181647628
C   C105      1.0  0.86530  0.96000  0.58090  1.0000 0.0816271469
C   C106      1.0  0.13470  0.46000  0.91910  1.0000 0.0816271469
C   C107      1.0  0.13470  0.04000  0.41910  1.0000 0.0816271469
C   C108      1.0  0.86530  0.54000  0.08090  1.0000 0.0816271469
C   C109      1.0  0.14740  0.76890  0.83850  1.0000 0.1201681293
C   C110      1.0  0.85260  0.26890  0.66150  1.0000 0.1201681293
C   C111      1.0  0.85260  0.23110  0.16150  1.0000 0.1201681293
C   C112      1.0  0.14740  0.73110  0.33850  1.0000 0.1201681293
C   C113      1.0  0.08750  0.79160  0.80930  1.0000 -0.2181647628
C   C114      1.0  0.91250  0.29160  0.69070  1.0000 -0.2181647628
C   C115      1.0  0.91250  0.20840  0.19070  1.0000 -0.2181647628
C   C116      1.0  0.08750  0.70840  0.30930  1.0000 -0.2181647628
C   C117      1.0  0.07020  0.90240  0.77360  1.0000 0.1679609689
C   C118      1.0  0.92980  0.40240  0.72640  1.0000 0.1679609689
C   C119      1.0  0.92980  0.09760  0.22640  1.0000 0.1679609689
C   C120      1.0  0.07020  0.59760  0.27360  1.0000 0.1679609689
C   C121      1.0  0.11410  0.99120  0.76910  1.0000 -0.1885198414
C   C122      1.0  0.88590  0.49120  0.73090  1.0000 -0.1885198414
C   C123      1.0  0.88590  0.00880  0.23090  1.0000 -0.1885198414
C   C124      1.0  0.11410  0.50880  0.26910  1.0000 -0.1885198414
C   C125      1.0  0.17110  0.97190  0.79990  1.0000 0.0881706696
C   C126      1.0  0.82890  0.47190  0.70010  1.0000 0.0881706696
C   C127      1.0  0.82890  0.02810  0.20010  1.0000 0.0881706696
C   C128      1.0  0.17110  0.52810  0.29990  1.0000 0.0881706696
C   C129      1.0  0.00580  0.93750  0.74030  1.0000 -0.2279613859
C   C130      1.0  0.99420  0.43750  0.75970  1.0000 -0.2279613859
C   C131      1.0  0.99420  0.06250  0.25970  1.0000 -0.2279613859
C   C132      1.0  0.00580  0.56250  0.24030  1.0000 -0.2279613859
C   C133      1.0  0.96910  0.80670  0.71740  1.0000 -0.2391007291
C   C134      1.0  0.03090  0.30670  0.78260  1.0000 -0.2391007291
C   C135      1.0  0.03090  0.19330  0.28260  1.0000 -0.2391007291
C   C136      1.0  0.96910  0.69330  0.21740  1.0000 -0.2391007291
N   N1        1.0  0.82660  0.55060  0.46940  1.0000 0.0140499041
N   N2        1.0  0.17340  0.05060  0.03060  1.0000 0.0140499041
N   N3        1.0  0.17340  0.44940  0.53060  1.0000 0.0140499041
N   N4        1.0  0.82660  0.94940  0.96940  1.0000 0.0140499041
N   N5        1.0  0.64050  0.35180  0.56120  1.0000 0.0200239468
N   N6        1.0  0.35950  0.85180  0.93880  1.0000 0.0200239468
N   N7        1.0  0.35950  0.64820  0.43880  1.0000 0.0200239468
N   N8        1.0  0.64050  0.14820  0.06120  1.0000 0.0200239468
N   N9        1.0  0.66590  0.97880  0.44670  1.0000 -0.2181647628
N   N10       1.0  0.33410  0.47880  0.05330  1.0000 -0.2181647628
N   N11       1.0  0.33410  0.02120  0.55330  1.0000 -0.2181647628
N   N12       1.0  0.66590  0.52120  0.94670  1.0000 -0.2181647628
N   N13       1.0  0.34650  0.05980  0.12630  1.0000 -0.1885198414
N   N14       1.0  0.65350  0.55980  0.37370  1.0000 -0.1885198414
N   N15       1.0  0.65350  0.94020  0.87370  1.0000 -0.1885198414
N   N16       1.0  0.34650  0.44020  0.62630  1.0000 -0.1885198414
N   N17       1.0  0.80910  0.92450  0.58510  1.0000 -0.2524703502
N   N18       1.0  0.19090  0.42450  0.91490  1.0000 -0.2524703502
N   N19       1.0  0.19090  0.07550  0.41490  1.0000 -0.2524703502
N   N20       1.0  0.80910  0.57550  0.08510  1.0000 -0.2524703502
N   N21       1.0  0.18930  0.85990  0.83420  1.0000 -0.1885198414
N   N22       1.0  0.81070  0.35990  0.66580  1.0000 -0.1885198414
N   N23       1.0  0.81070  0.14010  0.16580  1.0000 -0.1885198414
N   N24       1.0  0.18930  0.64010  0.33420  1.0000 -0.1885198414
O   O1        1.0  0.75800  0.73930  0.39630  1.0000 -0.7487919762
O   O2        1.0  0.24200  0.23930  0.10370  1.0000 -0.7487919762
O   O3        1.0  0.24200  0.26070  0.60370  1.0000 -0.7487919762
O   O4        1.0  0.75800  0.76070  0.89630  1.0000 -0.7487919762
O   O5        1.0  0.79070  0.94350  0.46640  1.0000 -0.7208851769
O   O6        1.0  0.20930  0.44350  0.03360  1.0000 -0.7127411996
O   O7        1.0  0.20930  0.05650  0.53360  1.0000 -0.7127411996
O   O8        1.0  0.79070  0.55650  0.96640  1.0000 -0.7127411996
O   O9        1.0  0.85460  0.86980  0.40560  1.0000 -0.7290460005
O   O10       1.0  0.14540  0.36980  0.09440  1.0000 -0.7290460005
O   O11       1.0  0.14540  0.13020  0.59440  1.0000 -0.7290460005
O   O12       1.0  0.85460  0.63020  0.90560  1.0000 -0.7290460005
O   O13       1.0  0.73300  0.36460  0.43730  1.0000 -0.7603168919
O   O14       1.0  0.26700  0.86460  0.06270  1.0000 -0.7603168919
O   O15       1.0  0.26700  0.63540  0.56270  1.0000 -0.7603168919
O   O16       1.0  0.73300  0.13540  0.93730  1.0000 -0.7603168919
O   O17       1.0  0.76320  0.21300  0.52880  1.0000 -0.7903462931
O   O18       1.0  0.23680  0.71300  0.97120  1.0000 -0.7903462931
O   O19       1.0  0.23680  0.78700  0.47120  1.0000 -0.7903462931
O   O20       1.0  0.76320  0.28700  0.02880  1.0000 -0.7903462931
O   O21       1.0  0.82120  0.19880  0.45430  1.0000 -0.6796777233
O   O22       1.0  0.17880  0.69880  0.04570  1.0000 -0.6796777233
O   O23       1.0  0.17880  0.80120  0.54570  1.0000 -0.6796777233
O   O24       1.0  0.82120  0.30120  0.95430  1.0000 -0.6796777233
O   O25       1.0  0.71530  0.16230  0.63670  1.0000 -0.741265201
O   O26       1.0  0.28470  0.66230  0.86330  1.0000 -0.741265201
O   O27       1.0  0.28470  0.83770  0.36330  1.0000 -0.7290460005
O   O28       1.0  0.71530  0.33770  0.13670  1.0000 -0.7290460005
O   O29       1.0  0.68340  0.95590  0.56650  1.0000 -0.7208851769
O   O30       1.0  0.31660  0.45590  0.93350  1.0000 -0.7208851769
O   O31       1.0  0.31660  0.04410  0.43350  1.0000 -0.7208851769
O   O32       1.0  0.68340  0.54410  0.06650  1.0000 -0.7208851769
O   O33       1.0  0.61540  0.03880  0.62500  1.0000 -0.741265201
O   O34       1.0  0.38460  0.53880  0.87500  1.0000 -0.741265201
O   O35       1.0  0.38460  0.96120  0.37500  1.0000 -0.741265201
O   O36       1.0  0.61540  0.46120  0.12500  1.0000 -0.741265201
O   O37       1.0  0.73660  0.54280  0.59680  1.0000 -0.7603168919
O   O38       1.0  0.26340  0.04280  0.90320  1.0000 -0.7603168919
O   O39       1.0  0.26340  0.45720  0.40320  1.0000 -0.7603168919
O   O40       1.0  0.73660  0.95720  0.09680  1.0000 -0.7603168919
O   O41       1.0  0.64660  0.70640  0.56600  1.0000 -0.6969419553
O   O42       1.0  0.35340  0.20640  0.93400  1.0000 -0.6969419553
O   O43       1.0  0.35340  0.29360  0.43400  1.0000 -0.6969419553
O   O44       1.0  0.64660  0.79360  0.06600  1.0000 -0.6969419553
O   O45       1.0  0.71350  0.67040  0.50020  1.0000 -0.7969425901
O   O46       1.0  0.28650  0.17040  0.99980  1.0000 -0.7969425901
O   O47       1.0  0.28650  0.32960  0.49980  1.0000 -0.7969425901
O   O48       1.0  0.71350  0.82960  0.00020  1.0000 -0.7969425901
