# DDEC6 charges by PACMAN v1.1 (https://github.com/mtap-research/PACMAN-charge/)
data_2013[Cu][tbo]3[ASR]3
_chemical_formula_sum              "Cu12 H24 C72 O48"
_cell_length_a       18.598
_cell_length_b       18.598
_cell_length_c       18.598
_cell_angle_alpha    60
_cell_angle_beta     60
_cell_angle_gamma    60

_symmetry_space_group_name_H-M    "P 1"
_symmetry_Int_Tables_number       1

loop_
  _symmetry_equiv_pos_as_xyz
  'x, y, z'

loop_
  _atom_site_type_symbol
  _atom_site_label
  _atom_site_symmetry_multiplicity
  _atom_site_fract_x
  _atom_site_fract_y
  _atom_site_fract_z
  _atom_site_occupancy
  _atom_site_charge
Cu  Cu1       1.0  0.92974  0.50000  0.07026  1.0000 0.8579031829
Cu  Cu2       1.0  0.50000  0.92974  0.50000  1.0000 0.8579031829
Cu  Cu3       1.0  0.07026  0.50000  0.92974  1.0000 0.8579031829
Cu  Cu4       1.0  0.50000  0.07026  0.50000  1.0000 0.8579031829
Cu  Cu5       1.0  0.07026  0.92974  0.50000  1.0000 0.8579031829
Cu  Cu6       1.0  0.50000  0.50000  0.92974  1.0000 0.8579031829
Cu  Cu7       1.0  0.92974  0.07026  0.50000  1.0000 0.8579031829
Cu  Cu8       1.0  0.50000  0.50000  0.07026  1.0000 0.8579031829
Cu  Cu9       1.0  0.50000  0.07026  0.92974  1.0000 0.8579031829
Cu  Cu10      1.0  0.92974  0.50000  0.50000  1.0000 0.8579031829
Cu  Cu11      1.0  0.50000  0.92974  0.07026  1.0000 0.8579031829
Cu  Cu12      1.0  0.07026  0.50000  0.50000  1.0000 0.8579031829
H   H1        1.0  0.22730  0.22730  0.01170  1.0000 0.1373634143
H   H2        1.0  0.22730  0.22730  0.53370  1.0000 0.1373634143
H   H3        1.0  0.01170  0.53370  0.22730  1.0000 0.1373634143
H   H4        1.0  0.53370  0.01170  0.22730  1.0000 0.1373634143
H   H5        1.0  0.01170  0.22730  0.22730  1.0000 0.1373634143
H   H6        1.0  0.53370  0.22730  0.22730  1.0000 0.1373634143
H   H7        1.0  0.22730  0.01170  0.53370  1.0000 0.1373634143
H   H8        1.0  0.22730  0.53370  0.01170  1.0000 0.1373634143
H   H9        1.0  0.22730  0.01170  0.22730  1.0000 0.1373634143
H   H10       1.0  0.22730  0.53370  0.22730  1.0000 0.1373634143
H   H11       1.0  0.53370  0.22730  0.01170  1.0000 0.1373634143
H   H12       1.0  0.01170  0.22730  0.53370  1.0000 0.1373634143
H   H13       1.0  0.77270  0.77270  0.46630  1.0000 0.1373634143
H   H14       1.0  0.77270  0.77270  0.98830  1.0000 0.1373634143
H   H15       1.0  0.98830  0.46630  0.77270  1.0000 0.1373634143
H   H16       1.0  0.46630  0.98830  0.77270  1.0000 0.1373634143
H   H17       1.0  0.98830  0.77270  0.46630  1.0000 0.1373634143
H   H18       1.0  0.46630  0.77270  0.98830  1.0000 0.1373634143
H   H19       1.0  0.77270  0.98830  0.77270  1.0000 0.1373634143
H   H20       1.0  0.77270  0.46630  0.77270  1.0000 0.1373634143
H   H21       1.0  0.77270  0.98830  0.46630  1.0000 0.1373634143
H   H22       1.0  0.77270  0.46630  0.98830  1.0000 0.1373634143
H   H23       1.0  0.46630  0.77270  0.77270  1.0000 0.1373634143
H   H24       1.0  0.98830  0.77270  0.77270  1.0000 0.1373634143
C   C1        1.0  0.11220  0.24164  0.11220  1.0000 -0.0340876116
C   C2        1.0  0.24164  0.11220  0.53396  1.0000 -0.0340876116
C   C3        1.0  0.11220  0.53396  0.11220  1.0000 -0.0340876116
C   C4        1.0  0.53396  0.11220  0.24164  1.0000 -0.0340876116
C   C5        1.0  0.11220  0.11220  0.24164  1.0000 -0.0340876116
C   C6        1.0  0.53396  0.24164  0.11220  1.0000 -0.0340876116
C   C7        1.0  0.11220  0.11220  0.53396  1.0000 -0.0340876116
C   C8        1.0  0.24164  0.53396  0.11220  1.0000 -0.0340876116
C   C9        1.0  0.24164  0.11220  0.11220  1.0000 -0.0340876116
C   C10       1.0  0.11220  0.53396  0.24164  1.0000 -0.0340876116
C   C11       1.0  0.53396  0.11220  0.11220  1.0000 -0.0340876116
C   C12       1.0  0.11220  0.24164  0.53396  1.0000 -0.0340876116
C   C13       1.0  0.88780  0.75836  0.46604  1.0000 -0.0340876116
C   C14       1.0  0.75836  0.88780  0.88780  1.0000 -0.0340876116
C   C15       1.0  0.88780  0.46604  0.75836  1.0000 -0.0340876116
C   C16       1.0  0.46604  0.88780  0.88780  1.0000 -0.0340876116
C   C17       1.0  0.88780  0.88780  0.46604  1.0000 -0.0340876116
C   C18       1.0  0.46604  0.75836  0.88780  1.0000 -0.0340876116
C   C19       1.0  0.88780  0.88780  0.75836  1.0000 -0.0340876116
C   C20       1.0  0.75836  0.46604  0.88780  1.0000 -0.0340876116
C   C21       1.0  0.75836  0.88780  0.46604  1.0000 -0.0340876116
C   C22       1.0  0.88780  0.46604  0.88780  1.0000 -0.0340876116
C   C23       1.0  0.46604  0.88780  0.75836  1.0000 -0.0340876116
C   C24       1.0  0.88780  0.75836  0.88780  1.0000 -0.0340876116
C   C25       1.0  0.19830  0.19830  0.06952  1.0000 -0.0775478665
C   C26       1.0  0.19830  0.19830  0.53388  1.0000 -0.0775478665
C   C27       1.0  0.06952  0.53388  0.19830  1.0000 -0.0775478665
C   C28       1.0  0.53388  0.06952  0.19830  1.0000 -0.0775478665
C   C29       1.0  0.06952  0.19830  0.19830  1.0000 -0.0775478665
C   C30       1.0  0.53388  0.19830  0.19830  1.0000 -0.0775478665
C   C31       1.0  0.19830  0.06952  0.53388  1.0000 -0.0775478665
C   C32       1.0  0.19830  0.53388  0.06952  1.0000 -0.0775478665
C   C33       1.0  0.19830  0.06952  0.19830  1.0000 -0.0775478665
C   C34       1.0  0.19830  0.53388  0.19830  1.0000 -0.0775478665
C   C35       1.0  0.53388  0.19830  0.06952  1.0000 -0.0775478665
C   C36       1.0  0.06952  0.19830  0.53388  1.0000 -0.0775478665
C   C37       1.0  0.80170  0.80170  0.46612  1.0000 -0.0775478665
C   C38       1.0  0.80170  0.80170  0.93048  1.0000 -0.0775478665
C   C39       1.0  0.93048  0.46612  0.80170  1.0000 -0.0775478665
C   C40       1.0  0.46612  0.93048  0.80170  1.0000 -0.0775478665
C   C41       1.0  0.93048  0.80170  0.46612  1.0000 -0.0775478665
C   C42       1.0  0.46612  0.80170  0.93048  1.0000 -0.0775478665
C   C43       1.0  0.80170  0.93048  0.80170  1.0000 -0.0775478665
C   C44       1.0  0.80170  0.46612  0.80170  1.0000 -0.0775478665
C   C45       1.0  0.80170  0.93048  0.46612  1.0000 -0.0775478665
C   C46       1.0  0.80170  0.46612  0.93048  1.0000 -0.0775478665
C   C47       1.0  0.46612  0.80170  0.80170  1.0000 -0.0775478665
C   C48       1.0  0.93048  0.80170  0.80170  1.0000 -0.0775478665
C   C49       1.0  0.06875  0.33677  0.06875  1.0000 0.5835055912
C   C50       1.0  0.33677  0.06875  0.52573  1.0000 0.5835055912
C   C51       1.0  0.06875  0.52573  0.06875  1.0000 0.5835055912
C   C52       1.0  0.52573  0.06875  0.33677  1.0000 0.5835055912
C   C53       1.0  0.06875  0.06875  0.33677  1.0000 0.5835055912
C   C54       1.0  0.52573  0.33677  0.06875  1.0000 0.5835055912
C   C55       1.0  0.06875  0.06875  0.52573  1.0000 0.5835055912
C   C56       1.0  0.33677  0.52573  0.06875  1.0000 0.5835055912
C   C57       1.0  0.33677  0.06875  0.06875  1.0000 0.5835055912
C   C58       1.0  0.06875  0.52573  0.33677  1.0000 0.5835055912
C   C59       1.0  0.52573  0.06875  0.06875  1.0000 0.5835055912
C   C60       1.0  0.06875  0.33677  0.52573  1.0000 0.5835055912
C   C61       1.0  0.93125  0.66323  0.47427  1.0000 0.5835055912
C   C62       1.0  0.66323  0.93125  0.93125  1.0000 0.5835055912
C   C63       1.0  0.93125  0.47427  0.66323  1.0000 0.5835055912
C   C64       1.0  0.47427  0.93125  0.93125  1.0000 0.5835055912
C   C65       1.0  0.93125  0.93125  0.47427  1.0000 0.5835055912
C   C66       1.0  0.47427  0.66323  0.93125  1.0000 0.5835055912
C   C67       1.0  0.93125  0.93125  0.66323  1.0000 0.5835055912
C   C68       1.0  0.66323  0.47427  0.93125  1.0000 0.5835055912
C   C69       1.0  0.66323  0.93125  0.47427  1.0000 0.5835055912
C   C70       1.0  0.93125  0.47427  0.93125  1.0000 0.5835055912
C   C71       1.0  0.47427  0.93125  0.66323  1.0000 0.5835055912
C   C72       1.0  0.93125  0.66323  0.93125  1.0000 0.5835055912
O   O1        1.0  0.99226  0.37374  0.11296  1.0000 -0.5190925594
O   O2        1.0  0.37374  0.99226  0.52104  1.0000 -0.5190925594
O   O3        1.0  0.11296  0.52104  0.99226  1.0000 -0.5190925594
O   O4        1.0  0.52104  0.11296  0.37374  1.0000 -0.5190925594
O   O5        1.0  0.11296  0.99226  0.37374  1.0000 -0.5190925594
O   O6        1.0  0.52104  0.37374  0.99226  1.0000 -0.5190925594
O   O7        1.0  0.99226  0.11296  0.52104  1.0000 -0.5190925594
O   O8        1.0  0.37374  0.52104  0.11296  1.0000 -0.5190925594
O   O9        1.0  0.37374  0.11296  0.99226  1.0000 -0.5190925594
O   O10       1.0  0.99226  0.52104  0.37374  1.0000 -0.5190925594
O   O11       1.0  0.52104  0.99226  0.11296  1.0000 -0.5190925594
O   O12       1.0  0.11296  0.37374  0.52104  1.0000 -0.5190925594
O   O13       1.0  0.00774  0.62626  0.47896  1.0000 -0.5190925594
O   O14       1.0  0.62626  0.00774  0.88704  1.0000 -0.5190925594
O   O15       1.0  0.88704  0.47896  0.62626  1.0000 -0.5190925594
O   O16       1.0  0.47896  0.88704  0.00774  1.0000 -0.5190925594
O   O17       1.0  0.88704  0.00774  0.47896  1.0000 -0.5190925594
O   O18       1.0  0.47896  0.62626  0.88704  1.0000 -0.5190925594
O   O19       1.0  0.00774  0.88704  0.62626  1.0000 -0.5190925594
O   O20       1.0  0.62626  0.47896  0.00774  1.0000 -0.5190925594
O   O21       1.0  0.62626  0.88704  0.47896  1.0000 -0.5190925594
O   O22       1.0  0.00774  0.47896  0.88704  1.0000 -0.5190925594
O   O23       1.0  0.47896  0.00774  0.62626  1.0000 -0.5190925594
O   O24       1.0  0.88704  0.62626  0.00774  1.0000 -0.5190925594
O   O25       1.0  0.00774  0.62626  0.88704  1.0000 -0.5190925594
O   O26       1.0  0.62626  0.00774  0.47896  1.0000 -0.5190925594
O   O27       1.0  0.88704  0.47896  0.00774  1.0000 -0.5190925594
O   O28       1.0  0.47896  0.88704  0.62626  1.0000 -0.5190925594
O   O29       1.0  0.88704  0.00774  0.62626  1.0000 -0.5190925594
O   O30       1.0  0.47896  0.62626  0.00774  1.0000 -0.5190925594
O   O31       1.0  0.00774  0.88704  0.47896  1.0000 -0.5190925594
O   O32       1.0  0.62626  0.47896  0.88704  1.0000 -0.5190925594
O   O33       1.0  0.62626  0.88704  0.00774  1.0000 -0.5190925594
O   O34       1.0  0.00774  0.47896  0.62626  1.0000 -0.5190925594
O   O35       1.0  0.47896  0.00774  0.88704  1.0000 -0.5190925594
O   O36       1.0  0.88704  0.62626  0.47896  1.0000 -0.5190925594
O   O37       1.0  0.99226  0.37374  0.52104  1.0000 -0.5190925594
O   O38       1.0  0.37374  0.99226  0.11296  1.0000 -0.5190925594
O   O39       1.0  0.11296  0.52104  0.37374  1.0000 -0.5190925594
O   O40       1.0  0.52104  0.11296  0.99226  1.0000 -0.5190925594
O   O41       1.0  0.11296  0.99226  0.52104  1.0000 -0.5190925594
O   O42       1.0  0.52104  0.37374  0.11296  1.0000 -0.5190925594
O   O43       1.0  0.99226  0.11296  0.37374  1.0000 -0.5190925594
O   O44       1.0  0.37374  0.52104  0.99226  1.0000 -0.5190925594
O   O45       1.0  0.37374  0.11296  0.52104  1.0000 -0.5190925594
O   O46       1.0  0.99226  0.52104  0.11296  1.0000 -0.5190925594
O   O47       1.0  0.52104  0.99226  0.37374  1.0000 -0.5190925594
O   O48       1.0  0.11296  0.37374  0.99226  1.0000 -0.5190925594
