# DDEC6 charges by PACMAN v1.1 (https://github.com/mtap-research/PACMAN-charge/)
data_2013[Tm][nan]3[ASR]2
_chemical_formula_sum              "Tm4 H6 C30 O24"
_cell_length_a       10.285
_cell_length_b       11.5717
_cell_length_c       13.5114
_cell_angle_alpha    85.581
_cell_angle_beta     110.791
_cell_angle_gamma    116.245

_symmetry_space_group_name_H-M    "P 1"
_symmetry_Int_Tables_number       1

loop_
  _symmetry_equiv_pos_as_xyz
  'x, y, z'

loop_
  _atom_site_type_symbol
  _atom_site_label
  _atom_site_symmetry_multiplicity
  _atom_site_fract_x
  _atom_site_fract_y
  _atom_site_fract_z
  _atom_site_occupancy
  _atom_site_charge
Tm  Tm1       1.0  0.55539  0.72456  0.67969  1.0000 2.0508208733
Tm  Tm2       1.0  0.44461  0.27544  0.32031  1.0000 2.0508208733
Tm  Tm3       1.0  0.53118  0.20302  0.69070  1.0000 2.0508208733
Tm  Tm4       1.0  0.46882  0.79698  0.30930  1.0000 2.0508208733
H   H1        1.0  0.01050  0.88940  0.60220  1.0000 0.1310779985
H   H2        1.0  0.98950  0.11060  0.39780  1.0000 0.1310779985
H   H3        1.0  0.36540  0.79610  0.90870  1.0000 0.1310779985
H   H4        1.0  0.63460  0.20390  0.09130  1.0000 0.1310779985
H   H5        1.0  0.99300  0.58330  0.38980  1.0000 0.1310779985
H   H6        1.0  0.00700  0.41670  0.61020  1.0000 0.1310779985
C   C1        1.0  0.13820  0.75280  0.48130  1.0000 -0.0486445728
C   C2        1.0  0.86180  0.24720  0.51870  1.0000 -0.0486445728
C   C3        1.0  0.86550  0.72240  0.50790  1.0000 -0.0355287313
C   C4        1.0  0.13450  0.27760  0.49210  1.0000 -0.0355287313
C   C5        1.0  0.55670  0.95130  0.81600  1.0000 0.649162696
C   C6        1.0  0.44330  0.04870  0.18400  1.0000 0.649162696
C   C7        1.0  0.14280  0.84370  0.54780  1.0000 -0.0261324879
C   C8        1.0  0.85720  0.15630  0.45220  1.0000 -0.0261324879
C   C9        1.0  0.86030  0.62810  0.44570  1.0000 -0.0486445728
C   C10       1.0  0.13970  0.37190  0.55430  1.0000 -0.0486445728
C   C11       1.0  0.00670  0.82800  0.55930  1.0000 -0.1190631006
C   C12       1.0  0.99330  0.17200  0.44070  1.0000 -0.1190631006
C   C13       1.0  0.27780  0.76580  0.46110  1.0000 0.669485287
C   C14       1.0  0.72220  0.23420  0.53890  1.0000 0.669485287
C   C15       1.0  0.52800  0.97860  0.91080  1.0000 -0.0486445728
C   C16       1.0  0.47200  0.02140  0.08920  1.0000 -0.0486445728
C   C17       1.0  0.42000  0.87770  0.94600  1.0000 -0.0958894629
C   C18       1.0  0.58000  0.12230  0.05400  1.0000 -0.0937078882
C   C19       1.0  0.99690  0.64520  0.43230  1.0000 -0.1123011697
C   C20       1.0  0.00310  0.35480  0.56770  1.0000 -0.1123011697
C   C21       1.0  0.73440  0.21660  0.93980  1.0000 0.5999715786
C   C22       1.0  0.26560  0.78340  0.06020  1.0000 0.5999715786
C   C23       1.0  0.60680  0.10280  0.96500  1.0000 -0.0486445728
C   C24       1.0  0.39320  0.89720  0.03500  1.0000 -0.0486445728
C   C25       1.0  0.72630  0.72170  0.52200  1.0000 0.680875824
C   C26       1.0  0.27370  0.27830  0.47800  1.0000 0.680875824
C   C27       1.0  0.71270  0.50810  0.39660  1.0000 0.5647650223
C   C28       1.0  0.28730  0.49190  0.60340  1.0000 0.5667944413
C   C29       1.0  0.28810  0.96230  0.60460  1.0000 0.5667944413
C   C30       1.0  0.71190  0.03770  0.39540  1.0000 0.5667944413
O   O1        1.0  0.39290  0.01510  0.56473  1.0000 -0.6023553152
O   O2        1.0  0.60710  0.98490  0.43527  1.0000 -0.6023553152
O   O3        1.0  0.61960  0.04620  0.76827  1.0000 -0.6140408058
O   O4        1.0  0.38040  0.95380  0.23173  1.0000 -0.6207747796
O   O5        1.0  0.59930  0.48140  0.42600  1.0000 -0.6207747796
O   O6        1.0  0.40070  0.51860  0.57400  1.0000 -0.6207747796
O   O7        1.0  0.71520  0.69760  0.61150  1.0000 -0.667197122
O   O8        1.0  0.28480  0.30240  0.38850  1.0000 -0.667197122
O   O9        1.0  0.70030  0.27970  0.86117  1.0000 -0.7033638794
O   O10       1.0  0.29970  0.72030  0.13883  1.0000 -0.7033638794
O   O11       1.0  0.70330  0.43320  0.32800  1.0000 -0.6382162411
O   O12       1.0  0.29670  0.56680  0.67200  1.0000 -0.6382162411
O   O13       1.0  0.27160  0.77470  0.36550  1.0000 -0.6277083296
O   O14       1.0  0.72840  0.22530  0.63450  1.0000 -0.6277083296
O   O15       1.0  0.51440  0.83500  0.78800  1.0000 -0.6893782157
O   O16       1.0  0.48560  0.16500  0.21200  1.0000 -0.6893782157
O   O17       1.0  0.86820  0.24630  0.00300  1.0000 -0.4083733994
O   O18       1.0  0.13180  0.75370  0.99700  1.0000 -0.4028352041
O   O19       1.0  0.30050  0.01240  0.68970  1.0000 -0.6613728542
O   O20       1.0  0.69950  0.98760  0.31030  1.0000 -0.6613728542
O   O21       1.0  0.63830  0.75460  0.44840  1.0000 -0.7055820066
O   O22       1.0  0.36170  0.24540  0.55160  1.0000 -0.7055820066
O   O23       1.0  0.39130  0.76440  0.53630  1.0000 -0.7055820066
O   O24       1.0  0.60870  0.23560  0.46370  1.0000 -0.7055820066
