# DDEC6 charges by PACMAN v1.1 (https://github.com/mtap-research/PACMAN-charge/)
data_2013[Ag][nan]3[ASR]2
_chemical_formula_sum              "Ag96 H384 C384 N576"
_cell_length_a       35.2627
_cell_length_b       35.2627
_cell_length_c       35.2627
_cell_angle_alpha    60
_cell_angle_beta     60
_cell_angle_gamma    60

_symmetry_space_group_name_H-M    "P 1"
_symmetry_Int_Tables_number       1

loop_
  _symmetry_equiv_pos_as_xyz
  'x, y, z'

loop_
  _atom_site_type_symbol
  _atom_site_label
  _atom_site_symmetry_multiplicity
  _atom_site_fract_x
  _atom_site_fract_y
  _atom_site_fract_z
  _atom_site_occupancy
  _atom_site_charge
Ag  Ag1       1.0  0.60788  0.18998  0.75806  1.0000 0.2713907291
Ag  Ag2       1.0  0.80592  0.49194  0.64211  1.0000 0.2713907291
Ag  Ag3       1.0  0.18998  0.60788  0.44407  1.0000 0.2713907291
Ag  Ag4       1.0  0.49194  0.80593  0.06003  1.0000 0.2713907291
Ag  Ag5       1.0  0.06003  0.80593  0.64211  1.0000 0.2713907291
Ag  Ag6       1.0  0.44407  0.75806  0.18998  1.0000 0.2713907291
Ag  Ag7       1.0  0.49193  0.64211  0.80593  1.0000 0.2713907291
Ag  Ag8       1.0  0.06003  0.49193  0.80593  1.0000 0.2713907291
Ag  Ag9       1.0  0.75806  0.44407  0.60789  1.0000 0.2713907291
Ag  Ag10      1.0  0.80592  0.64211  0.06003  1.0000 0.2713907291
Ag  Ag11      1.0  0.75806  0.60788  0.18998  1.0000 0.2713907291
Ag  Ag12      1.0  0.18997  0.75806  0.60789  1.0000 0.2713907291
Ag  Ag13      1.0  0.75806  0.18998  0.44407  1.0000 0.2713907291
Ag  Ag14      1.0  0.44407  0.18997  0.60789  1.0000 0.2713907291
Ag  Ag15      1.0  0.60788  0.44407  0.18998  1.0000 0.2713907291
Ag  Ag16      1.0  0.60788  0.75806  0.44407  1.0000 0.2713907291
Ag  Ag17      1.0  0.18998  0.44407  0.75806  1.0000 0.2713907291
Ag  Ag18      1.0  0.44407  0.60788  0.75806  1.0000 0.2713907291
Ag  Ag19      1.0  0.64211  0.06003  0.80593  1.0000 0.2713907291
Ag  Ag20      1.0  0.06002  0.64211  0.49194  1.0000 0.2713907291
Ag  Ag21      1.0  0.80592  0.06002  0.49194  1.0000 0.2713907291
Ag  Ag22      1.0  0.64211  0.49194  0.06003  1.0000 0.2713907291
Ag  Ag23      1.0  0.64211  0.80593  0.49194  1.0000 0.2713907291
Ag  Ag24      1.0  0.49194  0.06003  0.64211  1.0000 0.2713907291
Ag  Ag25      1.0  0.14211  0.56002  0.99194  1.0000 0.2713907291
Ag  Ag26      1.0  0.94407  0.25806  0.10788  1.0000 0.2713907291
Ag  Ag27      1.0  0.56002  0.14211  0.30593  1.0000 0.2713907291
Ag  Ag28      1.0  0.25806  0.94407  0.68998  1.0000 0.2713907291
Ag  Ag29      1.0  0.68997  0.94407  0.10788  1.0000 0.2713907291
Ag  Ag30      1.0  0.30592  0.99193  0.56003  1.0000 0.2713907291
Ag  Ag31      1.0  0.25806  0.10789  0.94407  1.0000 0.2713907291
Ag  Ag32      1.0  0.68997  0.25806  0.94407  1.0000 0.2713907291
Ag  Ag33      1.0  0.99194  0.30593  0.14211  1.0000 0.2713907291
Ag  Ag34      1.0  0.94407  0.10788  0.68998  1.0000 0.2713907291
Ag  Ag35      1.0  0.99194  0.14211  0.56003  1.0000 0.2713907291
Ag  Ag36      1.0  0.56002  0.99194  0.14211  1.0000 0.2713907291
Ag  Ag37      1.0  0.99194  0.56002  0.30593  1.0000 0.2713907291
Ag  Ag38      1.0  0.30593  0.56002  0.14211  1.0000 0.2713907291
Ag  Ag39      1.0  0.14211  0.30592  0.56003  1.0000 0.2713907291
Ag  Ag40      1.0  0.14211  0.99194  0.30593  1.0000 0.2713907291
Ag  Ag41      1.0  0.56002  0.30593  0.99194  1.0000 0.2713907291
Ag  Ag42      1.0  0.30593  0.14211  0.99194  1.0000 0.2713907291
Ag  Ag43      1.0  0.10788  0.68998  0.94407  1.0000 0.2713907291
Ag  Ag44      1.0  0.68997  0.10789  0.25806  1.0000 0.2713907291
Ag  Ag45      1.0  0.94407  0.68998  0.25806  1.0000 0.2754343483
Ag  Ag46      1.0  0.10788  0.25806  0.68998  1.0000 0.2713907291
Ag  Ag47      1.0  0.10788  0.94407  0.25806  1.0000 0.2713907291
Ag  Ag48      1.0  0.25806  0.68998  0.10788  1.0000 0.2713907291
Ag  Ag49      1.0  0.61479  0.30991  0.69199  1.0000 0.2644688125
Ag  Ag50      1.0  0.86669  0.55801  0.63521  1.0000 0.2644688125
Ag  Ag51      1.0  0.30991  0.61479  0.38331  1.0000 0.2644688125
Ag  Ag52      1.0  0.55801  0.86669  0.94009  1.0000 0.2644688125
Ag  Ag53      1.0  0.94009  0.86669  0.63521  1.0000 0.2713907291
Ag  Ag54      1.0  0.38331  0.69199  0.30991  1.0000 0.2644688125
Ag  Ag55      1.0  0.55801  0.63521  0.86669  1.0000 0.2644688125
Ag  Ag56      1.0  0.94009  0.55801  0.86669  1.0000 0.2644688125
Ag  Ag57      1.0  0.69199  0.38331  0.61479  1.0000 0.2644688125
Ag  Ag58      1.0  0.86669  0.63521  0.94009  1.0000 0.2644688125
Ag  Ag59      1.0  0.69199  0.61479  0.30991  1.0000 0.2713907291
Ag  Ag60      1.0  0.30991  0.69199  0.61479  1.0000 0.2644688125
Ag  Ag61      1.0  0.69199  0.30991  0.38331  1.0000 0.2713907291
Ag  Ag62      1.0  0.38331  0.30991  0.61479  1.0000 0.2713907291
Ag  Ag63      1.0  0.61479  0.38331  0.30991  1.0000 0.2644688125
Ag  Ag64      1.0  0.61479  0.69199  0.38331  1.0000 0.2644688125
Ag  Ag65      1.0  0.30991  0.38331  0.69199  1.0000 0.2644688125
Ag  Ag66      1.0  0.38331  0.61479  0.69199  1.0000 0.2644688125
Ag  Ag67      1.0  0.63521  0.94009  0.86669  1.0000 0.2644688125
Ag  Ag68      1.0  0.94009  0.63521  0.55801  1.0000 0.2644688125
Ag  Ag69      1.0  0.86669  0.94009  0.55801  1.0000 0.2713907291
Ag  Ag70      1.0  0.63521  0.55801  0.94009  1.0000 0.2644688125
Ag  Ag71      1.0  0.63521  0.86669  0.55801  1.0000 0.2713907291
Ag  Ag72      1.0  0.55801  0.94009  0.63521  1.0000 0.2713907291
Ag  Ag73      1.0  0.13521  0.44009  0.05801  1.0000 0.2644688125
Ag  Ag74      1.0  0.88331  0.19199  0.11479  1.0000 0.2644688125
Ag  Ag75      1.0  0.44009  0.13521  0.36669  1.0000 0.2713907291
Ag  Ag76      1.0  0.19199  0.88331  0.80991  1.0000 0.2644688125
Ag  Ag77      1.0  0.80991  0.88331  0.11479  1.0000 0.2713907291
Ag  Ag78      1.0  0.36669  0.05801  0.44009  1.0000 0.2644688125
Ag  Ag79      1.0  0.19199  0.11479  0.88331  1.0000 0.2713907291
Ag  Ag80      1.0  0.80991  0.19199  0.88331  1.0000 0.2713907291
Ag  Ag81      1.0  0.05801  0.36669  0.13521  1.0000 0.2713907291
Ag  Ag82      1.0  0.88331  0.11479  0.80991  1.0000 0.2644688125
Ag  Ag83      1.0  0.05801  0.13521  0.44009  1.0000 0.2644688125
Ag  Ag84      1.0  0.44009  0.05801  0.13521  1.0000 0.2713907291
Ag  Ag85      1.0  0.05801  0.44009  0.36669  1.0000 0.2644688125
Ag  Ag86      1.0  0.36669  0.44009  0.13521  1.0000 0.2713907291
Ag  Ag87      1.0  0.13521  0.36669  0.44009  1.0000 0.2644688125
Ag  Ag88      1.0  0.13521  0.05801  0.36669  1.0000 0.2644688125
Ag  Ag89      1.0  0.44009  0.36669  0.05801  1.0000 0.2713907291
Ag  Ag90      1.0  0.36669  0.13521  0.05801  1.0000 0.2644688125
Ag  Ag91      1.0  0.11479  0.80991  0.88331  1.0000 0.2644688125
Ag  Ag92      1.0  0.80991  0.11479  0.19199  1.0000 0.2644688125
Ag  Ag93      1.0  0.88331  0.80991  0.19199  1.0000 0.2713907291
Ag  Ag94      1.0  0.11479  0.19199  0.80991  1.0000 0.2644688125
Ag  Ag95      1.0  0.11479  0.88331  0.19199  1.0000 0.2644688125
Ag  Ag96      1.0  0.19199  0.80991  0.11479  1.0000 0.2713907291
H   H1        1.0  0.51000  0.21820  0.73920  1.0000 0.1234436307
H   H2        1.0  0.71740  0.51080  0.74000  1.0000 0.1234436307
H   H3        1.0  0.21820  0.51000  0.53260  1.0000 0.1234436307
H   H4        1.0  0.51080  0.71740  0.03180  1.0000 0.1234436307
H   H5        1.0  0.03180  0.71740  0.74000  1.0000 0.1234436307
H   H6        1.0  0.53260  0.73920  0.21820  1.0000 0.1234436307
H   H7        1.0  0.51080  0.74000  0.71740  1.0000 0.1234436307
H   H8        1.0  0.03180  0.51080  0.71740  1.0000 0.1234436307
H   H9        1.0  0.73920  0.53260  0.51000  1.0000 0.1234436307
H   H10       1.0  0.71740  0.74000  0.03180  1.0000 0.1234436307
H   H11       1.0  0.73920  0.51000  0.21820  1.0000 0.1234436307
H   H12       1.0  0.21820  0.73920  0.51000  1.0000 0.1234436307
H   H13       1.0  0.73920  0.21820  0.53260  1.0000 0.1234436307
H   H14       1.0  0.53260  0.21820  0.51000  1.0000 0.1234436307
H   H15       1.0  0.51000  0.53260  0.21820  1.0000 0.1234436307
H   H16       1.0  0.51000  0.73920  0.53260  1.0000 0.1234436307
H   H17       1.0  0.21820  0.53260  0.73920  1.0000 0.1234436307
H   H18       1.0  0.53260  0.51000  0.73920  1.0000 0.1234436307
H   H19       1.0  0.74000  0.03180  0.71740  1.0000 0.1234436307
H   H20       1.0  0.03180  0.74000  0.51080  1.0000 0.1234436307
H   H21       1.0  0.71740  0.03180  0.51080  1.0000 0.1234436307
H   H22       1.0  0.74000  0.51080  0.03180  1.0000 0.1234436307
H   H23       1.0  0.74000  0.71740  0.51080  1.0000 0.1234436307
H   H24       1.0  0.51080  0.03180  0.74000  1.0000 0.1234436307
H   H25       1.0  0.24000  0.53180  0.01080  1.0000 0.1234436307
H   H26       1.0  0.03260  0.23920  0.01000  1.0000 0.1234436307
H   H27       1.0  0.53180  0.24000  0.21740  1.0000 0.1234436307
H   H28       1.0  0.23920  0.03260  0.71820  1.0000 0.1234436307
H   H29       1.0  0.71820  0.03260  0.01000  1.0000 0.1234436307
H   H30       1.0  0.21740  0.01080  0.53180  1.0000 0.1234436307
H   H31       1.0  0.23920  0.01000  0.03260  1.0000 0.1234436307
H   H32       1.0  0.71820  0.23920  0.03260  1.0000 0.1234436307
H   H33       1.0  0.01080  0.21740  0.24000  1.0000 0.1234436307
H   H34       1.0  0.03260  0.01000  0.71820  1.0000 0.1234436307
H   H35       1.0  0.01080  0.24000  0.53180  1.0000 0.1234436307
H   H36       1.0  0.53180  0.01080  0.24000  1.0000 0.1234436307
H   H37       1.0  0.01080  0.53180  0.21740  1.0000 0.1234436307
H   H38       1.0  0.21740  0.53180  0.24000  1.0000 0.1234436307
H   H39       1.0  0.24000  0.21740  0.53180  1.0000 0.1234436307
H   H40       1.0  0.24000  0.01080  0.21740  1.0000 0.1234436307
H   H41       1.0  0.53180  0.21740  0.01080  1.0000 0.1234436307
H   H42       1.0  0.21740  0.24000  0.01080  1.0000 0.1234436307
H   H43       1.0  0.01000  0.71820  0.03260  1.0000 0.1234436307
H   H44       1.0  0.71820  0.01000  0.23920  1.0000 0.1234436307
H   H45       1.0  0.03260  0.71820  0.23920  1.0000 0.1234436307
H   H46       1.0  0.01000  0.23920  0.71820  1.0000 0.1234436307
H   H47       1.0  0.01000  0.03260  0.23920  1.0000 0.1234436307
H   H48       1.0  0.23920  0.71820  0.01000  1.0000 0.1234436307
H   H49       1.0  0.51260  0.34640  0.66300  1.0000 0.1234436307
H   H50       1.0  0.77200  0.58700  0.73740  1.0000 0.1234436307
H   H51       1.0  0.34640  0.51260  0.47800  1.0000 0.1234436307
H   H52       1.0  0.58700  0.77200  0.90360  1.0000 0.1234436307
H   H53       1.0  0.90360  0.77200  0.73740  1.0000 0.1234436307
H   H54       1.0  0.47800  0.66300  0.34640  1.0000 0.1234436307
H   H55       1.0  0.58700  0.73740  0.77200  1.0000 0.1234436307
H   H56       1.0  0.90360  0.58700  0.77200  1.0000 0.1234436307
H   H57       1.0  0.66300  0.47800  0.51260  1.0000 0.1234436307
H   H58       1.0  0.77200  0.73740  0.90360  1.0000 0.1234436307
H   H59       1.0  0.66300  0.51260  0.34640  1.0000 0.1234436307
H   H60       1.0  0.34640  0.66300  0.51260  1.0000 0.1234436307
H   H61       1.0  0.66300  0.34640  0.47800  1.0000 0.1234436307
H   H62       1.0  0.47800  0.34640  0.51260  1.0000 0.1234436307
H   H63       1.0  0.51260  0.47800  0.34640  1.0000 0.1234436307
H   H64       1.0  0.51260  0.66300  0.47800  1.0000 0.1234436307
H   H65       1.0  0.34640  0.47800  0.66300  1.0000 0.1234436307
H   H66       1.0  0.47800  0.51260  0.66300  1.0000 0.1234436307
H   H67       1.0  0.73740  0.90360  0.77200  1.0000 0.1234436307
H   H68       1.0  0.90360  0.73740  0.58700  1.0000 0.1234436307
H   H69       1.0  0.77200  0.90360  0.58700  1.0000 0.1234436307
H   H70       1.0  0.73740  0.58700  0.90360  1.0000 0.1234436307
H   H71       1.0  0.73740  0.77200  0.58700  1.0000 0.1234436307
H   H72       1.0  0.58700  0.90360  0.73740  1.0000 0.1234436307
H   H73       1.0  0.23740  0.40360  0.08700  1.0000 0.1234436307
H   H74       1.0  0.97800  0.16300  0.01260  1.0000 0.1234436307
H   H75       1.0  0.40360  0.23740  0.27200  1.0000 0.1234436307
H   H76       1.0  0.16300  0.97800  0.84640  1.0000 0.1234436307
H   H77       1.0  0.84640  0.97800  0.01260  1.0000 0.1234436307
H   H78       1.0  0.27200  0.08700  0.40360  1.0000 0.1234436307
H   H79       1.0  0.16300  0.01260  0.97800  1.0000 0.1234436307
H   H80       1.0  0.84640  0.16300  0.97800  1.0000 0.1234436307
H   H81       1.0  0.08700  0.27200  0.23740  1.0000 0.1234436307
H   H82       1.0  0.97800  0.01260  0.84640  1.0000 0.1234436307
H   H83       1.0  0.08700  0.23740  0.40360  1.0000 0.1234436307
H   H84       1.0  0.40360  0.08700  0.23740  1.0000 0.1234436307
H   H85       1.0  0.08700  0.40360  0.27200  1.0000 0.1234436307
H   H86       1.0  0.27200  0.40360  0.23740  1.0000 0.1234436307
H   H87       1.0  0.23740  0.27200  0.40360  1.0000 0.1234436307
H   H88       1.0  0.23740  0.08700  0.27200  1.0000 0.1234436307
H   H89       1.0  0.40360  0.27200  0.08700  1.0000 0.1234436307
H   H90       1.0  0.27200  0.23740  0.08700  1.0000 0.1234436307
H   H91       1.0  0.01260  0.84640  0.97800  1.0000 0.1234436307
H   H92       1.0  0.84640  0.01260  0.16300  1.0000 0.1234436307
H   H93       1.0  0.97800  0.84640  0.16300  1.0000 0.1234436307
H   H94       1.0  0.01260  0.16300  0.84640  1.0000 0.1234436307
H   H95       1.0  0.01260  0.97800  0.16300  1.0000 0.1234436307
H   H96       1.0  0.16300  0.84640  0.01260  1.0000 0.1234436307
H   H97       1.0  0.60960  0.19580  0.85800  1.0000 0.1280185515
H   H98       1.0  0.91340  0.39200  0.64040  1.0000 0.1280185515
H   H99       1.0  0.19580  0.60960  0.33660  1.0000 0.1280185515
H   H100      1.0  0.39200  0.91340  0.05420  1.0000 0.1280185515
H   H101      1.0  0.05420  0.91340  0.64040  1.0000 0.1280185515
H   H102      1.0  0.33660  0.85800  0.19580  1.0000 0.1280185515
H   H103      1.0  0.39200  0.64040  0.91340  1.0000 0.1280185515
H   H104      1.0  0.05420  0.39200  0.91340  1.0000 0.1280185515
H   H105      1.0  0.85800  0.33660  0.60960  1.0000 0.1280185515
H   H106      1.0  0.91340  0.64040  0.05420  1.0000 0.1280185515
H   H107      1.0  0.85800  0.60960  0.19580  1.0000 0.1280185515
H   H108      1.0  0.19580  0.85800  0.60960  1.0000 0.1280185515
H   H109      1.0  0.85800  0.19580  0.33660  1.0000 0.1280185515
H   H110      1.0  0.33660  0.19580  0.60960  1.0000 0.1280185515
H   H111      1.0  0.60960  0.33660  0.19580  1.0000 0.1280185515
H   H112      1.0  0.60960  0.85800  0.33660  1.0000 0.1280185515
H   H113      1.0  0.19580  0.33660  0.85800  1.0000 0.1280185515
H   H114      1.0  0.33660  0.60960  0.85800  1.0000 0.1280185515
H   H115      1.0  0.64040  0.05420  0.91340  1.0000 0.1280185515
H   H116      1.0  0.05420  0.64040  0.39200  1.0000 0.1280185515
H   H117      1.0  0.91340  0.05420  0.39200  1.0000 0.1280185515
H   H118      1.0  0.64040  0.39200  0.05420  1.0000 0.1280185515
H   H119      1.0  0.64040  0.91340  0.39200  1.0000 0.1280185515
H   H120      1.0  0.39200  0.05420  0.64040  1.0000 0.1280185515
H   H121      1.0  0.14040  0.55420  0.89200  1.0000 0.1280185515
H   H122      1.0  0.83660  0.35800  0.10960  1.0000 0.1280185515
H   H123      1.0  0.55420  0.14040  0.41340  1.0000 0.1280185515
H   H124      1.0  0.35800  0.83660  0.69580  1.0000 0.1280185515
H   H125      1.0  0.69580  0.83660  0.10960  1.0000 0.1280185515
H   H126      1.0  0.41340  0.89200  0.55420  1.0000 0.1280185515
H   H127      1.0  0.35800  0.10960  0.83660  1.0000 0.1280185515
H   H128      1.0  0.69580  0.35800  0.83660  1.0000 0.1280185515
H   H129      1.0  0.89200  0.41340  0.14040  1.0000 0.1234436307
H   H130      1.0  0.83660  0.10960  0.69580  1.0000 0.1280185515
H   H131      1.0  0.89200  0.14040  0.55420  1.0000 0.1280185515
H   H132      1.0  0.55420  0.89200  0.14040  1.0000 0.1280185515
H   H133      1.0  0.89200  0.55420  0.41340  1.0000 0.1280185515
H   H134      1.0  0.41340  0.55420  0.14040  1.0000 0.1280185515
H   H135      1.0  0.14040  0.41340  0.55420  1.0000 0.1280185515
H   H136      1.0  0.14040  0.89200  0.41340  1.0000 0.1280185515
H   H137      1.0  0.55420  0.41340  0.89200  1.0000 0.1280185515
H   H138      1.0  0.41340  0.14040  0.89200  1.0000 0.1280185515
H   H139      1.0  0.10960  0.69580  0.83660  1.0000 0.1280185515
H   H140      1.0  0.69580  0.10960  0.35800  1.0000 0.1280185515
H   H141      1.0  0.83660  0.69580  0.35800  1.0000 0.1280185515
H   H142      1.0  0.10960  0.35800  0.69580  1.0000 0.1280185515
H   H143      1.0  0.10960  0.83660  0.35800  1.0000 0.1280185515
H   H144      1.0  0.35800  0.69580  0.10960  1.0000 0.1280185515
H   H145      1.0  0.62450  0.31890  0.77930  1.0000 0.1280185515
H   H146      1.0  0.97270  0.47070  0.62550  1.0000 0.1280185515
H   H147      1.0  0.31890  0.62450  0.27730  1.0000 0.1280185515
H   H148      1.0  0.47070  0.97270  0.93110  1.0000 0.1280185515
H   H149      1.0  0.93110  0.97270  0.62550  1.0000 0.1280185515
H   H150      1.0  0.27730  0.77930  0.31890  1.0000 0.1280185515
H   H151      1.0  0.47070  0.62550  0.97270  1.0000 0.1280185515
H   H152      1.0  0.93110  0.47070  0.97270  1.0000 0.1280185515
H   H153      1.0  0.77930  0.27730  0.62450  1.0000 0.1280185515
H   H154      1.0  0.97270  0.62550  0.93110  1.0000 0.1280185515
H   H155      1.0  0.77930  0.62450  0.31890  1.0000 0.1280185515
H   H156      1.0  0.31890  0.77930  0.62450  1.0000 0.1280185515
H   H157      1.0  0.77930  0.31890  0.27730  1.0000 0.1280185515
H   H158      1.0  0.27730  0.31890  0.62450  1.0000 0.1280185515
H   H159      1.0  0.62450  0.27730  0.31890  1.0000 0.1280185515
H   H160      1.0  0.62450  0.77930  0.27730  1.0000 0.1280185515
H   H161      1.0  0.31890  0.27730  0.77930  1.0000 0.1280185515
H   H162      1.0  0.27730  0.62450  0.77930  1.0000 0.1280185515
H   H163      1.0  0.62550  0.93110  0.97270  1.0000 0.1280185515
H   H164      1.0  0.93110  0.62550  0.47070  1.0000 0.1280185515
H   H165      1.0  0.97270  0.93110  0.47070  1.0000 0.1280185515
H   H166      1.0  0.62550  0.47070  0.93110  1.0000 0.1280185515
H   H167      1.0  0.62550  0.97270  0.47070  1.0000 0.1280185515
H   H168      1.0  0.47070  0.93110  0.62550  1.0000 0.1280185515
H   H169      1.0  0.12550  0.43110  0.97070  1.0000 0.1280185515
H   H170      1.0  0.77730  0.27930  0.12450  1.0000 0.1280185515
H   H171      1.0  0.43110  0.12550  0.47270  1.0000 0.1280185515
H   H172      1.0  0.27930  0.77730  0.81890  1.0000 0.1280185515
H   H173      1.0  0.81890  0.77730  0.12450  1.0000 0.1280185515
H   H174      1.0  0.47270  0.97070  0.43110  1.0000 0.1280185515
H   H175      1.0  0.27930  0.12450  0.77730  1.0000 0.1280185515
H   H176      1.0  0.81890  0.27930  0.77730  1.0000 0.1280185515
H   H177      1.0  0.97070  0.47270  0.12550  1.0000 0.1280185515
H   H178      1.0  0.77730  0.12450  0.81890  1.0000 0.1280185515
H   H179      1.0  0.97070  0.12550  0.43110  1.0000 0.1280185515
H   H180      1.0  0.43110  0.97070  0.12550  1.0000 0.1280185515
H   H181      1.0  0.97070  0.43110  0.47270  1.0000 0.1280185515
H   H182      1.0  0.47270  0.43110  0.12550  1.0000 0.1280185515
H   H183      1.0  0.12550  0.47270  0.43110  1.0000 0.1280185515
H   H184      1.0  0.12550  0.97070  0.47270  1.0000 0.1280185515
H   H185      1.0  0.43110  0.47270  0.97070  1.0000 0.1280185515
H   H186      1.0  0.47270  0.12550  0.97070  1.0000 0.1280185515
H   H187      1.0  0.12450  0.81890  0.77730  1.0000 0.1280185515
H   H188      1.0  0.81890  0.12450  0.27930  1.0000 0.1280185515
H   H189      1.0  0.77730  0.81890  0.27930  1.0000 0.1280185515
H   H190      1.0  0.12450  0.27930  0.81890  1.0000 0.1280185515
H   H191      1.0  0.12450  0.77730  0.27930  1.0000 0.1280185515
H   H192      1.0  0.27930  0.81890  0.12450  1.0000 0.1280185515
H   H193      1.0  0.40550  0.33670  0.73230  1.0000 0.1234436307
H   H194      1.0  0.72450  0.51770  0.84450  1.0000 0.1234436307
H   H195      1.0  0.33670  0.40550  0.52550  1.0000 0.1234436307
H   H196      1.0  0.51770  0.72450  0.91330  1.0000 0.1234436307
H   H197      1.0  0.91330  0.72450  0.84450  1.0000 0.1234436307
H   H198      1.0  0.52550  0.73230  0.33670  1.0000 0.1234436307
H   H199      1.0  0.51770  0.84450  0.72450  1.0000 0.1234436307
H   H200      1.0  0.91330  0.51770  0.72450  1.0000 0.1234436307
H   H201      1.0  0.73230  0.52550  0.40550  1.0000 0.1234436307
H   H202      1.0  0.72450  0.84450  0.91330  1.0000 0.1234436307
H   H203      1.0  0.73230  0.40550  0.33670  1.0000 0.1234436307
H   H204      1.0  0.33670  0.73230  0.40550  1.0000 0.1234436307
H   H205      1.0  0.73230  0.33670  0.52550  1.0000 0.1234436307
H   H206      1.0  0.52550  0.33670  0.40550  1.0000 0.1234436307
H   H207      1.0  0.40550  0.52550  0.33670  1.0000 0.1234436307
H   H208      1.0  0.40550  0.73230  0.52550  1.0000 0.1234436307
H   H209      1.0  0.33670  0.52550  0.73230  1.0000 0.1234436307
H   H210      1.0  0.52550  0.40550  0.73230  1.0000 0.1234436307
H   H211      1.0  0.84450  0.91330  0.72450  1.0000 0.1234436307
H   H212      1.0  0.91330  0.84450  0.51770  1.0000 0.1234436307
H   H213      1.0  0.72450  0.91330  0.51770  1.0000 0.1234436307
H   H214      1.0  0.84450  0.51770  0.91330  1.0000 0.1234436307
H   H215      1.0  0.84450  0.72450  0.51770  1.0000 0.1234436307
H   H216      1.0  0.51770  0.91330  0.84450  1.0000 0.1234436307
H   H217      1.0  0.34450  0.41330  0.01770  1.0000 0.1234436307
H   H218      1.0  0.02550  0.23230  0.90550  1.0000 0.1234436307
H   H219      1.0  0.41330  0.34450  0.22450  1.0000 0.1234436307
H   H220      1.0  0.23230  0.02550  0.83670  1.0000 0.1234436307
H   H221      1.0  0.83670  0.02550  0.90550  1.0000 0.1234436307
H   H222      1.0  0.22450  0.01770  0.41330  1.0000 0.1234436307
H   H223      1.0  0.23230  0.90550  0.02550  1.0000 0.1234436307
H   H224      1.0  0.83670  0.23230  0.02550  1.0000 0.1234436307
H   H225      1.0  0.01770  0.22450  0.34450  1.0000 0.1234436307
H   H226      1.0  0.02550  0.90550  0.83670  1.0000 0.1234436307
H   H227      1.0  0.01770  0.34450  0.41330  1.0000 0.1234436307
H   H228      1.0  0.41330  0.01770  0.34450  1.0000 0.1234436307
H   H229      1.0  0.01770  0.41330  0.22450  1.0000 0.1234436307
H   H230      1.0  0.22450  0.41330  0.34450  1.0000 0.1234436307
H   H231      1.0  0.34450  0.22450  0.41330  1.0000 0.1234436307
H   H232      1.0  0.34450  0.01770  0.22450  1.0000 0.1234436307
H   H233      1.0  0.41330  0.22450  0.01770  1.0000 0.1234436307
H   H234      1.0  0.22450  0.34450  0.01770  1.0000 0.1234436307
H   H235      1.0  0.90550  0.83670  0.02550  1.0000 0.1234436307
H   H236      1.0  0.83670  0.90550  0.23230  1.0000 0.1234436307
H   H237      1.0  0.02550  0.83670  0.23230  1.0000 0.1234436307
H   H238      1.0  0.90550  0.23230  0.83670  1.0000 0.1234436307
H   H239      1.0  0.90550  0.02550  0.23230  1.0000 0.1234436307
H   H240      1.0  0.23230  0.83670  0.90550  1.0000 0.1234436307
H   H241      1.0  0.47780  0.26740  0.64540  1.0000 0.1234436307
H   H242      1.0  0.64060  0.60460  0.77220  1.0000 0.1234436307
H   H243      1.0  0.26740  0.47780  0.60940  1.0000 0.1234436307
H   H244      1.0  0.60460  0.64060  0.98260  1.0000 0.1234436307
H   H245      1.0  0.98260  0.64060  0.77220  1.0000 0.1234436307
H   H246      1.0  0.60940  0.64540  0.26740  1.0000 0.1234436307
H   H247      1.0  0.60460  0.77220  0.64060  1.0000 0.1234436307
H   H248      1.0  0.98260  0.60460  0.64060  1.0000 0.1234436307
H   H249      1.0  0.64540  0.60940  0.47780  1.0000 0.1234436307
H   H250      1.0  0.64060  0.77220  0.98260  1.0000 0.1234436307
H   H251      1.0  0.64540  0.47780  0.26740  1.0000 0.1234436307
H   H252      1.0  0.26740  0.64540  0.47780  1.0000 0.1234436307
H   H253      1.0  0.64540  0.26740  0.60940  1.0000 0.1234436307
H   H254      1.0  0.60940  0.26740  0.47780  1.0000 0.1234436307
H   H255      1.0  0.47780  0.60940  0.26740  1.0000 0.1234436307
H   H256      1.0  0.47780  0.64540  0.60940  1.0000 0.1234436307
H   H257      1.0  0.26740  0.60940  0.64540  1.0000 0.1234436307
H   H258      1.0  0.60940  0.47780  0.64540  1.0000 0.1234436307
H   H259      1.0  0.77220  0.98260  0.64060  1.0000 0.1234436307
H   H260      1.0  0.98260  0.77220  0.60460  1.0000 0.1234436307
H   H261      1.0  0.64060  0.98260  0.60460  1.0000 0.1234436307
H   H262      1.0  0.77220  0.60460  0.98260  1.0000 0.1234436307
H   H263      1.0  0.77220  0.64060  0.60460  1.0000 0.1234436307
H   H264      1.0  0.60460  0.98260  0.77220  1.0000 0.1234436307
H   H265      1.0  0.27220  0.48260  0.10460  1.0000 0.1234436307
H   H266      1.0  0.10940  0.14540  0.97780  1.0000 0.1234436307
H   H267      1.0  0.48260  0.27220  0.14060  1.0000 0.1234436307
H   H268      1.0  0.14540  0.10940  0.76740  1.0000 0.1234436307
H   H269      1.0  0.76740  0.10940  0.97780  1.0000 0.1234436307
H   H270      1.0  0.14060  0.10460  0.48260  1.0000 0.1234436307
H   H271      1.0  0.14540  0.97780  0.10940  1.0000 0.1234436307
H   H272      1.0  0.76740  0.14540  0.10940  1.0000 0.1234436307
H   H273      1.0  0.10460  0.14060  0.27220  1.0000 0.1234436307
H   H274      1.0  0.10940  0.97780  0.76740  1.0000 0.1234436307
H   H275      1.0  0.10460  0.27220  0.48260  1.0000 0.1234436307
H   H276      1.0  0.48260  0.10460  0.27220  1.0000 0.1234436307
H   H277      1.0  0.10460  0.48260  0.14060  1.0000 0.1234436307
H   H278      1.0  0.14060  0.48260  0.27220  1.0000 0.1234436307
H   H279      1.0  0.27220  0.14060  0.48260  1.0000 0.1234436307
H   H280      1.0  0.27220  0.10460  0.14060  1.0000 0.1234436307
H   H281      1.0  0.48260  0.14060  0.10460  1.0000 0.1234436307
H   H282      1.0  0.14060  0.27220  0.10460  1.0000 0.1234436307
H   H283      1.0  0.97780  0.76740  0.10940  1.0000 0.1234436307
H   H284      1.0  0.76740  0.97780  0.14540  1.0000 0.1234436307
H   H285      1.0  0.10940  0.76740  0.14540  1.0000 0.1234436307
H   H286      1.0  0.97780  0.14540  0.76740  1.0000 0.1234436307
H   H287      1.0  0.97780  0.10940  0.14540  1.0000 0.1234436307
H   H288      1.0  0.14540  0.76740  0.97780  1.0000 0.1234436307
H   H289      1.0  0.55370  0.29830  0.89810  1.0000 0.1280185515
H   H290      1.0  0.00010  0.35190  0.69630  1.0000 0.1280185515
H   H291      1.0  0.29830  0.55370  0.24990  1.0000 0.1280185515
H   H292      1.0  0.35190  0.00010  0.95170  1.0000 0.1280185515
H   H293      1.0  0.95170  0.00010  0.69630  1.0000 0.1280185515
H   H294      1.0  0.24990  0.89810  0.29830  1.0000 0.1280185515
H   H295      1.0  0.35190  0.69630  0.00010  1.0000 0.1280185515
H   H296      1.0  0.95170  0.35190  0.00010  1.0000 0.1280185515
H   H297      1.0  0.89810  0.24990  0.55370  1.0000 0.1280185515
H   H298      1.0  0.00010  0.69630  0.95170  1.0000 0.1280185515
H   H299      1.0  0.89810  0.55370  0.29830  1.0000 0.1280185515
H   H300      1.0  0.29830  0.89810  0.55370  1.0000 0.1280185515
H   H301      1.0  0.89810  0.29830  0.24990  1.0000 0.1280185515
H   H302      1.0  0.24990  0.29830  0.55370  1.0000 0.1280185515
H   H303      1.0  0.55370  0.24990  0.29830  1.0000 0.1280185515
H   H304      1.0  0.55370  0.89810  0.24990  1.0000 0.1280185515
H   H305      1.0  0.29830  0.24990  0.89810  1.0000 0.1280185515
H   H306      1.0  0.24990  0.55370  0.89810  1.0000 0.1280185515
H   H307      1.0  0.69630  0.95170  0.00010  1.0000 0.1280185515
H   H308      1.0  0.95170  0.69630  0.35190  1.0000 0.1280185515
H   H309      1.0  0.00010  0.95170  0.35190  1.0000 0.1280185515
H   H310      1.0  0.69630  0.35190  0.95170  1.0000 0.1280185515
H   H311      1.0  0.69630  0.00010  0.35190  1.0000 0.1280185515
H   H312      1.0  0.35190  0.95170  0.69630  1.0000 0.1280185515
H   H313      1.0  0.19630  0.45170  0.85190  1.0000 0.1280185515
H   H314      1.0  0.74990  0.39810  0.05370  1.0000 0.1280185515
H   H315      1.0  0.45170  0.19630  0.50010  1.0000 0.1280185515
H   H316      1.0  0.39810  0.74990  0.79830  1.0000 0.1280185515
H   H317      1.0  0.79830  0.74990  0.05370  1.0000 0.1280185515
H   H318      1.0  0.50010  0.85190  0.45170  1.0000 0.1280185515
H   H319      1.0  0.39810  0.05370  0.74990  1.0000 0.1280185515
H   H320      1.0  0.79830  0.39810  0.74990  1.0000 0.1280185515
H   H321      1.0  0.85190  0.50010  0.19630  1.0000 0.1280185515
H   H322      1.0  0.74990  0.05370  0.79830  1.0000 0.1280185515
H   H323      1.0  0.85190  0.19630  0.45170  1.0000 0.1280185515
H   H324      1.0  0.45170  0.85190  0.19630  1.0000 0.1280185515
H   H325      1.0  0.85190  0.45170  0.50010  1.0000 0.1280185515
H   H326      1.0  0.50010  0.45170  0.19630  1.0000 0.1280185515
H   H327      1.0  0.19630  0.50010  0.45170  1.0000 0.1280185515
H   H328      1.0  0.19630  0.85190  0.50010  1.0000 0.1280185515
H   H329      1.0  0.45170  0.50010  0.85190  1.0000 0.1280185515
H   H330      1.0  0.50010  0.19630  0.85190  1.0000 0.1280185515
H   H331      1.0  0.05370  0.79830  0.74990  1.0000 0.1280185515
H   H332      1.0  0.79830  0.05370  0.39810  1.0000 0.1280185515
H   H333      1.0  0.74990  0.79830  0.39810  1.0000 0.1280185515
H   H334      1.0  0.05370  0.39810  0.79830  1.0000 0.1280185515
H   H335      1.0  0.05370  0.74990  0.39810  1.0000 0.1280185515
H   H336      1.0  0.39810  0.79830  0.05370  1.0000 0.1280185515
H   H337      1.0  0.68880  0.22700  0.86440  1.0000 0.1280185515
H   H338      1.0  0.03020  0.38560  0.56120  1.0000 0.1280185515
H   H339      1.0  0.22700  0.68880  0.21980  1.0000 0.1280185515
H   H340      1.0  0.38560  0.03020  0.02300  1.0000 0.1280185515
H   H341      1.0  0.02300  0.03020  0.56120  1.0000 0.1280185515
H   H342      1.0  0.21980  0.86440  0.22700  1.0000 0.1280185515
H   H343      1.0  0.38560  0.56120  0.03020  1.0000 0.1280185515
H   H344      1.0  0.02300  0.38560  0.03020  1.0000 0.1280185515
H   H345      1.0  0.86440  0.21980  0.68880  1.0000 0.1280185515
H   H346      1.0  0.03020  0.56120  0.02300  1.0000 0.1280185515
H   H347      1.0  0.86440  0.68880  0.22700  1.0000 0.1280185515
H   H348      1.0  0.22700  0.86440  0.68880  1.0000 0.1280185515
H   H349      1.0  0.86440  0.22700  0.21980  1.0000 0.1280185515
H   H350      1.0  0.21980  0.22700  0.68880  1.0000 0.1280185515
H   H351      1.0  0.68880  0.21980  0.22700  1.0000 0.1280185515
H   H352      1.0  0.68880  0.86440  0.21980  1.0000 0.1280185515
H   H353      1.0  0.22700  0.21980  0.86440  1.0000 0.1280185515
H   H354      1.0  0.21980  0.68880  0.86440  1.0000 0.1280185515
H   H355      1.0  0.56120  0.02300  0.03020  1.0000 0.1280185515
H   H356      1.0  0.02300  0.56120  0.38560  1.0000 0.1280185515
H   H357      1.0  0.03020  0.02300  0.38560  1.0000 0.1280185515
H   H358      1.0  0.56120  0.38560  0.02300  1.0000 0.1280185515
H   H359      1.0  0.56120  0.03020  0.38560  1.0000 0.1280185515
H   H360      1.0  0.38560  0.02300  0.56120  1.0000 0.1280185515
H   H361      1.0  0.06120  0.52300  0.88560  1.0000 0.1280185515
H   H362      1.0  0.71980  0.36440  0.18880  1.0000 0.1280185515
H   H363      1.0  0.52300  0.06120  0.53020  1.0000 0.1280185515
H   H364      1.0  0.36440  0.71980  0.72700  1.0000 0.1280185515
H   H365      1.0  0.72700  0.71980  0.18880  1.0000 0.1280185515
H   H366      1.0  0.53020  0.88560  0.52300  1.0000 0.1280185515
H   H367      1.0  0.36440  0.18880  0.71980  1.0000 0.1280185515
H   H368      1.0  0.72700  0.36440  0.71980  1.0000 0.1280185515
H   H369      1.0  0.88560  0.53020  0.06120  1.0000 0.1280185515
H   H370      1.0  0.71980  0.18880  0.72700  1.0000 0.1280185515
H   H371      1.0  0.88560  0.06120  0.52300  1.0000 0.1280185515
H   H372      1.0  0.52300  0.88560  0.06120  1.0000 0.1280185515
H   H373      1.0  0.88560  0.52300  0.53020  1.0000 0.1280185515
H   H374      1.0  0.53020  0.52300  0.06120  1.0000 0.1280185515
H   H375      1.0  0.06120  0.53020  0.52300  1.0000 0.1280185515
H   H376      1.0  0.06120  0.88560  0.53020  1.0000 0.1280185515
H   H377      1.0  0.52300  0.53020  0.88560  1.0000 0.1280185515
H   H378      1.0  0.53020  0.06120  0.88560  1.0000 0.1280185515
H   H379      1.0  0.18880  0.72700  0.71980  1.0000 0.1280185515
H   H380      1.0  0.72700  0.18880  0.36440  1.0000 0.1280185515
H   H381      1.0  0.71980  0.72700  0.36440  1.0000 0.1280185515
H   H382      1.0  0.18880  0.36440  0.72700  1.0000 0.1280185515
H   H383      1.0  0.18880  0.71980  0.36440  1.0000 0.1280185515
H   H384      1.0  0.36440  0.72700  0.18880  1.0000 0.1280185515
C   C1        1.0  0.51936  0.24478  0.72296  1.0000 -0.0200024974
C   C2        1.0  0.73710  0.52704  0.73064  1.0000 -0.0200024974
C   C3        1.0  0.24478  0.51936  0.51290  1.0000 -0.0200024974
C   C4        1.0  0.52704  0.73710  0.00522  1.0000 -0.0200024974
C   C5        1.0  0.00522  0.73710  0.73064  1.0000 -0.0200024974
C   C6        1.0  0.51290  0.72296  0.24478  1.0000 -0.0301521681
C   C7        1.0  0.52704  0.73064  0.73710  1.0000 -0.0200024974
C   C8        1.0  0.00522  0.52704  0.73710  1.0000 -0.0301521681
C   C9        1.0  0.72296  0.51290  0.51936  1.0000 -0.0200024974
C   C10       1.0  0.73710  0.73064  0.00522  1.0000 -0.0200024974
C   C11       1.0  0.72296  0.51936  0.24478  1.0000 -0.0200024974
C   C12       1.0  0.24478  0.72296  0.51936  1.0000 -0.0200024974
C   C13       1.0  0.72296  0.24478  0.51290  1.0000 -0.0200024974
C   C14       1.0  0.51290  0.24478  0.51936  1.0000 -0.0301521681
C   C15       1.0  0.51936  0.51290  0.24478  1.0000 -0.0301521681
C   C16       1.0  0.51936  0.72296  0.51290  1.0000 -0.0200024974
C   C17       1.0  0.24478  0.51290  0.72296  1.0000 -0.0200024974
C   C18       1.0  0.51290  0.51936  0.72296  1.0000 -0.0200024974
C   C19       1.0  0.73064  0.00522  0.73710  1.0000 -0.0200024974
C   C20       1.0  0.00522  0.73064  0.52704  1.0000 -0.0200024974
C   C21       1.0  0.73710  0.00522  0.52704  1.0000 -0.0301521681
C   C22       1.0  0.73064  0.52704  0.00522  1.0000 -0.0200024974
C   C23       1.0  0.73064  0.73710  0.52704  1.0000 -0.0200024974
C   C24       1.0  0.52704  0.00522  0.73064  1.0000 -0.0200024974
C   C25       1.0  0.23064  0.50522  0.02704  1.0000 -0.0200024974
C   C26       1.0  0.01290  0.22296  0.01936  1.0000 -0.0200024974
C   C27       1.0  0.50522  0.23064  0.23710  1.0000 -0.0200024974
C   C28       1.0  0.22296  0.01290  0.74478  1.0000 -0.0200024974
C   C29       1.0  0.74478  0.01290  0.01936  1.0000 -0.0200024974
C   C30       1.0  0.23710  0.02704  0.50522  1.0000 -0.0200024974
C   C31       1.0  0.22296  0.01936  0.01290  1.0000 -0.0200024974
C   C32       1.0  0.74478  0.22296  0.01290  1.0000 -0.0200024974
C   C33       1.0  0.02704  0.23710  0.23064  1.0000 -0.0301521681
C   C34       1.0  0.01290  0.01936  0.74478  1.0000 -0.0200024974
C   C35       1.0  0.02704  0.23064  0.50522  1.0000 -0.0200024974
C   C36       1.0  0.50522  0.02704  0.23064  1.0000 -0.0301521681
C   C37       1.0  0.02704  0.50522  0.23710  1.0000 -0.0301521681
C   C38       1.0  0.23710  0.50522  0.23064  1.0000 -0.0200024974
C   C39       1.0  0.23064  0.23710  0.50522  1.0000 -0.0200024974
C   C40       1.0  0.23064  0.02704  0.23710  1.0000 -0.0200024974
C   C41       1.0  0.50522  0.23710  0.02704  1.0000 -0.0200024974
C   C42       1.0  0.23710  0.23064  0.02704  1.0000 -0.0301521681
C   C43       1.0  0.01936  0.74478  0.01290  1.0000 -0.0200024974
C   C44       1.0  0.74478  0.01936  0.22296  1.0000 -0.0200024974
C   C45       1.0  0.01290  0.74478  0.22296  1.0000 -0.0200024974
C   C46       1.0  0.01936  0.22296  0.74478  1.0000 -0.0200024974
C   C47       1.0  0.01936  0.01290  0.22296  1.0000 -0.0200024974
C   C48       1.0  0.22296  0.74478  0.01936  1.0000 -0.0200024974
C   C49       1.0  0.52056  0.31470  0.68192  1.0000 -0.0301521681
C   C50       1.0  0.76718  0.56808  0.72944  1.0000 -0.038927271
C   C51       1.0  0.31470  0.52056  0.48282  1.0000 -0.0301521681
C   C52       1.0  0.56808  0.76718  0.93530  1.0000 -0.0301521681
C   C53       1.0  0.93530  0.76718  0.72944  1.0000 -0.0301521681
C   C54       1.0  0.48282  0.68192  0.31470  1.0000 -0.0301521681
C   C55       1.0  0.56808  0.72944  0.76718  1.0000 -0.0301521681
C   C56       1.0  0.93530  0.56808  0.76718  1.0000 -0.0301521681
C   C57       1.0  0.68192  0.48282  0.52056  1.0000 -0.0301521681
C   C58       1.0  0.76718  0.72944  0.93530  1.0000 -0.0301521681
C   C59       1.0  0.68192  0.52056  0.31470  1.0000 -0.0301521681
C   C60       1.0  0.31470  0.68192  0.52056  1.0000 -0.0301521681
C   C61       1.0  0.68192  0.31470  0.48282  1.0000 -0.0301521681
C   C62       1.0  0.48282  0.31470  0.52056  1.0000 -0.0301521681
C   C63       1.0  0.52056  0.48282  0.31470  1.0000 -0.0301521681
C   C64       1.0  0.52056  0.68192  0.48282  1.0000 -0.0301521681
C   C65       1.0  0.31470  0.48282  0.68192  1.0000 -0.038927271
C   C66       1.0  0.48282  0.52056  0.68192  1.0000 -0.0301521681
C   C67       1.0  0.72944  0.93530  0.76718  1.0000 -0.0301521681
C   C68       1.0  0.93530  0.72944  0.56808  1.0000 -0.0301521681
C   C69       1.0  0.76718  0.93530  0.56808  1.0000 -0.0301521681
C   C70       1.0  0.72944  0.56808  0.93530  1.0000 -0.038927271
C   C71       1.0  0.72944  0.76718  0.56808  1.0000 -0.0301521681
C   C72       1.0  0.56808  0.93530  0.72944  1.0000 -0.038927271
C   C73       1.0  0.22944  0.43530  0.06808  1.0000 -0.0301521681
C   C74       1.0  0.98282  0.18192  0.02056  1.0000 -0.0301521681
C   C75       1.0  0.43530  0.22944  0.26718  1.0000 -0.0301521681
C   C76       1.0  0.18192  0.98282  0.81470  1.0000 -0.0301521681
C   C77       1.0  0.81470  0.98282  0.02056  1.0000 -0.0301521681
C   C78       1.0  0.26718  0.06808  0.43530  1.0000 -0.038927271
C   C79       1.0  0.18192  0.02056  0.98282  1.0000 -0.038927271
C   C80       1.0  0.81470  0.18192  0.98282  1.0000 -0.0301521681
C   C81       1.0  0.06808  0.26718  0.22944  1.0000 -0.0301521681
C   C82       1.0  0.98282  0.02056  0.81470  1.0000 -0.038927271
C   C83       1.0  0.06808  0.22944  0.43530  1.0000 -0.0301521681
C   C84       1.0  0.43530  0.06808  0.22944  1.0000 -0.038927271
C   C85       1.0  0.06808  0.43530  0.26718  1.0000 -0.0301521681
C   C86       1.0  0.26718  0.43530  0.22944  1.0000 -0.038927271
C   C87       1.0  0.22944  0.26718  0.43530  1.0000 -0.038927271
C   C88       1.0  0.22944  0.06808  0.26718  1.0000 -0.0301521681
C   C89       1.0  0.43530  0.26718  0.06808  1.0000 -0.0301521681
C   C90       1.0  0.26718  0.22944  0.06808  1.0000 -0.0301521681
C   C91       1.0  0.02056  0.81470  0.98282  1.0000 -0.0301521681
C   C92       1.0  0.81470  0.02056  0.18192  1.0000 -0.0301521681
C   C93       1.0  0.98282  0.81470  0.18192  1.0000 -0.038927271
C   C94       1.0  0.02056  0.18192  0.81470  1.0000 -0.0301521681
C   C95       1.0  0.02056  0.98282  0.18192  1.0000 -0.0301521681
C   C96       1.0  0.18192  0.81470  0.02056  1.0000 -0.038927271
C   C97       1.0  0.61227  0.22345  0.83231  1.0000 -0.0301521681
C   C98       1.0  0.91803  0.41769  0.63773  1.0000 -0.0200024974
C   C99       1.0  0.22345  0.61227  0.33197  1.0000 -0.0200024974
C   C100      1.0  0.41769  0.91803  0.02655  1.0000 -0.0301521681
C   C101      1.0  0.02655  0.91803  0.63773  1.0000 -0.0200024974
C   C102      1.0  0.33197  0.83231  0.22345  1.0000 -0.0301521681
C   C103      1.0  0.41769  0.63773  0.91803  1.0000 -0.0200024974
C   C104      1.0  0.02655  0.41769  0.91803  1.0000 -0.0301521681
C   C105      1.0  0.83231  0.33197  0.61227  1.0000 -0.0301521681
C   C106      1.0  0.91803  0.63773  0.02655  1.0000 -0.0301521681
C   C107      1.0  0.83231  0.61227  0.22345  1.0000 -0.0301521681
C   C108      1.0  0.22345  0.83231  0.61227  1.0000 -0.0200024974
C   C109      1.0  0.83231  0.22345  0.33197  1.0000 -0.0301521681
C   C110      1.0  0.33197  0.22345  0.61227  1.0000 -0.0301521681
C   C111      1.0  0.61227  0.33197  0.22345  1.0000 -0.0301521681
C   C112      1.0  0.61227  0.83231  0.33197  1.0000 -0.0200024974
C   C113      1.0  0.22345  0.33197  0.83231  1.0000 -0.0200024974
C   C114      1.0  0.33197  0.61227  0.83231  1.0000 -0.0200024974
C   C115      1.0  0.63773  0.02655  0.91803  1.0000 -0.0301521681
C   C116      1.0  0.02655  0.63773  0.41769  1.0000 -0.0200024974
C   C117      1.0  0.91803  0.02655  0.41769  1.0000 -0.0301521681
C   C118      1.0  0.63773  0.41769  0.02655  1.0000 -0.0301521681
C   C119      1.0  0.63773  0.91803  0.41769  1.0000 -0.0200024974
C   C120      1.0  0.41769  0.02655  0.63773  1.0000 -0.0301521681
C   C121      1.0  0.13773  0.52655  0.91769  1.0000 -0.0301521681
C   C122      1.0  0.83197  0.33231  0.11227  1.0000 -0.0301521681
C   C123      1.0  0.52655  0.13773  0.41803  1.0000 -0.0200024974
C   C124      1.0  0.33231  0.83197  0.72345  1.0000 -0.0301521681
C   C125      1.0  0.72345  0.83197  0.11227  1.0000 -0.0301521681
C   C126      1.0  0.41803  0.91769  0.52655  1.0000 -0.0301521681
C   C127      1.0  0.33231  0.11227  0.83197  1.0000 -0.0200024974
C   C128      1.0  0.72345  0.33231  0.83197  1.0000 -0.0200024974
C   C129      1.0  0.91769  0.41803  0.13773  1.0000 -0.0301521681
C   C130      1.0  0.83197  0.11227  0.72345  1.0000 -0.0301521681
C   C131      1.0  0.91769  0.13773  0.52655  1.0000 -0.0301521681
C   C132      1.0  0.52655  0.91769  0.13773  1.0000 -0.0301521681
C   C133      1.0  0.91769  0.52655  0.41803  1.0000 -0.0200024974
C   C134      1.0  0.41803  0.52655  0.13773  1.0000 -0.0301521681
C   C135      1.0  0.13773  0.41803  0.52655  1.0000 -0.0200024974
C   C136      1.0  0.13773  0.91769  0.41803  1.0000 -0.0301521681
C   C137      1.0  0.52655  0.41803  0.91769  1.0000 -0.0301521681
C   C138      1.0  0.41803  0.13773  0.91769  1.0000 -0.0301521681
C   C139      1.0  0.11227  0.72345  0.83197  1.0000 -0.0200024974
C   C140      1.0  0.72345  0.11227  0.33231  1.0000 -0.0301521681
C   C141      1.0  0.83197  0.72345  0.33231  1.0000 -0.0200024974
C   C142      1.0  0.11227  0.33231  0.72345  1.0000 -0.0301521681
C   C143      1.0  0.11227  0.83197  0.33231  1.0000 -0.0301521681
C   C144      1.0  0.33231  0.72345  0.11227  1.0000 -0.0301521681
C   C145      1.0  0.62038  0.29016  0.78972  1.0000 -0.0200024974
C   C146      1.0  0.95026  0.46028  0.62962  1.0000 -0.0200024974
C   C147      1.0  0.29016  0.62038  0.29974  1.0000 -0.0200024974
C   C148      1.0  0.46028  0.95026  0.95984  1.0000 -0.0200024974
C   C149      1.0  0.95984  0.95026  0.62962  1.0000 -0.0200024974
C   C150      1.0  0.29974  0.78972  0.29016  1.0000 -0.0200024974
C   C151      1.0  0.46028  0.62962  0.95026  1.0000 -0.0200024974
C   C152      1.0  0.95984  0.46028  0.95026  1.0000 -0.0200024974
C   C153      1.0  0.78972  0.29974  0.62038  1.0000 -0.0200024974
C   C154      1.0  0.95026  0.62962  0.95984  1.0000 -0.0200024974
C   C155      1.0  0.78972  0.62038  0.29016  1.0000 -0.0200024974
C   C156      1.0  0.29016  0.78972  0.62038  1.0000 -0.0200024974
C   C157      1.0  0.78972  0.29016  0.29974  1.0000 -0.0200024974
C   C158      1.0  0.29974  0.29016  0.62038  1.0000 -0.0200024974
C   C159      1.0  0.62038  0.29974  0.29016  1.0000 -0.0200024974
C   C160      1.0  0.62038  0.78972  0.29974  1.0000 -0.0200024974
C   C161      1.0  0.29016  0.29974  0.78972  1.0000 -0.0200024974
C   C162      1.0  0.29974  0.62038  0.78972  1.0000 -0.0200024974
C   C163      1.0  0.62962  0.95984  0.95026  1.0000 -0.0200024974
C   C164      1.0  0.95984  0.62962  0.46028  1.0000 -0.0200024974
C   C165      1.0  0.95026  0.95984  0.46028  1.0000 -0.0200024974
C   C166      1.0  0.62962  0.46028  0.95984  1.0000 -0.0200024974
C   C167      1.0  0.62962  0.95026  0.46028  1.0000 -0.0200024974
C   C168      1.0  0.46028  0.95984  0.62962  1.0000 -0.0200024974
C   C169      1.0  0.12962  0.45984  0.96028  1.0000 -0.0200024974
C   C170      1.0  0.79974  0.28972  0.12038  1.0000 -0.0200024974
C   C171      1.0  0.45984  0.12962  0.45026  1.0000 -0.0200024974
C   C172      1.0  0.28972  0.79974  0.79016  1.0000 -0.0200024974
C   C173      1.0  0.79016  0.79974  0.12038  1.0000 -0.0200024974
C   C174      1.0  0.45026  0.96028  0.45984  1.0000 -0.0200024974
C   C175      1.0  0.28972  0.12038  0.79974  1.0000 -0.0200024974
C   C176      1.0  0.79016  0.28972  0.79974  1.0000 -0.0200024974
C   C177      1.0  0.96028  0.45026  0.12962  1.0000 -0.0200024974
C   C178      1.0  0.79974  0.12038  0.79016  1.0000 -0.0200024974
C   C179      1.0  0.96028  0.12962  0.45984  1.0000 -0.0200024974
C   C180      1.0  0.45984  0.96028  0.12962  1.0000 -0.0200024974
C   C181      1.0  0.96028  0.45984  0.45026  1.0000 -0.0200024974
C   C182      1.0  0.45026  0.45984  0.12962  1.0000 -0.0200024974
C   C183      1.0  0.12962  0.45026  0.45984  1.0000 -0.0200024974
C   C184      1.0  0.12962  0.96028  0.45026  1.0000 -0.0200024974
C   C185      1.0  0.45984  0.45026  0.96028  1.0000 -0.0200024974
C   C186      1.0  0.45026  0.12962  0.96028  1.0000 -0.0200024974
C   C187      1.0  0.12038  0.79016  0.79974  1.0000 -0.0200024974
C   C188      1.0  0.79016  0.12038  0.28972  1.0000 -0.0200024974
C   C189      1.0  0.79974  0.79016  0.28972  1.0000 -0.0200024974
C   C190      1.0  0.12038  0.28972  0.79016  1.0000 -0.0200024974
C   C191      1.0  0.12038  0.79974  0.28972  1.0000 -0.0200024974
C   C192      1.0  0.28972  0.79016  0.12038  1.0000 -0.0200024974
C   C193      1.0  0.41377  0.32443  0.70949  1.0000 -0.0301521681
C   C194      1.0  0.69769  0.54051  0.83623  1.0000 -0.0301521681
C   C195      1.0  0.32443  0.41377  0.55231  1.0000 -0.0301521681
C   C196      1.0  0.54051  0.69769  0.92557  1.0000 -0.038927271
C   C197      1.0  0.92557  0.69769  0.83623  1.0000 -0.0301521681
C   C198      1.0  0.55231  0.70949  0.32443  1.0000 -0.0301521681
C   C199      1.0  0.54051  0.83623  0.69769  1.0000 -0.0301521681
C   C200      1.0  0.92557  0.54051  0.69769  1.0000 -0.0301521681
C   C201      1.0  0.70949  0.55231  0.41377  1.0000 -0.0301521681
C   C202      1.0  0.69769  0.83623  0.92557  1.0000 -0.0301521681
C   C203      1.0  0.70949  0.41377  0.32443  1.0000 -0.0301521681
C   C204      1.0  0.32443  0.70949  0.41377  1.0000 -0.0301521681
C   C205      1.0  0.70949  0.32443  0.55231  1.0000 -0.0301521681
C   C206      1.0  0.55231  0.32443  0.41377  1.0000 -0.0301521681
C   C207      1.0  0.41377  0.55231  0.32443  1.0000 -0.0301521681
C   C208      1.0  0.41377  0.70949  0.55231  1.0000 -0.0301521681
C   C209      1.0  0.32443  0.55231  0.70949  1.0000 -0.0301521681
C   C210      1.0  0.55231  0.41377  0.70949  1.0000 -0.0301521681
C   C211      1.0  0.83623  0.92557  0.69769  1.0000 -0.0301521681
C   C212      1.0  0.92557  0.83623  0.54051  1.0000 -0.0301521681
C   C213      1.0  0.69769  0.92557  0.54051  1.0000 -0.0301521681
C   C214      1.0  0.83623  0.54051  0.92557  1.0000 -0.0301521681
C   C215      1.0  0.83623  0.69769  0.54051  1.0000 -0.0301521681
C   C216      1.0  0.54051  0.92557  0.83623  1.0000 -0.0301521681
C   C217      1.0  0.33623  0.42557  0.04051  1.0000 -0.038927271
C   C218      1.0  0.05231  0.20949  0.91377  1.0000 -0.0301521681
C   C219      1.0  0.42557  0.33623  0.19769  1.0000 -0.0301521681
C   C220      1.0  0.20949  0.05231  0.82443  1.0000 -0.0301521681
C   C221      1.0  0.82443  0.05231  0.91377  1.0000 -0.0301521681
C   C222      1.0  0.19769  0.04051  0.42557  1.0000 -0.0301521681
C   C223      1.0  0.20949  0.91377  0.05231  1.0000 -0.0301521681
C   C224      1.0  0.82443  0.20949  0.05231  1.0000 -0.0301521681
C   C225      1.0  0.04051  0.19769  0.33623  1.0000 -0.0301521681
C   C226      1.0  0.05231  0.91377  0.82443  1.0000 -0.0301521681
C   C227      1.0  0.04051  0.33623  0.42557  1.0000 -0.0301521681
C   C228      1.0  0.42557  0.04051  0.33623  1.0000 -0.0301521681
C   C229      1.0  0.04051  0.42557  0.19769  1.0000 -0.0301521681
C   C230      1.0  0.19769  0.42557  0.33623  1.0000 -0.0301521681
C   C231      1.0  0.33623  0.19769  0.42557  1.0000 -0.0301521681
C   C232      1.0  0.33623  0.04051  0.19769  1.0000 -0.0301521681
C   C233      1.0  0.42557  0.19769  0.04051  1.0000 -0.0301521681
C   C234      1.0  0.19769  0.33623  0.04051  1.0000 -0.0301521681
C   C235      1.0  0.91377  0.82443  0.05231  1.0000 -0.0301521681
C   C236      1.0  0.82443  0.91377  0.20949  1.0000 -0.0301521681
C   C237      1.0  0.05231  0.82443  0.20949  1.0000 -0.0301521681
C   C238      1.0  0.91377  0.20949  0.82443  1.0000 -0.0301521681
C   C239      1.0  0.91377  0.05231  0.20949  1.0000 -0.0301521681
C   C240      1.0  0.20949  0.82443  0.91377  1.0000 -0.0301521681
C   C241      1.0  0.45300  0.28692  0.66294  1.0000 -0.0200024974
C   C242      1.0  0.65286  0.58706  0.79700  1.0000 -0.0128439234
C   C243      1.0  0.28692  0.45300  0.59714  1.0000 -0.0200024974
C   C244      1.0  0.58706  0.65286  0.96308  1.0000 -0.0128439234
C   C245      1.0  0.96308  0.65286  0.79700  1.0000 -0.0200024974
C   C246      1.0  0.59714  0.66294  0.28692  1.0000 -0.0200024974
C   C247      1.0  0.58706  0.79700  0.65286  1.0000 -0.0128439234
C   C248      1.0  0.96308  0.58706  0.65286  1.0000 -0.0128439234
C   C249      1.0  0.66294  0.59714  0.45300  1.0000 -0.0200024974
C   C250      1.0  0.65286  0.79700  0.96308  1.0000 -0.0128439234
C   C251      1.0  0.66294  0.45300  0.28692  1.0000 -0.0128439234
C   C252      1.0  0.28692  0.66294  0.45300  1.0000 -0.0200024974
C   C253      1.0  0.66294  0.28692  0.59714  1.0000 -0.0200024974
C   C254      1.0  0.59714  0.28692  0.45300  1.0000 -0.0128439234
C   C255      1.0  0.45300  0.59714  0.28692  1.0000 -0.0200024974
C   C256      1.0  0.45300  0.66294  0.59714  1.0000 -0.0200024974
C   C257      1.0  0.28692  0.59714  0.66294  1.0000 -0.0200024974
C   C258      1.0  0.59714  0.45300  0.66294  1.0000 -0.0128439234
C   C259      1.0  0.79700  0.96308  0.65286  1.0000 -0.0128439234
C   C260      1.0  0.96308  0.79700  0.58706  1.0000 -0.0128439234
C   C261      1.0  0.65286  0.96308  0.58706  1.0000 -0.0200024974
C   C262      1.0  0.79700  0.58706  0.96308  1.0000 -0.0128439234
C   C263      1.0  0.79700  0.65286  0.58706  1.0000 -0.0128439234
C   C264      1.0  0.58706  0.96308  0.79700  1.0000 -0.0200024974
C   C265      1.0  0.29700  0.46308  0.08706  1.0000 -0.0128439234
C   C266      1.0  0.09714  0.16294  0.95300  1.0000 -0.0200024974
C   C267      1.0  0.46308  0.29700  0.15286  1.0000 -0.0128439234
C   C268      1.0  0.16294  0.09714  0.78692  1.0000 -0.0128439234
C   C269      1.0  0.78692  0.09714  0.95300  1.0000 -0.0200024974
C   C270      1.0  0.15286  0.08706  0.46308  1.0000 -0.0200024974
C   C271      1.0  0.16294  0.95300  0.09714  1.0000 -0.0200024974
C   C272      1.0  0.78692  0.16294  0.09714  1.0000 -0.0128439234
C   C273      1.0  0.08706  0.15286  0.29700  1.0000 -0.0128439234
C   C274      1.0  0.09714  0.95300  0.78692  1.0000 -0.0128439234
C   C275      1.0  0.08706  0.29700  0.46308  1.0000 -0.0128439234
C   C276      1.0  0.46308  0.08706  0.29700  1.0000 -0.0200024974
C   C277      1.0  0.08706  0.46308  0.15286  1.0000 -0.0200024974
C   C278      1.0  0.15286  0.46308  0.29700  1.0000 -0.0200024974
C   C279      1.0  0.29700  0.15286  0.46308  1.0000 -0.0128439234
C   C280      1.0  0.29700  0.08706  0.15286  1.0000 -0.0200024974
C   C281      1.0  0.46308  0.15286  0.08706  1.0000 -0.0200024974
C   C282      1.0  0.15286  0.29700  0.08706  1.0000 -0.0200024974
C   C283      1.0  0.95300  0.78692  0.09714  1.0000 -0.0200024974
C   C284      1.0  0.78692  0.95300  0.16294  1.0000 -0.0128439234
C   C285      1.0  0.09714  0.78692  0.16294  1.0000 -0.0200024974
C   C286      1.0  0.95300  0.16294  0.78692  1.0000 -0.0128439234
C   C287      1.0  0.95300  0.09714  0.16294  1.0000 -0.0128439234
C   C288      1.0  0.16294  0.78692  0.95300  1.0000 -0.0200024974
C   C289      1.0  0.58468  0.28264  0.89838  1.0000 -0.0301521681
C   C290      1.0  0.01570  0.35162  0.66532  1.0000 -0.0301521681
C   C291      1.0  0.28264  0.58468  0.23430  1.0000 -0.0301521681
C   C292      1.0  0.35162  0.01570  0.96736  1.0000 -0.0301521681
C   C293      1.0  0.96736  0.01570  0.66532  1.0000 -0.0301521681
C   C294      1.0  0.23430  0.89838  0.28264  1.0000 -0.0301521681
C   C295      1.0  0.35162  0.66532  0.01570  1.0000 -0.0301521681
C   C296      1.0  0.96736  0.35162  0.01570  1.0000 -0.0301521681
C   C297      1.0  0.89838  0.23430  0.58468  1.0000 -0.0301521681
C   C298      1.0  0.01570  0.66532  0.96736  1.0000 -0.0301521681
C   C299      1.0  0.89838  0.58468  0.28264  1.0000 -0.0301521681
C   C300      1.0  0.28264  0.89838  0.58468  1.0000 -0.0301521681
C   C301      1.0  0.89838  0.28264  0.23430  1.0000 -0.0301521681
C   C302      1.0  0.23430  0.28264  0.58468  1.0000 -0.0301521681
C   C303      1.0  0.58468  0.23430  0.28264  1.0000 -0.0301521681
C   C304      1.0  0.58468  0.89838  0.23430  1.0000 -0.0301521681
C   C305      1.0  0.28264  0.23430  0.89838  1.0000 -0.038927271
C   C306      1.0  0.23430  0.58468  0.89838  1.0000 -0.038927271
C   C307      1.0  0.66532  0.96736  0.01570  1.0000 -0.038927271
C   C308      1.0  0.96736  0.66532  0.35162  1.0000 -0.0301521681
C   C309      1.0  0.01570  0.96736  0.35162  1.0000 -0.0301521681
C   C310      1.0  0.66532  0.35162  0.96736  1.0000 -0.0301521681
C   C311      1.0  0.66532  0.01570  0.35162  1.0000 -0.038927271
C   C312      1.0  0.35162  0.96736  0.66532  1.0000 -0.0301521681
C   C313      1.0  0.16532  0.46736  0.85162  1.0000 -0.0301521681
C   C314      1.0  0.73430  0.39838  0.08468  1.0000 -0.0301521681
C   C315      1.0  0.46736  0.16532  0.51570  1.0000 -0.0301521681
C   C316      1.0  0.39838  0.73430  0.78264  1.0000 -0.038927271
C   C317      1.0  0.78264  0.73430  0.08468  1.0000 -0.0301521681
C   C318      1.0  0.51570  0.85162  0.46736  1.0000 -0.0301521681
C   C319      1.0  0.39838  0.08468  0.73430  1.0000 -0.0301521681
C   C320      1.0  0.78264  0.39838  0.73430  1.0000 -0.0301521681
C   C321      1.0  0.85162  0.51570  0.16532  1.0000 -0.038927271
C   C322      1.0  0.73430  0.08468  0.78264  1.0000 -0.0301521681
C   C323      1.0  0.85162  0.16532  0.46736  1.0000 -0.0301521681
C   C324      1.0  0.46736  0.85162  0.16532  1.0000 -0.038927271
C   C325      1.0  0.85162  0.46736  0.51570  1.0000 -0.038927271
C   C326      1.0  0.51570  0.46736  0.16532  1.0000 -0.0301521681
C   C327      1.0  0.16532  0.51570  0.46736  1.0000 -0.0301521681
C   C328      1.0  0.16532  0.85162  0.51570  1.0000 -0.038927271
C   C329      1.0  0.46736  0.51570  0.85162  1.0000 -0.0301521681
C   C330      1.0  0.51570  0.16532  0.85162  1.0000 -0.0301521681
C   C331      1.0  0.08468  0.78264  0.73430  1.0000 -0.038927271
C   C332      1.0  0.78264  0.08468  0.39838  1.0000 -0.0301521681
C   C333      1.0  0.73430  0.78264  0.39838  1.0000 -0.0301521681
C   C334      1.0  0.08468  0.39838  0.78264  1.0000 -0.0301521681
C   C335      1.0  0.08468  0.73430  0.39838  1.0000 -0.0301521681
C   C336      1.0  0.39838  0.78264  0.08468  1.0000 -0.0301521681
C   C337      1.0  0.65854  0.24384  0.88000  1.0000 -0.038927271
C   C338      1.0  0.03238  0.37000  0.59146  1.0000 -0.038927271
C   C339      1.0  0.24384  0.65854  0.21762  1.0000 -0.0460574546
C   C340      1.0  0.37000  0.03238  0.00616  1.0000 -0.0460574546
C   C341      1.0  0.00616  0.03238  0.59146  1.0000 -0.0460574546
C   C342      1.0  0.21762  0.88000  0.24384  1.0000 -0.038927271
C   C343      1.0  0.37000  0.59146  0.03238  1.0000 -0.0460574546
C   C344      1.0  0.00616  0.37000  0.03238  1.0000 -0.038927271
C   C345      1.0  0.88000  0.21762  0.65854  1.0000 -0.0460574546
C   C346      1.0  0.03238  0.59146  0.00616  1.0000 -0.0460574546
C   C347      1.0  0.88000  0.65854  0.24384  1.0000 -0.0460574546
C   C348      1.0  0.24384  0.88000  0.65854  1.0000 -0.038927271
C   C349      1.0  0.88000  0.24384  0.21762  1.0000 -0.0460574546
C   C350      1.0  0.21762  0.24384  0.65854  1.0000 -0.0460574546
C   C351      1.0  0.65854  0.21762  0.24384  1.0000 -0.0460574546
C   C352      1.0  0.65854  0.88000  0.21762  1.0000 -0.0460574546
C   C353      1.0  0.24384  0.21762  0.88000  1.0000 -0.0460574546
C   C354      1.0  0.21762  0.65854  0.88000  1.0000 -0.0460574546
C   C355      1.0  0.59146  0.00616  0.03238  1.0000 -0.0460574546
C   C356      1.0  0.00616  0.59146  0.37000  1.0000 -0.0460574546
C   C357      1.0  0.03238  0.00616  0.37000  1.0000 -0.038927271
C   C358      1.0  0.59146  0.37000  0.00616  1.0000 -0.0460574546
C   C359      1.0  0.59146  0.03238  0.37000  1.0000 -0.0460574546
C   C360      1.0  0.37000  0.00616  0.59146  1.0000 -0.038927271
C   C361      1.0  0.09146  0.50616  0.87000  1.0000 -0.038927271
C   C362      1.0  0.71762  0.38000  0.15854  1.0000 -0.0460574546
C   C363      1.0  0.50616  0.09146  0.53238  1.0000 -0.0460574546
C   C364      1.0  0.38000  0.71762  0.74384  1.0000 -0.0460574546
C   C365      1.0  0.74384  0.71762  0.15854  1.0000 -0.0460574546
C   C366      1.0  0.53238  0.87000  0.50616  1.0000 -0.0460574546
C   C367      1.0  0.38000  0.15854  0.71762  1.0000 -0.038927271
C   C368      1.0  0.74384  0.38000  0.71762  1.0000 -0.038927271
C   C369      1.0  0.87000  0.53238  0.09146  1.0000 -0.0460574546
C   C370      1.0  0.71762  0.15854  0.74384  1.0000 -0.038927271
C   C371      1.0  0.87000  0.09146  0.50616  1.0000 -0.0460574546
C   C372      1.0  0.50616  0.87000  0.09146  1.0000 -0.0460574546
C   C373      1.0  0.87000  0.50616  0.53238  1.0000 -0.0460574546
C   C374      1.0  0.53238  0.50616  0.09146  1.0000 -0.0460574546
C   C375      1.0  0.09146  0.53238  0.50616  1.0000 -0.0460574546
C   C376      1.0  0.09146  0.87000  0.53238  1.0000 -0.0460574546
C   C377      1.0  0.50616  0.53238  0.87000  1.0000 -0.0460574546
C   C378      1.0  0.53238  0.09146  0.87000  1.0000 -0.038927271
C   C379      1.0  0.15854  0.74384  0.71762  1.0000 -0.0460574546
C   C380      1.0  0.74384  0.15854  0.38000  1.0000 -0.038927271
C   C381      1.0  0.71762  0.74384  0.38000  1.0000 -0.0460574546
C   C382      1.0  0.15854  0.38000  0.74384  1.0000 -0.0460574546
C   C383      1.0  0.15854  0.71762  0.38000  1.0000 -0.0460574546
C   C384      1.0  0.38000  0.74384  0.15854  1.0000 -0.0460574546
N   N1        1.0  0.61675  0.27571  0.76519  1.0000 -0.1824054098
N   N2        1.0  0.90765  0.48481  0.63325  1.0000 -0.1824054098
N   N3        1.0  0.27571  0.61675  0.34235  1.0000 -0.1824054098
N   N4        1.0  0.48481  0.90765  0.97429  1.0000 -0.1824054098
N   N5        1.0  0.97429  0.90765  0.63325  1.0000 -0.1824054098
N   N6        1.0  0.34235  0.76519  0.27571  1.0000 -0.1824054098
N   N7        1.0  0.48481  0.63325  0.90765  1.0000 -0.1824054098
N   N8        1.0  0.97429  0.48481  0.90765  1.0000 -0.1824054098
N   N9        1.0  0.76519  0.34235  0.61675  1.0000 -0.1824054098
N   N10       1.0  0.90765  0.63325  0.97429  1.0000 -0.1824054098
N   N11       1.0  0.76519  0.61675  0.27571  1.0000 -0.1824054098
N   N12       1.0  0.27571  0.76519  0.61675  1.0000 -0.1824054098
N   N13       1.0  0.76519  0.27571  0.34235  1.0000 -0.1824054098
N   N14       1.0  0.34235  0.27571  0.61675  1.0000 -0.1824054098
N   N15       1.0  0.61675  0.34235  0.27571  1.0000 -0.1824054098
N   N16       1.0  0.61675  0.76519  0.34235  1.0000 -0.1824054098
N   N17       1.0  0.27571  0.34235  0.76519  1.0000 -0.1824054098
N   N18       1.0  0.34235  0.61675  0.76519  1.0000 -0.1824054098
N   N19       1.0  0.63325  0.97429  0.90765  1.0000 -0.1824054098
N   N20       1.0  0.97429  0.63325  0.48481  1.0000 -0.1824054098
N   N21       1.0  0.90765  0.97429  0.48481  1.0000 -0.1824054098
N   N22       1.0  0.63325  0.48481  0.97429  1.0000 -0.1824054098
N   N23       1.0  0.63325  0.90765  0.48481  1.0000 -0.1824054098
N   N24       1.0  0.48481  0.97429  0.63325  1.0000 -0.1824054098
N   N25       1.0  0.13325  0.47429  0.98481  1.0000 -0.1824054098
N   N26       1.0  0.84235  0.26519  0.11675  1.0000 -0.1824054098
N   N27       1.0  0.47429  0.13325  0.40765  1.0000 -0.1824054098
N   N28       1.0  0.26519  0.84235  0.77571  1.0000 -0.1824054098
N   N29       1.0  0.77571  0.84235  0.11675  1.0000 -0.1824054098
N   N30       1.0  0.40765  0.98481  0.47429  1.0000 -0.1824054098
N   N31       1.0  0.26519  0.11675  0.84235  1.0000 -0.1824054098
N   N32       1.0  0.77571  0.26519  0.84235  1.0000 -0.1824054098
N   N33       1.0  0.98481  0.40765  0.13325  1.0000 -0.1824054098
N   N34       1.0  0.84235  0.11675  0.77571  1.0000 -0.1824054098
N   N35       1.0  0.98481  0.13325  0.47429  1.0000 -0.1824054098
N   N36       1.0  0.47429  0.98481  0.13325  1.0000 -0.1824054098
N   N37       1.0  0.98481  0.47429  0.40765  1.0000 -0.1824054098
N   N38       1.0  0.40765  0.47429  0.13325  1.0000 -0.1824054098
N   N39       1.0  0.13325  0.40765  0.47429  1.0000 -0.1824054098
N   N40       1.0  0.13325  0.98481  0.40765  1.0000 -0.1824054098
N   N41       1.0  0.47429  0.40765  0.98481  1.0000 -0.1824054098
N   N42       1.0  0.40765  0.13325  0.98481  1.0000 -0.1824054098
N   N43       1.0  0.11675  0.77571  0.84235  1.0000 -0.1824054098
N   N44       1.0  0.77571  0.11675  0.26519  1.0000 -0.1824054098
N   N45       1.0  0.84235  0.77571  0.26519  1.0000 -0.1824054098
N   N46       1.0  0.11675  0.26519  0.77571  1.0000 -0.1824054098
N   N47       1.0  0.11675  0.84235  0.26519  1.0000 -0.1824054098
N   N48       1.0  0.26519  0.77571  0.11675  1.0000 -0.1824054098
N   N49       1.0  0.61118  0.23250  0.79258  1.0000 -0.1901218748
N   N50       1.0  0.88626  0.45742  0.63882  1.0000 -0.1901218748
N   N51       1.0  0.23250  0.61118  0.36374  1.0000 -0.1901218748
N   N52       1.0  0.45742  0.88626  0.01750  1.0000 -0.1901218748
N   N53       1.0  0.01750  0.88626  0.63882  1.0000 -0.1901218748
N   N54       1.0  0.36374  0.79258  0.23250  1.0000 -0.1901218748
N   N55       1.0  0.45742  0.63882  0.88626  1.0000 -0.1901218748
N   N56       1.0  0.01750  0.45742  0.88626  1.0000 -0.1901218748
N   N57       1.0  0.79258  0.36374  0.61118  1.0000 -0.1901218748
N   N58       1.0  0.88626  0.63882  0.01750  1.0000 -0.1901218748
N   N59       1.0  0.79258  0.61118  0.23250  1.0000 -0.1901218748
N   N60       1.0  0.23250  0.79258  0.61118  1.0000 -0.1901218748
N   N61       1.0  0.79258  0.23250  0.36374  1.0000 -0.1901218748
N   N62       1.0  0.36374  0.23250  0.61118  1.0000 -0.1901218748
N   N63       1.0  0.61118  0.36374  0.23250  1.0000 -0.1901218748
N   N64       1.0  0.61118  0.79258  0.36374  1.0000 -0.1901218748
N   N65       1.0  0.23250  0.36374  0.79258  1.0000 -0.1901218748
N   N66       1.0  0.36374  0.61118  0.79258  1.0000 -0.1901218748
N   N67       1.0  0.63882  0.01750  0.88626  1.0000 -0.1901218748
N   N68       1.0  0.01750  0.63882  0.45742  1.0000 -0.1901218748
N   N69       1.0  0.88626  0.01750  0.45742  1.0000 -0.1901218748
N   N70       1.0  0.63882  0.45742  0.01750  1.0000 -0.1901218748
N   N71       1.0  0.63882  0.88626  0.45742  1.0000 -0.1901218748
N   N72       1.0  0.45742  0.01750  0.63882  1.0000 -0.1901218748
N   N73       1.0  0.13882  0.51750  0.95742  1.0000 -0.1901218748
N   N74       1.0  0.86374  0.29258  0.11118  1.0000 -0.1901218748
N   N75       1.0  0.51750  0.13882  0.38626  1.0000 -0.1901218748
N   N76       1.0  0.29258  0.86374  0.73250  1.0000 -0.1901218748
N   N77       1.0  0.73250  0.86374  0.11118  1.0000 -0.2008892071
N   N78       1.0  0.38626  0.95742  0.51750  1.0000 -0.1901218748
N   N79       1.0  0.29258  0.11118  0.86374  1.0000 -0.1901218748
N   N80       1.0  0.73250  0.29258  0.86374  1.0000 -0.1901218748
N   N81       1.0  0.95742  0.38626  0.13882  1.0000 -0.2008892071
N   N82       1.0  0.86374  0.11118  0.73250  1.0000 -0.1901218748
N   N83       1.0  0.95742  0.13882  0.51750  1.0000 -0.1901218748
N   N84       1.0  0.51750  0.95742  0.13882  1.0000 -0.1901218748
N   N85       1.0  0.95742  0.51750  0.38626  1.0000 -0.1901218748
N   N86       1.0  0.38626  0.51750  0.13882  1.0000 -0.1901218748
N   N87       1.0  0.13882  0.38626  0.51750  1.0000 -0.1901218748
N   N88       1.0  0.13882  0.95742  0.38626  1.0000 -0.1901218748
N   N89       1.0  0.51750  0.38626  0.95742  1.0000 -0.1901218748
N   N90       1.0  0.38626  0.13882  0.95742  1.0000 -0.1901218748
N   N91       1.0  0.11118  0.73250  0.86374  1.0000 -0.1901218748
N   N92       1.0  0.73250  0.11118  0.29258  1.0000 -0.1901218748
N   N93       1.0  0.86374  0.73250  0.29258  1.0000 -0.1901218748
N   N94       1.0  0.11118  0.29258  0.73250  1.0000 -0.1901218748
N   N95       1.0  0.11118  0.86374  0.29258  1.0000 -0.2008892071
N   N96       1.0  0.29258  0.73250  0.11118  1.0000 -0.2008892071
N   N97       1.0  0.55710  0.29150  0.69564  1.0000 -0.2008892071
N   N98       1.0  0.79424  0.55436  0.69290  1.0000 -0.2008892071
N   N99       1.0  0.29150  0.55710  0.45576  1.0000 -0.2008892071
N   N100      1.0  0.55436  0.79424  0.95850  1.0000 -0.2008892071
N   N101      1.0  0.95850  0.79424  0.69290  1.0000 -0.2008892071
N   N102      1.0  0.45576  0.69564  0.29150  1.0000 -0.2008892071
N   N103      1.0  0.55436  0.69290  0.79424  1.0000 -0.2056487719
N   N104      1.0  0.95850  0.55436  0.79424  1.0000 -0.2008892071
N   N105      1.0  0.69564  0.45576  0.55710  1.0000 -0.2008892071
N   N106      1.0  0.79424  0.69290  0.95850  1.0000 -0.2008892071
N   N107      1.0  0.69564  0.55710  0.29150  1.0000 -0.2008892071
N   N108      1.0  0.29150  0.69564  0.55710  1.0000 -0.2008892071
N   N109      1.0  0.69564  0.29150  0.45576  1.0000 -0.2008892071
N   N110      1.0  0.45576  0.29150  0.55710  1.0000 -0.2008892071
N   N111      1.0  0.55710  0.45576  0.29150  1.0000 -0.2008892071
N   N112      1.0  0.55710  0.69564  0.45576  1.0000 -0.2008892071
N   N113      1.0  0.29150  0.45576  0.69564  1.0000 -0.2008892071
N   N114      1.0  0.45576  0.55710  0.69564  1.0000 -0.2008892071
N   N115      1.0  0.69290  0.95850  0.79424  1.0000 -0.2056487719
N   N116      1.0  0.95850  0.69290  0.55436  1.0000 -0.2008892071
N   N117      1.0  0.79424  0.95850  0.55436  1.0000 -0.2008892071
N   N118      1.0  0.69290  0.55436  0.95850  1.0000 -0.2008892071
N   N119      1.0  0.69290  0.79424  0.55436  1.0000 -0.2056487719
N   N120      1.0  0.55436  0.95850  0.69290  1.0000 -0.2056487719
N   N121      1.0  0.19290  0.45850  0.05436  1.0000 -0.2008892071
N   N122      1.0  0.95576  0.19564  0.05710  1.0000 -0.2056487719
N   N123      1.0  0.45850  0.19290  0.29424  1.0000 -0.2008892071
N   N124      1.0  0.19564  0.95576  0.79150  1.0000 -0.2056487719
N   N125      1.0  0.79150  0.95576  0.05710  1.0000 -0.2008892071
N   N126      1.0  0.29424  0.05436  0.45850  1.0000 -0.2056487719
N   N127      1.0  0.19564  0.05710  0.95576  1.0000 -0.2008892071
N   N128      1.0  0.79150  0.19564  0.95576  1.0000 -0.2008892071
N   N129      1.0  0.05436  0.29424  0.19290  1.0000 -0.2056487719
N   N130      1.0  0.95576  0.05710  0.79150  1.0000 -0.2056487719
N   N131      1.0  0.05436  0.19290  0.45850  1.0000 -0.2056487719
N   N132      1.0  0.45850  0.05436  0.19290  1.0000 -0.2008892071
N   N133      1.0  0.05436  0.45850  0.29424  1.0000 -0.2008892071
N   N134      1.0  0.29424  0.45850  0.19290  1.0000 -0.2008892071
N   N135      1.0  0.19290  0.29424  0.45850  1.0000 -0.2056487719
N   N136      1.0  0.19290  0.05436  0.29424  1.0000 -0.2008892071
N   N137      1.0  0.45850  0.29424  0.05436  1.0000 -0.2056487719
N   N138      1.0  0.29424  0.19290  0.05436  1.0000 -0.2008892071
N   N139      1.0  0.05710  0.79150  0.95576  1.0000 -0.2008892071
N   N140      1.0  0.79150  0.05710  0.19564  1.0000 -0.2008892071
N   N141      1.0  0.95576  0.79150  0.19564  1.0000 -0.2008892071
N   N142      1.0  0.05710  0.19564  0.79150  1.0000 -0.2008892071
N   N143      1.0  0.05710  0.95576  0.19564  1.0000 -0.2008892071
N   N144      1.0  0.19564  0.79150  0.05710  1.0000 -0.2008892071
N   N145      1.0  0.55609  0.24605  0.72069  1.0000 -0.1901218748
N   N146      1.0  0.77283  0.52931  0.69391  1.0000 -0.1901218748
N   N147      1.0  0.24605  0.55609  0.47717  1.0000 -0.1901218748
N   N148      1.0  0.52931  0.77283  0.00395  1.0000 -0.1901218748
N   N149      1.0  0.00395  0.77283  0.69391  1.0000 -0.1901218748
N   N150      1.0  0.47717  0.72069  0.24605  1.0000 -0.1901218748
N   N151      1.0  0.52931  0.69391  0.77283  1.0000 -0.1901218748
N   N152      1.0  0.00395  0.52931  0.77283  1.0000 -0.1824054098
N   N153      1.0  0.72069  0.47717  0.55609  1.0000 -0.1901218748
N   N154      1.0  0.77283  0.69391  0.00395  1.0000 -0.1901218748
N   N155      1.0  0.72069  0.55609  0.24605  1.0000 -0.1901218748
N   N156      1.0  0.24605  0.72069  0.55609  1.0000 -0.1901218748
N   N157      1.0  0.72069  0.24605  0.47717  1.0000 -0.1901218748
N   N158      1.0  0.47717  0.24605  0.55609  1.0000 -0.1901218748
N   N159      1.0  0.55609  0.47717  0.24605  1.0000 -0.1901218748
N   N160      1.0  0.55609  0.72069  0.47717  1.0000 -0.1901218748
N   N161      1.0  0.24605  0.47717  0.72069  1.0000 -0.1901218748
N   N162      1.0  0.47717  0.55609  0.72069  1.0000 -0.1901218748
N   N163      1.0  0.69391  0.00395  0.77283  1.0000 -0.1901218748
N   N164      1.0  0.00395  0.69391  0.52931  1.0000 -0.1901218748
N   N165      1.0  0.77283  0.00395  0.52931  1.0000 -0.1901218748
N   N166      1.0  0.69391  0.52931  0.00395  1.0000 -0.1901218748
N   N167      1.0  0.69391  0.77283  0.52931  1.0000 -0.1901218748
N   N168      1.0  0.52931  0.00395  0.69391  1.0000 -0.1901218748
N   N169      1.0  0.19391  0.50395  0.02931  1.0000 -0.1901218748
N   N170      1.0  0.97717  0.22069  0.05609  1.0000 -0.1901218748
N   N171      1.0  0.50395  0.19391  0.27283  1.0000 -0.1901218748
N   N172      1.0  0.22069  0.97717  0.74605  1.0000 -0.1901218748
N   N173      1.0  0.74605  0.97717  0.05609  1.0000 -0.1901218748
N   N174      1.0  0.27283  0.02931  0.50395  1.0000 -0.1901218748
N   N175      1.0  0.22069  0.05609  0.97717  1.0000 -0.1901218748
N   N176      1.0  0.74605  0.22069  0.97717  1.0000 -0.1901218748
N   N177      1.0  0.02931  0.27283  0.19391  1.0000 -0.1901218748
N   N178      1.0  0.97717  0.05609  0.74605  1.0000 -0.1824054098
N   N179      1.0  0.02931  0.19391  0.50395  1.0000 -0.1901218748
N   N180      1.0  0.50395  0.02931  0.19391  1.0000 -0.1901218748
N   N181      1.0  0.02931  0.50395  0.27283  1.0000 -0.1901218748
N   N182      1.0  0.27283  0.50395  0.19391  1.0000 -0.1901218748
N   N183      1.0  0.19391  0.27283  0.50395  1.0000 -0.1824054098
N   N184      1.0  0.19391  0.02931  0.27283  1.0000 -0.1901218748
N   N185      1.0  0.50395  0.27283  0.02931  1.0000 -0.1901218748
N   N186      1.0  0.27283  0.19391  0.02931  1.0000 -0.1901218748
N   N187      1.0  0.05609  0.74605  0.97717  1.0000 -0.1901218748
N   N188      1.0  0.74605  0.05609  0.22069  1.0000 -0.1901218748
N   N189      1.0  0.97717  0.74605  0.22069  1.0000 -0.1901218748
N   N190      1.0  0.05609  0.22069  0.74605  1.0000 -0.1901218748
N   N191      1.0  0.05609  0.97717  0.22069  1.0000 -0.1901218748
N   N192      1.0  0.22069  0.74605  0.05609  1.0000 -0.1901218748
N   N193      1.0  0.38459  0.33097  0.69303  1.0000 -0.2008892071
N   N194      1.0  0.65859  0.55697  0.86541  1.0000 -0.2008892071
N   N195      1.0  0.33097  0.38459  0.59141  1.0000 -0.2008892071
N   N196      1.0  0.55697  0.65859  0.91903  1.0000 -0.2056487719
N   N197      1.0  0.91903  0.65859  0.86541  1.0000 -0.2056487719
N   N198      1.0  0.59141  0.69303  0.33097  1.0000 -0.2008892071
N   N199      1.0  0.55697  0.86541  0.65859  1.0000 -0.2056487719
N   N200      1.0  0.91903  0.55697  0.65859  1.0000 -0.2008892071
N   N201      1.0  0.69303  0.59141  0.38459  1.0000 -0.2008892071
N   N202      1.0  0.65859  0.86541  0.91903  1.0000 -0.2008892071
N   N203      1.0  0.69303  0.38459  0.33097  1.0000 -0.2008892071
N   N204      1.0  0.33097  0.69303  0.38459  1.0000 -0.2008892071
N   N205      1.0  0.69303  0.33097  0.59141  1.0000 -0.2008892071
N   N206      1.0  0.59141  0.33097  0.38459  1.0000 -0.2008892071
N   N207      1.0  0.38459  0.59141  0.33097  1.0000 -0.2008892071
N   N208      1.0  0.38459  0.69303  0.59141  1.0000 -0.2008892071
N   N209      1.0  0.33097  0.59141  0.69303  1.0000 -0.2008892071
N   N210      1.0  0.59141  0.38459  0.69303  1.0000 -0.2008892071
N   N211      1.0  0.86541  0.91903  0.65859  1.0000 -0.2008892071
N   N212      1.0  0.91903  0.86541  0.55697  1.0000 -0.2008892071
N   N213      1.0  0.65859  0.91903  0.55697  1.0000 -0.2056487719
N   N214      1.0  0.86541  0.55697  0.91903  1.0000 -0.2008892071
N   N215      1.0  0.86541  0.65859  0.55697  1.0000 -0.2056487719
N   N216      1.0  0.55697  0.91903  0.86541  1.0000 -0.2008892071
N   N217      1.0  0.36541  0.41903  0.05697  1.0000 -0.2008892071
N   N218      1.0  0.09141  0.19303  0.88459  1.0000 -0.2056487719
N   N219      1.0  0.41903  0.36541  0.15859  1.0000 -0.2008892071
N   N220      1.0  0.19303  0.09141  0.83097  1.0000 -0.2056487719
N   N221      1.0  0.83097  0.09141  0.88459  1.0000 -0.2008892071
N   N222      1.0  0.15859  0.05697  0.41903  1.0000 -0.2008892071
N   N223      1.0  0.19303  0.88459  0.09141  1.0000 -0.2056487719
N   N224      1.0  0.83097  0.19303  0.09141  1.0000 -0.2008892071
N   N225      1.0  0.05697  0.15859  0.36541  1.0000 -0.2008892071
N   N226      1.0  0.09141  0.88459  0.83097  1.0000 -0.2056487719
N   N227      1.0  0.05697  0.36541  0.41903  1.0000 -0.2056487719
N   N228      1.0  0.41903  0.05697  0.36541  1.0000 -0.2008892071
N   N229      1.0  0.05697  0.41903  0.15859  1.0000 -0.2008892071
N   N230      1.0  0.15859  0.41903  0.36541  1.0000 -0.2008892071
N   N231      1.0  0.36541  0.15859  0.41903  1.0000 -0.2056487719
N   N232      1.0  0.36541  0.05697  0.15859  1.0000 -0.2008892071
N   N233      1.0  0.41903  0.15859  0.05697  1.0000 -0.2008892071
N   N234      1.0  0.15859  0.36541  0.05697  1.0000 -0.2008892071
N   N235      1.0  0.88459  0.83097  0.09141  1.0000 -0.2008892071
N   N236      1.0  0.83097  0.88459  0.19303  1.0000 -0.2056487719
N   N237      1.0  0.09141  0.83097  0.19303  1.0000 -0.2008892071
N   N238      1.0  0.88459  0.19303  0.83097  1.0000 -0.2008892071
N   N239      1.0  0.88459  0.09141  0.19303  1.0000 -0.2056487719
N   N240      1.0  0.19303  0.83097  0.88459  1.0000 -0.2008892071
N   N241      1.0  0.41074  0.30582  0.66262  1.0000 -0.1901218748
N   N242      1.0  0.62918  0.58738  0.83926  1.0000 -0.1901218748
N   N243      1.0  0.30582  0.41074  0.62082  1.0000 -0.1901218748
N   N244      1.0  0.58738  0.62918  0.94418  1.0000 -0.1901218748
N   N245      1.0  0.94418  0.62918  0.83926  1.0000 -0.1901218748
N   N246      1.0  0.62082  0.66262  0.30582  1.0000 -0.1901218748
N   N247      1.0  0.58738  0.83926  0.62918  1.0000 -0.1901218748
N   N248      1.0  0.94418  0.58738  0.62918  1.0000 -0.1901218748
N   N249      1.0  0.66262  0.62082  0.41074  1.0000 -0.1901218748
N   N250      1.0  0.62918  0.83926  0.94418  1.0000 -0.1901218748
N   N251      1.0  0.66262  0.41074  0.30582  1.0000 -0.1901218748
N   N252      1.0  0.30582  0.66262  0.41074  1.0000 -0.1901218748
N   N253      1.0  0.66262  0.30582  0.62082  1.0000 -0.1901218748
N   N254      1.0  0.62082  0.30582  0.41074  1.0000 -0.1901218748
N   N255      1.0  0.41074  0.62082  0.30582  1.0000 -0.1901218748
N   N256      1.0  0.41074  0.66262  0.62082  1.0000 -0.1901218748
N   N257      1.0  0.30582  0.62082  0.66262  1.0000 -0.1901218748
N   N258      1.0  0.62082  0.41074  0.66262  1.0000 -0.1901218748
N   N259      1.0  0.83926  0.94418  0.62918  1.0000 -0.1901218748
N   N260      1.0  0.94418  0.83926  0.58738  1.0000 -0.1901218748
N   N261      1.0  0.62918  0.94418  0.58738  1.0000 -0.1901218748
N   N262      1.0  0.83926  0.58738  0.94418  1.0000 -0.1901218748
N   N263      1.0  0.83926  0.62918  0.58738  1.0000 -0.1901218748
N   N264      1.0  0.58738  0.94418  0.83926  1.0000 -0.1901218748
N   N265      1.0  0.33926  0.44418  0.08738  1.0000 -0.1901218748
N   N266      1.0  0.12082  0.16262  0.91074  1.0000 -0.1901218748
N   N267      1.0  0.44418  0.33926  0.12918  1.0000 -0.1901218748
N   N268      1.0  0.16262  0.12082  0.80582  1.0000 -0.1901218748
N   N269      1.0  0.80582  0.12082  0.91074  1.0000 -0.1901218748
N   N270      1.0  0.12918  0.08738  0.44418  1.0000 -0.1901218748
N   N271      1.0  0.16262  0.91074  0.12082  1.0000 -0.1901218748
N   N272      1.0  0.80582  0.16262  0.12082  1.0000 -0.1901218748
N   N273      1.0  0.08738  0.12918  0.33926  1.0000 -0.1901218748
N   N274      1.0  0.12082  0.91074  0.80582  1.0000 -0.1901218748
N   N275      1.0  0.08738  0.33926  0.44418  1.0000 -0.1901218748
N   N276      1.0  0.44418  0.08738  0.33926  1.0000 -0.1901218748
N   N277      1.0  0.08738  0.44418  0.12918  1.0000 -0.1901218748
N   N278      1.0  0.12918  0.44418  0.33926  1.0000 -0.1901218748
N   N279      1.0  0.33926  0.12918  0.44418  1.0000 -0.1901218748
N   N280      1.0  0.33926  0.08738  0.12918  1.0000 -0.1901218748
N   N281      1.0  0.44418  0.12918  0.08738  1.0000 -0.1901218748
N   N282      1.0  0.12918  0.33926  0.08738  1.0000 -0.1901218748
N   N283      1.0  0.91074  0.80582  0.12082  1.0000 -0.1901218748
N   N284      1.0  0.80582  0.91074  0.16262  1.0000 -0.1901218748
N   N285      1.0  0.12082  0.80582  0.16262  1.0000 -0.1901218748
N   N286      1.0  0.91074  0.16262  0.80582  1.0000 -0.1901218748
N   N287      1.0  0.91074  0.12082  0.16262  1.0000 -0.1901218748
N   N288      1.0  0.16262  0.80582  0.91074  1.0000 -0.1901218748
N   N289      1.0  0.64660  0.25390  0.91598  1.0000 -0.1717303236
N   N290      1.0  0.06648  0.33402  0.60340  1.0000 -0.1717303236
N   N291      1.0  0.25390  0.64660  0.18352  1.0000 -0.1717303236
N   N292      1.0  0.33402  0.06648  0.99610  1.0000 -0.1717303236
N   N293      1.0  0.99610  0.06648  0.60340  1.0000 -0.1717303236
N   N294      1.0  0.18352  0.91598  0.25390  1.0000 -0.1717303236
N   N295      1.0  0.33402  0.60340  0.06648  1.0000 -0.1717303236
N   N296      1.0  0.99610  0.33402  0.06648  1.0000 -0.1717303236
N   N297      1.0  0.91598  0.18352  0.64660  1.0000 -0.1717303236
N   N298      1.0  0.06648  0.60340  0.99610  1.0000 -0.1717303236
N   N299      1.0  0.91598  0.64660  0.25390  1.0000 -0.1717303236
N   N300      1.0  0.25390  0.91598  0.64660  1.0000 -0.1717303236
N   N301      1.0  0.91598  0.25390  0.18352  1.0000 -0.1717303236
N   N302      1.0  0.18352  0.25390  0.64660  1.0000 -0.1717303236
N   N303      1.0  0.64660  0.18352  0.25390  1.0000 -0.1717303236
N   N304      1.0  0.64660  0.91598  0.18352  1.0000 -0.1717303236
N   N305      1.0  0.25390  0.18352  0.91598  1.0000 -0.1717303236
N   N306      1.0  0.18352  0.64660  0.91598  1.0000 -0.1717303236
N   N307      1.0  0.60340  0.99610  0.06648  1.0000 -0.1717303236
N   N308      1.0  0.99610  0.60340  0.33402  1.0000 -0.1717303236
N   N309      1.0  0.06648  0.99610  0.33402  1.0000 -0.1717303236
N   N310      1.0  0.60340  0.33402  0.99610  1.0000 -0.1717303236
N   N311      1.0  0.60340  0.06648  0.33402  1.0000 -0.1717303236
N   N312      1.0  0.33402  0.99610  0.60340  1.0000 -0.1717303236
N   N313      1.0  0.10340  0.49610  0.83402  1.0000 -0.1717303236
N   N314      1.0  0.68352  0.41598  0.14660  1.0000 -0.1717303236
N   N315      1.0  0.49610  0.10340  0.56648  1.0000 -0.1717303236
N   N316      1.0  0.41598  0.68352  0.75390  1.0000 -0.1717303236
N   N317      1.0  0.75390  0.68352  0.14660  1.0000 -0.1717303236
N   N318      1.0  0.56648  0.83402  0.49610  1.0000 -0.1717303236
N   N319      1.0  0.41598  0.14660  0.68352  1.0000 -0.1717303236
N   N320      1.0  0.75390  0.41598  0.68352  1.0000 -0.1717303236
N   N321      1.0  0.83402  0.56648  0.10340  1.0000 -0.1717303236
N   N322      1.0  0.68352  0.14660  0.75390  1.0000 -0.1717303236
N   N323      1.0  0.83402  0.10340  0.49610  1.0000 -0.1717303236
N   N324      1.0  0.49610  0.83402  0.10340  1.0000 -0.1717303236
N   N325      1.0  0.83402  0.49610  0.56648  1.0000 -0.1717303236
N   N326      1.0  0.56648  0.49610  0.10340  1.0000 -0.1717303236
N   N327      1.0  0.10340  0.56648  0.49610  1.0000 -0.1717303236
N   N328      1.0  0.10340  0.83402  0.56648  1.0000 -0.1717303236
N   N329      1.0  0.49610  0.56648  0.83402  1.0000 -0.1717303236
N   N330      1.0  0.56648  0.10340  0.83402  1.0000 -0.1717303236
N   N331      1.0  0.14660  0.75390  0.68352  1.0000 -0.1717303236
N   N332      1.0  0.75390  0.14660  0.41598  1.0000 -0.1717303236
N   N333      1.0  0.68352  0.75390  0.41598  1.0000 -0.1717303236
N   N334      1.0  0.14660  0.41598  0.75390  1.0000 -0.1717303236
N   N335      1.0  0.14660  0.68352  0.41598  1.0000 -0.1717303236
N   N336      1.0  0.41598  0.75390  0.14660  1.0000 -0.1717303236
N   N337      1.0  0.59911  0.27829  0.92891  1.0000 -0.2008892071
N   N338      1.0  0.05631  0.32109  0.65089  1.0000 -0.1901218748
N   N339      1.0  0.27829  0.59911  0.19369  1.0000 -0.1901218748
N   N340      1.0  0.32109  0.05631  0.97171  1.0000 -0.2008892071
N   N341      1.0  0.97171  0.05631  0.65089  1.0000 -0.2008892071
N   N342      1.0  0.19369  0.92891  0.27829  1.0000 -0.2008892071
N   N343      1.0  0.32109  0.65089  0.05631  1.0000 -0.2008892071
N   N344      1.0  0.97171  0.32109  0.05631  1.0000 -0.2008892071
N   N345      1.0  0.92891  0.19369  0.59911  1.0000 -0.2008892071
N   N346      1.0  0.05631  0.65089  0.97171  1.0000 -0.2008892071
N   N347      1.0  0.92891  0.59911  0.27829  1.0000 -0.2008892071
N   N348      1.0  0.27829  0.92891  0.59911  1.0000 -0.2008892071
N   N349      1.0  0.92891  0.27829  0.19369  1.0000 -0.1901218748
N   N350      1.0  0.19369  0.27829  0.59911  1.0000 -0.1901218748
N   N351      1.0  0.59911  0.19369  0.27829  1.0000 -0.1901218748
N   N352      1.0  0.59911  0.92891  0.19369  1.0000 -0.2008892071
N   N353      1.0  0.27829  0.19369  0.92891  1.0000 -0.2008892071
N   N354      1.0  0.19369  0.59911  0.92891  1.0000 -0.1901218748
N   N355      1.0  0.65089  0.97171  0.05631  1.0000 -0.2008892071
N   N356      1.0  0.97171  0.65089  0.32109  1.0000 -0.2008892071
N   N357      1.0  0.05631  0.97171  0.32109  1.0000 -0.2008892071
N   N358      1.0  0.65089  0.32109  0.97171  1.0000 -0.2008892071
N   N359      1.0  0.65089  0.05631  0.32109  1.0000 -0.2008892071
N   N360      1.0  0.32109  0.97171  0.65089  1.0000 -0.2008892071
N   N361      1.0  0.15089  0.47171  0.82109  1.0000 -0.1901218748
N   N362      1.0  0.69369  0.42891  0.09911  1.0000 -0.1901218748
N   N363      1.0  0.47171  0.15089  0.55631  1.0000 -0.1901218748
N   N364      1.0  0.42891  0.69369  0.77829  1.0000 -0.2008892071
N   N365      1.0  0.77829  0.69369  0.09911  1.0000 -0.2008892071
N   N366      1.0  0.55631  0.82109  0.47171  1.0000 -0.1901218748
N   N367      1.0  0.42891  0.09911  0.69369  1.0000 -0.1901218748
N   N368      1.0  0.77829  0.42891  0.69369  1.0000 -0.2008892071
N   N369      1.0  0.82109  0.55631  0.15089  1.0000 -0.2008892071
N   N370      1.0  0.69369  0.09911  0.77829  1.0000 -0.1901218748
N   N371      1.0  0.82109  0.15089  0.47171  1.0000 -0.1901218748
N   N372      1.0  0.47171  0.82109  0.15089  1.0000 -0.2008892071
N   N373      1.0  0.82109  0.47171  0.55631  1.0000 -0.2008892071
N   N374      1.0  0.55631  0.47171  0.15089  1.0000 -0.1901218748
N   N375      1.0  0.15089  0.55631  0.47171  1.0000 -0.2008892071
N   N376      1.0  0.15089  0.82109  0.55631  1.0000 -0.2008892071
N   N377      1.0  0.47171  0.55631  0.82109  1.0000 -0.1901218748
N   N378      1.0  0.55631  0.15089  0.82109  1.0000 -0.2008892071
N   N379      1.0  0.09911  0.77829  0.69369  1.0000 -0.2008892071
N   N380      1.0  0.77829  0.09911  0.42891  1.0000 -0.2008892071
N   N381      1.0  0.69369  0.77829  0.42891  1.0000 -0.2008892071
N   N382      1.0  0.09911  0.42891  0.77829  1.0000 -0.1901218748
N   N383      1.0  0.09911  0.69369  0.42891  1.0000 -0.2008892071
N   N384      1.0  0.42891  0.77829  0.09911  1.0000 -0.1901218748
N   N385      1.0  0.49609  0.28665  0.69895  1.0000 0.0685467005
N   N386      1.0  0.73169  0.55105  0.75391  1.0000 0.0620779692
N   N387      1.0  0.28665  0.49609  0.51831  1.0000 0.0685467005
N   N388      1.0  0.55105  0.73169  0.96335  1.0000 0.0685467005
N   N389      1.0  0.96335  0.73169  0.75391  1.0000 0.0685467005
N   N390      1.0  0.51831  0.69895  0.28665  1.0000 0.0685467005
N   N391      1.0  0.55105  0.75391  0.73169  1.0000 0.0620779692
N   N392      1.0  0.96335  0.55105  0.73169  1.0000 0.0685467005
N   N393      1.0  0.69895  0.51831  0.49609  1.0000 0.0620779692
N   N394      1.0  0.73169  0.75391  0.96335  1.0000 0.0620779692
N   N395      1.0  0.69895  0.49609  0.28665  1.0000 0.0620779692
N   N396      1.0  0.28665  0.69895  0.49609  1.0000 0.0620779692
N   N397      1.0  0.69895  0.28665  0.51831  1.0000 0.0685467005
N   N398      1.0  0.51831  0.28665  0.49609  1.0000 0.0620779692
N   N399      1.0  0.49609  0.51831  0.28665  1.0000 0.0685467005
N   N400      1.0  0.49609  0.69895  0.51831  1.0000 0.0685467005
N   N401      1.0  0.28665  0.51831  0.69895  1.0000 0.0685467005
N   N402      1.0  0.51831  0.49609  0.69895  1.0000 0.0685467005
N   N403      1.0  0.75391  0.96335  0.73169  1.0000 0.0620779692
N   N404      1.0  0.96335  0.75391  0.55105  1.0000 0.0620779692
N   N405      1.0  0.73169  0.96335  0.55105  1.0000 0.0685467005
N   N406      1.0  0.75391  0.55105  0.96335  1.0000 0.0685467005
N   N407      1.0  0.75391  0.73169  0.55105  1.0000 0.0685467005
N   N408      1.0  0.55105  0.96335  0.75391  1.0000 0.0685467005
N   N409      1.0  0.25391  0.46335  0.05105  1.0000 0.0685467005
N   N410      1.0  0.01831  0.19895  0.99609  1.0000 0.0685467005
N   N411      1.0  0.46335  0.25391  0.23169  1.0000 0.0620779692
N   N412      1.0  0.19895  0.01831  0.78665  1.0000 0.0620779692
N   N413      1.0  0.78665  0.01831  0.99609  1.0000 0.0620779692
N   N414      1.0  0.23169  0.05105  0.46335  1.0000 0.0685467005
N   N415      1.0  0.19895  0.99609  0.01831  1.0000 0.0685467005
N   N416      1.0  0.78665  0.19895  0.01831  1.0000 0.0685467005
N   N417      1.0  0.05105  0.23169  0.25391  1.0000 0.0685467005
N   N418      1.0  0.01831  0.99609  0.78665  1.0000 0.0620779692
N   N419      1.0  0.05105  0.25391  0.46335  1.0000 0.0620779692
N   N420      1.0  0.46335  0.05105  0.25391  1.0000 0.0685467005
N   N421      1.0  0.05105  0.46335  0.23169  1.0000 0.0685467005
N   N422      1.0  0.23169  0.46335  0.25391  1.0000 0.0685467005
N   N423      1.0  0.25391  0.23169  0.46335  1.0000 0.0620779692
N   N424      1.0  0.25391  0.05105  0.23169  1.0000 0.0620779692
N   N425      1.0  0.46335  0.23169  0.05105  1.0000 0.0620779692
N   N426      1.0  0.23169  0.25391  0.05105  1.0000 0.0685467005
N   N427      1.0  0.99609  0.78665  0.01831  1.0000 0.0685467005
N   N428      1.0  0.78665  0.99609  0.19895  1.0000 0.0620779692
N   N429      1.0  0.01831  0.78665  0.19895  1.0000 0.0685467005
N   N430      1.0  0.99609  0.19895  0.78665  1.0000 0.0620779692
N   N431      1.0  0.99609  0.01831  0.19895  1.0000 0.0620779692
N   N432      1.0  0.19895  0.78665  0.99609  1.0000 0.0685467005
N   N433      1.0  0.45696  0.29840  0.69070  1.0000 0.0428216381
N   N434      1.0  0.69606  0.55930  0.79304  1.0000 0.0458319369
N   N435      1.0  0.29840  0.45696  0.55394  1.0000 0.0428216381
N   N436      1.0  0.55930  0.69606  0.95160  1.0000 0.0428216381
N   N437      1.0  0.95160  0.69606  0.79304  1.0000 0.0428216381
N   N438      1.0  0.55394  0.69070  0.29840  1.0000 0.0428216381
N   N439      1.0  0.55930  0.79304  0.69606  1.0000 0.0458319369
N   N440      1.0  0.95160  0.55930  0.69606  1.0000 0.0428216381
N   N441      1.0  0.69070  0.55394  0.45696  1.0000 0.0428216381
N   N442      1.0  0.69606  0.79304  0.95160  1.0000 0.0428216381
N   N443      1.0  0.69070  0.45696  0.29840  1.0000 0.0458319369
N   N444      1.0  0.29840  0.69070  0.45696  1.0000 0.0458319369
N   N445      1.0  0.69070  0.29840  0.55394  1.0000 0.0428216381
N   N446      1.0  0.55394  0.29840  0.45696  1.0000 0.0458319369
N   N447      1.0  0.45696  0.55394  0.29840  1.0000 0.0428216381
N   N448      1.0  0.45696  0.69070  0.55394  1.0000 0.0428216381
N   N449      1.0  0.29840  0.55394  0.69070  1.0000 0.0428216381
N   N450      1.0  0.55394  0.45696  0.69070  1.0000 0.0428216381
N   N451      1.0  0.79304  0.95160  0.69606  1.0000 0.0458319369
N   N452      1.0  0.95160  0.79304  0.55930  1.0000 0.0428216381
N   N453      1.0  0.69606  0.95160  0.55930  1.0000 0.0428216381
N   N454      1.0  0.79304  0.55930  0.95160  1.0000 0.0428216381
N   N455      1.0  0.79304  0.69606  0.55930  1.0000 0.0428216381
N   N456      1.0  0.55930  0.95160  0.79304  1.0000 0.0458319369
N   N457      1.0  0.29304  0.45160  0.05930  1.0000 0.0428216381
N   N458      1.0  0.05394  0.19070  0.95696  1.0000 0.0428216381
N   N459      1.0  0.45160  0.29304  0.19606  1.0000 0.0458319369
N   N460      1.0  0.19070  0.05394  0.79840  1.0000 0.0428216381
N   N461      1.0  0.79840  0.05394  0.95696  1.0000 0.0428216381
N   N462      1.0  0.19606  0.05930  0.45160  1.0000 0.0428216381
N   N463      1.0  0.19070  0.95696  0.05394  1.0000 0.0458319369
N   N464      1.0  0.79840  0.19070  0.05394  1.0000 0.0428216381
N   N465      1.0  0.05930  0.19606  0.29304  1.0000 0.0428216381
N   N466      1.0  0.05394  0.95696  0.79840  1.0000 0.0458319369
N   N467      1.0  0.05930  0.29304  0.45160  1.0000 0.0428216381
N   N468      1.0  0.45160  0.05930  0.29304  1.0000 0.0428216381
N   N469      1.0  0.05930  0.45160  0.19606  1.0000 0.0428216381
N   N470      1.0  0.19606  0.45160  0.29304  1.0000 0.0428216381
N   N471      1.0  0.29304  0.19606  0.45160  1.0000 0.0458319369
N   N472      1.0  0.29304  0.05930  0.19606  1.0000 0.0458319369
N   N473      1.0  0.45160  0.19606  0.05930  1.0000 0.0458319369
N   N474      1.0  0.19606  0.29304  0.05930  1.0000 0.0428216381
N   N475      1.0  0.95696  0.79840  0.05394  1.0000 0.0428216381
N   N476      1.0  0.79840  0.95696  0.19070  1.0000 0.0458319369
N   N477      1.0  0.05394  0.79840  0.19070  1.0000 0.0428216381
N   N478      1.0  0.95696  0.19070  0.79840  1.0000 0.0428216381
N   N479      1.0  0.95696  0.05394  0.19070  1.0000 0.0458319369
N   N480      1.0  0.19070  0.79840  0.95696  1.0000 0.0428216381
N   N481      1.0  0.61748  0.25830  0.83242  1.0000 0.0279486386
N   N482      1.0  0.95820  0.41758  0.63252  1.0000 0.0279486386
N   N483      1.0  0.25830  0.61748  0.29180  1.0000 0.0279486386
N   N484      1.0  0.41758  0.95820  0.99170  1.0000 0.0279486386
N   N485      1.0  0.99170  0.95820  0.63252  1.0000 0.0279486386
N   N486      1.0  0.29180  0.83242  0.25830  1.0000 0.0279486386
N   N487      1.0  0.41758  0.63252  0.95820  1.0000 0.0279486386
N   N488      1.0  0.99170  0.41758  0.95820  1.0000 0.0279486386
N   N489      1.0  0.83242  0.29180  0.61748  1.0000 0.0279486386
N   N490      1.0  0.95820  0.63252  0.99170  1.0000 0.0279486386
N   N491      1.0  0.83242  0.61748  0.25830  1.0000 0.0279486386
N   N492      1.0  0.25830  0.83242  0.61748  1.0000 0.0279486386
N   N493      1.0  0.83242  0.25830  0.29180  1.0000 0.0279486386
N   N494      1.0  0.29180  0.25830  0.61748  1.0000 0.0279486386
N   N495      1.0  0.61748  0.29180  0.25830  1.0000 0.0279486386
N   N496      1.0  0.61748  0.83242  0.29180  1.0000 0.0279486386
N   N497      1.0  0.25830  0.29180  0.83242  1.0000 0.0279486386
N   N498      1.0  0.29180  0.61748  0.83242  1.0000 0.0279486386
N   N499      1.0  0.63252  0.99170  0.95820  1.0000 0.0279486386
N   N500      1.0  0.99170  0.63252  0.41758  1.0000 0.0279486386
N   N501      1.0  0.95820  0.99170  0.41758  1.0000 0.0279486386
N   N502      1.0  0.63252  0.41758  0.99170  1.0000 0.0279486386
N   N503      1.0  0.63252  0.95820  0.41758  1.0000 0.0279486386
N   N504      1.0  0.41758  0.99170  0.63252  1.0000 0.0279486386
N   N505      1.0  0.13252  0.49170  0.91758  1.0000 0.0279486386
N   N506      1.0  0.79180  0.33242  0.11748  1.0000 0.0279486386
N   N507      1.0  0.49170  0.13252  0.45820  1.0000 0.0279486386
N   N508      1.0  0.33242  0.79180  0.75830  1.0000 0.0279486386
N   N509      1.0  0.75830  0.79180  0.11748  1.0000 0.0279486386
N   N510      1.0  0.45820  0.91758  0.49170  1.0000 0.0279486386
N   N511      1.0  0.33242  0.11748  0.79180  1.0000 0.0279486386
N   N512      1.0  0.75830  0.33242  0.79180  1.0000 0.0279486386
N   N513      1.0  0.91758  0.45820  0.13252  1.0000 0.0279486386
N   N514      1.0  0.79180  0.11748  0.75830  1.0000 0.0279486386
N   N515      1.0  0.91758  0.13252  0.49170  1.0000 0.0279486386
N   N516      1.0  0.49170  0.91758  0.13252  1.0000 0.0279486386
N   N517      1.0  0.91758  0.49170  0.45820  1.0000 0.0279486386
N   N518      1.0  0.45820  0.49170  0.13252  1.0000 0.0279486386
N   N519      1.0  0.13252  0.45820  0.49170  1.0000 0.0279486386
N   N520      1.0  0.13252  0.91758  0.45820  1.0000 0.0279486386
N   N521      1.0  0.49170  0.45820  0.91758  1.0000 0.0279486386
N   N522      1.0  0.45820  0.13252  0.91758  1.0000 0.0279486386
N   N523      1.0  0.11748  0.75830  0.79180  1.0000 0.0279486386
N   N524      1.0  0.75830  0.11748  0.33242  1.0000 0.0279486386
N   N525      1.0  0.79180  0.75830  0.33242  1.0000 0.0279486386
N   N526      1.0  0.11748  0.33242  0.75830  1.0000 0.0279486386
N   N527      1.0  0.11748  0.79180  0.33242  1.0000 0.0279486386
N   N528      1.0  0.33242  0.75830  0.11748  1.0000 0.0279486386
N   N529      1.0  0.61958  0.26196  0.86844  1.0000 0.0685467005
N   N530      1.0  0.99998  0.38156  0.63042  1.0000 0.0685467005
N   N531      1.0  0.26196  0.61958  0.25002  1.0000 0.0685467005
N   N532      1.0  0.38156  0.99998  0.98804  1.0000 0.0685467005
N   N533      1.0  0.98804  0.99998  0.63042  1.0000 0.0685467005
N   N534      1.0  0.25002  0.86844  0.26196  1.0000 0.0685467005
N   N535      1.0  0.38156  0.63042  0.99998  1.0000 0.0685467005
N   N536      1.0  0.98804  0.38156  0.99998  1.0000 0.0685467005
N   N537      1.0  0.86844  0.25002  0.61958  1.0000 0.0685467005
N   N538      1.0  0.99998  0.63042  0.98804  1.0000 0.0685467005
N   N539      1.0  0.86844  0.61958  0.26196  1.0000 0.0685467005
N   N540      1.0  0.26196  0.86844  0.61958  1.0000 0.0685467005
N   N541      1.0  0.86844  0.26196  0.25002  1.0000 0.0685467005
N   N542      1.0  0.25002  0.26196  0.61958  1.0000 0.0685467005
N   N543      1.0  0.61958  0.25002  0.26196  1.0000 0.0685467005
N   N544      1.0  0.61958  0.86844  0.25002  1.0000 0.0685467005
N   N545      1.0  0.26196  0.25002  0.86844  1.0000 0.0685467005
N   N546      1.0  0.25002  0.61958  0.86844  1.0000 0.0685467005
N   N547      1.0  0.63042  0.98804  0.99998  1.0000 0.0685467005
N   N548      1.0  0.98804  0.63042  0.38156  1.0000 0.0685467005
N   N549      1.0  0.99998  0.98804  0.38156  1.0000 0.0685467005
N   N550      1.0  0.63042  0.38156  0.98804  1.0000 0.0685467005
N   N551      1.0  0.63042  0.99998  0.38156  1.0000 0.0685467005
N   N552      1.0  0.38156  0.98804  0.63042  1.0000 0.0685467005
N   N553      1.0  0.13042  0.48804  0.88156  1.0000 0.0685467005
N   N554      1.0  0.75002  0.36844  0.11958  1.0000 0.0685467005
N   N555      1.0  0.48804  0.13042  0.49998  1.0000 0.0685467005
N   N556      1.0  0.36844  0.75002  0.76196  1.0000 0.0685467005
N   N557      1.0  0.76196  0.75002  0.11958  1.0000 0.0685467005
N   N558      1.0  0.49998  0.88156  0.48804  1.0000 0.0685467005
N   N559      1.0  0.36844  0.11958  0.75002  1.0000 0.0685467005
N   N560      1.0  0.76196  0.36844  0.75002  1.0000 0.0685467005
N   N561      1.0  0.88156  0.49998  0.13042  1.0000 0.0685467005
N   N562      1.0  0.75002  0.11958  0.76196  1.0000 0.0685467005
N   N563      1.0  0.88156  0.13042  0.48804  1.0000 0.0685467005
N   N564      1.0  0.48804  0.88156  0.13042  1.0000 0.0685467005
N   N565      1.0  0.88156  0.48804  0.49998  1.0000 0.0685467005
N   N566      1.0  0.49998  0.48804  0.13042  1.0000 0.0685467005
N   N567      1.0  0.13042  0.49998  0.48804  1.0000 0.0685467005
N   N568      1.0  0.13042  0.88156  0.49998  1.0000 0.0685467005
N   N569      1.0  0.48804  0.49998  0.88156  1.0000 0.0685467005
N   N570      1.0  0.49998  0.13042  0.88156  1.0000 0.0685467005
N   N571      1.0  0.11958  0.76196  0.75002  1.0000 0.0685467005
N   N572      1.0  0.76196  0.11958  0.36844  1.0000 0.0685467005
N   N573      1.0  0.75002  0.76196  0.36844  1.0000 0.0685467005
N   N574      1.0  0.11958  0.36844  0.76196  1.0000 0.0685467005
N   N575      1.0  0.11958  0.75002  0.36844  1.0000 0.0685467005
N   N576      1.0  0.36844  0.76196  0.11958  1.0000 0.0685467005
