# DDEC6 charges by PACMAN v1.1 (https://github.com/mtap-research/PACMAN-charge/)
data_2013[Cd][lvt]3[ASR]2
_chemical_formula_sum              "Cd16 H208 C240 N32 O64"
_cell_length_a       21.9367
_cell_length_b       21.9367
_cell_length_c       16.338
_cell_angle_alpha    90
_cell_angle_beta     90
_cell_angle_gamma    90

_symmetry_space_group_name_H-M    "P 1"
_symmetry_Int_Tables_number       1

loop_
  _symmetry_equiv_pos_as_xyz
  'x, y, z'

loop_
  _atom_site_type_symbol
  _atom_site_label
  _atom_site_symmetry_multiplicity
  _atom_site_fract_x
  _atom_site_fract_y
  _atom_site_fract_z
  _atom_site_occupancy
  _atom_site_charge
Cd  Cd1       1.0  0.08118  0.50285  0.02919  1.0000 0.9380156439
Cd  Cd2       1.0  0.91882  0.49715  0.97081  1.0000 0.9380156439
Cd  Cd3       1.0  0.41882  0.49715  0.52919  1.0000 0.9380156439
Cd  Cd4       1.0  0.58118  0.50285  0.47081  1.0000 0.9380156439
Cd  Cd5       1.0  0.24715  0.33118  0.27919  1.0000 0.9380156439
Cd  Cd6       1.0  0.75285  0.66882  0.72081  1.0000 0.9380156439
Cd  Cd7       1.0  0.25285  0.66882  0.77919  1.0000 0.9380156439
Cd  Cd8       1.0  0.74715  0.33118  0.22081  1.0000 0.9380156439
Cd  Cd9       1.0  0.58118  0.00285  0.52919  1.0000 0.9380156439
Cd  Cd10      1.0  0.41882  0.99715  0.47081  1.0000 0.9380156439
Cd  Cd11      1.0  0.91882  0.99715  0.02919  1.0000 0.9380156439
Cd  Cd12      1.0  0.08118  0.00285  0.97081  1.0000 0.9380156439
Cd  Cd13      1.0  0.74715  0.83118  0.77919  1.0000 0.9380156439
Cd  Cd14      1.0  0.25285  0.16882  0.22081  1.0000 0.9380156439
Cd  Cd15      1.0  0.75285  0.16882  0.27919  1.0000 0.9380156439
Cd  Cd16      1.0  0.24715  0.83118  0.72081  1.0000 0.9380156439
H   H1        1.0  0.06658  0.51292  0.22197  1.0000 0.108815011
H   H2        1.0  0.93342  0.48708  0.77803  1.0000 0.108815011
H   H3        1.0  0.43342  0.48708  0.72197  1.0000 0.108815011
H   H4        1.0  0.56658  0.51292  0.27803  1.0000 0.108815011
H   H5        1.0  0.23708  0.31658  0.47197  1.0000 0.108815011
H   H6        1.0  0.76292  0.68342  0.52803  1.0000 0.108815011
H   H7        1.0  0.26292  0.68342  0.97197  1.0000 0.108815011
H   H8        1.0  0.73708  0.31658  0.02803  1.0000 0.108815011
H   H9        1.0  0.56658  0.01292  0.72197  1.0000 0.108815011
H   H10       1.0  0.43342  0.98708  0.27803  1.0000 0.108815011
H   H11       1.0  0.93342  0.98708  0.22197  1.0000 0.108815011
H   H12       1.0  0.06658  0.01292  0.77803  1.0000 0.108815011
H   H13       1.0  0.73708  0.81658  0.97197  1.0000 0.108815011
H   H14       1.0  0.26292  0.18342  0.02803  1.0000 0.108815011
H   H15       1.0  0.76292  0.18342  0.47197  1.0000 0.108815011
H   H16       1.0  0.23708  0.81658  0.52803  1.0000 0.108815011
H   H17       1.0  0.06771  0.60001  0.31720  1.0000 0.0961169492
H   H18       1.0  0.93229  0.39999  0.68280  1.0000 0.0961169492
H   H19       1.0  0.43229  0.39999  0.81720  1.0000 0.0961169492
H   H20       1.0  0.56771  0.60001  0.18280  1.0000 0.0961169492
H   H21       1.0  0.14999  0.31771  0.56720  1.0000 0.0961169492
H   H22       1.0  0.85001  0.68229  0.43280  1.0000 0.0961169492
H   H23       1.0  0.35001  0.68229  0.06720  1.0000 0.0961169492
H   H24       1.0  0.64999  0.31771  0.93280  1.0000 0.0961169492
H   H25       1.0  0.56771  0.10001  0.81720  1.0000 0.0961169492
H   H26       1.0  0.43229  0.89999  0.18280  1.0000 0.0961169492
H   H27       1.0  0.93229  0.89999  0.31720  1.0000 0.0961169492
H   H28       1.0  0.06771  0.10001  0.68280  1.0000 0.0961169492
H   H29       1.0  0.64999  0.81771  0.06720  1.0000 0.0961169492
H   H30       1.0  0.35001  0.18229  0.93280  1.0000 0.0961169492
H   H31       1.0  0.85001  0.18229  0.56720  1.0000 0.0961169492
H   H32       1.0  0.14999  0.81771  0.43280  1.0000 0.0961169492
H   H33       1.0  0.25481  0.55834  0.38128  1.0000 0.108815011
H   H34       1.0  0.74519  0.44166  0.61872  1.0000 0.108815011
H   H35       1.0  0.24519  0.44166  0.88128  1.0000 0.108815011
H   H36       1.0  0.75481  0.55834  0.11872  1.0000 0.108815011
H   H37       1.0  0.19166  0.50481  0.63128  1.0000 0.108815011
H   H38       1.0  0.80834  0.49519  0.36872  1.0000 0.108815011
H   H39       1.0  0.30834  0.49519  0.13128  1.0000 0.108815011
H   H40       1.0  0.69166  0.50481  0.86872  1.0000 0.108815011
H   H41       1.0  0.75481  0.05834  0.88128  1.0000 0.108815011
H   H42       1.0  0.24519  0.94166  0.11872  1.0000 0.108815011
H   H43       1.0  0.74519  0.94166  0.38128  1.0000 0.108815011
H   H44       1.0  0.25481  0.05834  0.61872  1.0000 0.108815011
H   H45       1.0  0.69166  0.00481  0.13128  1.0000 0.108815011
H   H46       1.0  0.30834  0.99519  0.86872  1.0000 0.108815011
H   H47       1.0  0.80834  0.99519  0.63128  1.0000 0.108815011
H   H48       1.0  0.19166  0.00481  0.36872  1.0000 0.108815011
H   H49       1.0  0.25405  0.47219  0.28568  1.0000 0.0884805884
H   H50       1.0  0.74595  0.52781  0.71432  1.0000 0.0884805884
H   H51       1.0  0.24595  0.52781  0.78568  1.0000 0.0884805884
H   H52       1.0  0.75405  0.47219  0.21432  1.0000 0.0884805884
H   H53       1.0  0.27781  0.50405  0.53568  1.0000 0.0884805884
H   H54       1.0  0.72219  0.49595  0.46432  1.0000 0.0884805884
H   H55       1.0  0.22219  0.49595  0.03568  1.0000 0.0884805884
H   H56       1.0  0.77781  0.50405  0.96432  1.0000 0.0884805884
H   H57       1.0  0.75405  0.97219  0.78568  1.0000 0.0884805884
H   H58       1.0  0.24595  0.02781  0.21432  1.0000 0.0884805884
H   H59       1.0  0.74595  0.02781  0.28568  1.0000 0.0884805884
H   H60       1.0  0.25405  0.97219  0.71432  1.0000 0.0884805884
H   H61       1.0  0.77781  0.00405  0.03568  1.0000 0.0884805884
H   H62       1.0  0.22219  0.99595  0.96432  1.0000 0.0884805884
H   H63       1.0  0.72219  0.99595  0.53568  1.0000 0.0884805884
H   H64       1.0  0.27781  0.00405  0.46432  1.0000 0.0884805884
H   H65       1.0  0.08950  0.69494  0.36394  1.0000 0.1177378851
H   H66       1.0  0.91050  0.30506  0.63606  1.0000 0.1177378851
H   H67       1.0  0.41050  0.30506  0.86394  1.0000 0.1177378851
H   H68       1.0  0.58950  0.69494  0.13606  1.0000 0.1177378851
H   H69       1.0  0.05506  0.33950  0.61394  1.0000 0.1177378851
H   H70       1.0  0.94494  0.66050  0.38606  1.0000 0.1177378851
H   H71       1.0  0.44494  0.66050  0.11394  1.0000 0.1177378851
H   H72       1.0  0.55506  0.33950  0.88606  1.0000 0.1177378851
H   H73       1.0  0.58950  0.19494  0.86394  1.0000 0.1177378851
H   H74       1.0  0.41050  0.80506  0.13606  1.0000 0.1177378851
H   H75       1.0  0.91050  0.80506  0.36394  1.0000 0.1177378851
H   H76       1.0  0.08950  0.19494  0.63606  1.0000 0.1177378851
H   H77       1.0  0.55506  0.83950  0.11394  1.0000 0.1177378851
H   H78       1.0  0.44494  0.16050  0.88606  1.0000 0.1177378851
H   H79       1.0  0.94494  0.16050  0.61394  1.0000 0.1177378851
H   H80       1.0  0.05506  0.83950  0.38606  1.0000 0.1177378851
H   H81       1.0  0.10563  0.71058  0.46921  1.0000 0.1302857154
H   H82       1.0  0.89437  0.28942  0.53079  1.0000 0.1302857154
H   H83       1.0  0.39437  0.28942  0.96921  1.0000 0.1302857154
H   H84       1.0  0.60563  0.71058  0.03079  1.0000 0.1302857154
H   H85       1.0  0.03942  0.35563  0.71921  1.0000 0.1302857154
H   H86       1.0  0.96058  0.64437  0.28079  1.0000 0.1302857154
H   H87       1.0  0.46058  0.64437  0.21921  1.0000 0.1302857154
H   H88       1.0  0.53942  0.35563  0.78079  1.0000 0.1302857154
H   H89       1.0  0.60563  0.21058  0.96921  1.0000 0.1302857154
H   H90       1.0  0.39437  0.78942  0.03079  1.0000 0.1302857154
H   H91       1.0  0.89437  0.78942  0.46921  1.0000 0.1302857154
H   H92       1.0  0.10563  0.21058  0.53079  1.0000 0.1302857154
H   H93       1.0  0.53942  0.85563  0.21921  1.0000 0.1302857154
H   H94       1.0  0.46058  0.14437  0.78079  1.0000 0.1302857154
H   H95       1.0  0.96058  0.14437  0.71921  1.0000 0.1302857154
H   H96       1.0  0.03942  0.85563  0.28079  1.0000 0.1302857154
H   H97       1.0  0.06620  0.64271  0.44302  1.0000 0.1177378851
H   H98       1.0  0.93380  0.35729  0.55698  1.0000 0.1177378851
H   H99       1.0  0.43380  0.35729  0.94302  1.0000 0.1177378851
H   H100      1.0  0.56620  0.64271  0.05698  1.0000 0.1177378851
H   H101      1.0  0.10729  0.31620  0.69302  1.0000 0.1177378851
H   H102      1.0  0.89271  0.68380  0.30698  1.0000 0.1177378851
H   H103      1.0  0.39271  0.68380  0.19302  1.0000 0.1177378851
H   H104      1.0  0.60729  0.31620  0.80698  1.0000 0.1177378851
H   H105      1.0  0.56620  0.14271  0.94302  1.0000 0.1177378851
H   H106      1.0  0.43380  0.85729  0.05698  1.0000 0.1177378851
H   H107      1.0  0.93380  0.85729  0.44302  1.0000 0.1177378851
H   H108      1.0  0.06620  0.14271  0.55698  1.0000 0.1177378851
H   H109      1.0  0.60729  0.81620  0.19302  1.0000 0.1177378851
H   H110      1.0  0.39271  0.18380  0.80698  1.0000 0.1177378851
H   H111      1.0  0.89271  0.18380  0.69302  1.0000 0.1177378851
H   H112      1.0  0.10729  0.81620  0.30698  1.0000 0.1177378851
H   H113      1.0  0.14058  0.60841  0.54124  1.0000 0.1373979565
H   H114      1.0  0.85942  0.39159  0.45876  1.0000 0.1373979565
H   H115      1.0  0.35942  0.39159  0.04124  1.0000 0.1373979565
H   H116      1.0  0.64058  0.60841  0.95876  1.0000 0.1373979565
H   H117      1.0  0.14159  0.39058  0.79124  1.0000 0.1373979565
H   H118      1.0  0.85841  0.60942  0.20876  1.0000 0.1373979565
H   H119      1.0  0.35841  0.60942  0.29124  1.0000 0.1373979565
H   H120      1.0  0.64159  0.39058  0.70876  1.0000 0.1373979565
H   H121      1.0  0.64058  0.10841  0.04124  1.0000 0.1373979565
H   H122      1.0  0.35942  0.89159  0.95876  1.0000 0.1373979565
H   H123      1.0  0.85942  0.89159  0.54124  1.0000 0.1373979565
H   H124      1.0  0.14058  0.10841  0.45876  1.0000 0.1373979565
H   H125      1.0  0.64159  0.89058  0.29124  1.0000 0.1373979565
H   H126      1.0  0.35841  0.10942  0.70876  1.0000 0.1373979565
H   H127      1.0  0.85841  0.10942  0.79124  1.0000 0.1373979565
H   H128      1.0  0.14159  0.89058  0.20876  1.0000 0.1373979565
H   H129      1.0  0.20617  0.65544  0.53784  1.0000 0.1373979565
H   H130      1.0  0.79383  0.34456  0.46216  1.0000 0.1373979565
H   H131      1.0  0.29383  0.34456  0.03784  1.0000 0.1373979565
H   H132      1.0  0.70617  0.65544  0.96216  1.0000 0.1373979565
H   H133      1.0  0.09456  0.45617  0.78784  1.0000 0.1373979565
H   H134      1.0  0.90544  0.54383  0.21216  1.0000 0.1373979565
H   H135      1.0  0.40544  0.54383  0.28784  1.0000 0.1373979565
H   H136      1.0  0.59456  0.45617  0.71216  1.0000 0.1373979565
H   H137      1.0  0.70617  0.15544  0.03784  1.0000 0.1373979565
H   H138      1.0  0.29383  0.84456  0.96216  1.0000 0.1373979565
H   H139      1.0  0.79383  0.84456  0.53784  1.0000 0.1373979565
H   H140      1.0  0.20617  0.15544  0.46216  1.0000 0.1373979565
H   H141      1.0  0.59456  0.95617  0.28784  1.0000 0.1373979565
H   H142      1.0  0.40544  0.04383  0.71216  1.0000 0.1373979565
H   H143      1.0  0.90544  0.04383  0.78784  1.0000 0.1373979565
H   H144      1.0  0.09456  0.95617  0.21216  1.0000 0.1373979565
H   H145      1.0  0.21058  0.57823  0.50361  1.0000 0.108815011
H   H146      1.0  0.78942  0.42177  0.49639  1.0000 0.108815011
H   H147      1.0  0.28942  0.42177  0.00361  1.0000 0.108815011
H   H148      1.0  0.71058  0.57823  0.99639  1.0000 0.108815011
H   H149      1.0  0.17177  0.46058  0.75361  1.0000 0.108815011
H   H150      1.0  0.82823  0.53942  0.24639  1.0000 0.108815011
H   H151      1.0  0.32823  0.53942  0.25361  1.0000 0.108815011
H   H152      1.0  0.67177  0.46058  0.74639  1.0000 0.108815011
H   H153      1.0  0.71058  0.07823  0.00361  1.0000 0.108815011
H   H154      1.0  0.28942  0.92177  0.99639  1.0000 0.108815011
H   H155      1.0  0.78942  0.92177  0.50361  1.0000 0.108815011
H   H156      1.0  0.21058  0.07823  0.49639  1.0000 0.108815011
H   H157      1.0  0.67177  0.96058  0.25361  1.0000 0.108815011
H   H158      1.0  0.32823  0.03942  0.74639  1.0000 0.108815011
H   H159      1.0  0.82823  0.03942  0.75361  1.0000 0.108815011
H   H160      1.0  0.17177  0.96058  0.24639  1.0000 0.108815011
H   H161      1.0  0.26001  0.66802  0.39335  1.0000 0.1302857154
H   H162      1.0  0.73999  0.33198  0.60665  1.0000 0.1302857154
H   H163      1.0  0.23999  0.33198  0.89335  1.0000 0.1302857154
H   H164      1.0  0.76001  0.66802  0.10665  1.0000 0.1302857154
H   H165      1.0  0.08198  0.51001  0.64335  1.0000 0.1302857154
H   H166      1.0  0.91802  0.48999  0.35665  1.0000 0.1302857154
H   H167      1.0  0.41802  0.48999  0.14335  1.0000 0.1302857154
H   H168      1.0  0.58198  0.51001  0.85665  1.0000 0.1302857154
H   H169      1.0  0.76001  0.16802  0.89335  1.0000 0.1302857154
H   H170      1.0  0.23999  0.83198  0.10665  1.0000 0.1302857154
H   H171      1.0  0.73999  0.83198  0.39335  1.0000 0.1302857154
H   H172      1.0  0.26001  0.16802  0.60665  1.0000 0.1302857154
H   H173      1.0  0.58198  0.01001  0.14335  1.0000 0.1302857154
H   H174      1.0  0.41802  0.98999  0.85665  1.0000 0.1302857154
H   H175      1.0  0.91802  0.98999  0.64335  1.0000 0.1302857154
H   H176      1.0  0.08198  0.01001  0.35665  1.0000 0.1302857154
H   H177      1.0  0.21028  0.72898  0.41769  1.0000 0.1302857154
H   H178      1.0  0.78972  0.27102  0.58231  1.0000 0.1302857154
H   H179      1.0  0.28972  0.27102  0.91769  1.0000 0.1302857154
H   H180      1.0  0.71028  0.72898  0.08231  1.0000 0.1302857154
H   H181      1.0  0.02102  0.46028  0.66769  1.0000 0.1302857154
H   H182      1.0  0.97898  0.53972  0.33231  1.0000 0.1302857154
H   H183      1.0  0.47898  0.53972  0.16769  1.0000 0.1302857154
H   H184      1.0  0.52102  0.46028  0.83231  1.0000 0.1302857154
H   H185      1.0  0.71028  0.22898  0.91769  1.0000 0.1302857154
H   H186      1.0  0.28972  0.77102  0.08231  1.0000 0.1302857154
H   H187      1.0  0.78972  0.77102  0.41769  1.0000 0.1302857154
H   H188      1.0  0.21028  0.22898  0.58231  1.0000 0.1302857154
H   H189      1.0  0.52102  0.96028  0.16769  1.0000 0.1302857154
H   H190      1.0  0.47898  0.03972  0.83231  1.0000 0.1302857154
H   H191      1.0  0.97898  0.03972  0.66769  1.0000 0.1302857154
H   H192      1.0  0.02102  0.96028  0.33231  1.0000 0.1302857154
H   H193      1.0  0.20623  0.69434  0.31869  1.0000 0.1177378851
H   H194      1.0  0.79377  0.30566  0.68131  1.0000 0.1177378851
H   H195      1.0  0.29377  0.30566  0.81869  1.0000 0.1177378851
H   H196      1.0  0.70623  0.69434  0.18131  1.0000 0.1177378851
H   H197      1.0  0.05566  0.45623  0.56869  1.0000 0.1177378851
H   H198      1.0  0.94434  0.54377  0.43131  1.0000 0.1177378851
H   H199      1.0  0.44434  0.54377  0.06869  1.0000 0.1177378851
H   H200      1.0  0.55566  0.45623  0.93131  1.0000 0.1177378851
H   H201      1.0  0.70623  0.19434  0.81869  1.0000 0.1177378851
H   H202      1.0  0.29377  0.80566  0.18131  1.0000 0.1177378851
H   H203      1.0  0.79377  0.80566  0.31869  1.0000 0.1177378851
H   H204      1.0  0.20623  0.19434  0.68131  1.0000 0.1177378851
H   H205      1.0  0.55566  0.95623  0.06869  1.0000 0.1177378851
H   H206      1.0  0.44434  0.04377  0.93131  1.0000 0.1177378851
H   H207      1.0  0.94434  0.04377  0.56869  1.0000 0.1177378851
H   H208      1.0  0.05566  0.95623  0.43131  1.0000 0.1177378851
C   C1        1.0  0.11268  0.37170  0.99077  1.0000 0.5384582919
C   C2        1.0  0.88732  0.62830  0.00923  1.0000 0.5384582919
C   C3        1.0  0.38732  0.62830  0.49077  1.0000 0.5384582919
C   C4        1.0  0.61268  0.37170  0.50923  1.0000 0.5384582919
C   C5        1.0  0.37830  0.36268  0.24077  1.0000 0.5384582919
C   C6        1.0  0.62170  0.63732  0.75923  1.0000 0.5384582919
C   C7        1.0  0.12170  0.63732  0.74077  1.0000 0.5384582919
C   C8        1.0  0.87830  0.36268  0.25923  1.0000 0.5384582919
C   C9        1.0  0.61268  0.87170  0.49077  1.0000 0.5384582919
C   C10       1.0  0.38732  0.12830  0.50923  1.0000 0.5384582919
C   C11       1.0  0.88732  0.12830  0.99077  1.0000 0.5384582919
C   C12       1.0  0.11268  0.87170  0.00923  1.0000 0.5384582919
C   C13       1.0  0.87830  0.86268  0.74077  1.0000 0.5384582919
C   C14       1.0  0.12170  0.13732  0.25923  1.0000 0.5384582919
C   C15       1.0  0.62170  0.13732  0.24077  1.0000 0.5384582919
C   C16       1.0  0.37830  0.86268  0.75923  1.0000 0.5384582919
C   C17       1.0  0.18905  0.28215  0.11730  1.0000 0.5717788231
C   C18       1.0  0.81095  0.71785  0.88270  1.0000 0.5717788231
C   C19       1.0  0.31095  0.71785  0.61730  1.0000 0.5717788231
C   C20       1.0  0.68905  0.28215  0.38270  1.0000 0.5717788231
C   C21       1.0  0.46785  0.43905  0.36730  1.0000 0.5717788231
C   C22       1.0  0.53215  0.56095  0.63270  1.0000 0.5717788231
C   C23       1.0  0.03215  0.56095  0.86730  1.0000 0.5717788231
C   C24       1.0  0.96785  0.43905  0.13270  1.0000 0.5717788231
C   C25       1.0  0.68905  0.78215  0.61730  1.0000 0.5717788231
C   C26       1.0  0.31095  0.21785  0.38270  1.0000 0.5717788231
C   C27       1.0  0.81095  0.21785  0.11730  1.0000 0.5717788231
C   C28       1.0  0.18905  0.78215  0.88270  1.0000 0.5717788231
C   C29       1.0  0.96785  0.93905  0.86730  1.0000 0.5717788231
C   C30       1.0  0.03215  0.06095  0.13270  1.0000 0.5717788231
C   C31       1.0  0.53215  0.06095  0.36730  1.0000 0.5717788231
C   C32       1.0  0.46785  0.93905  0.63270  1.0000 0.5717788231
C   C33       1.0  0.13623  0.38353  0.07500  1.0000 0.0546445324
C   C34       1.0  0.86377  0.61647  0.92500  1.0000 0.0546445324
C   C35       1.0  0.36377  0.61647  0.57500  1.0000 0.0546445324
C   C36       1.0  0.63623  0.38353  0.42500  1.0000 0.0546445324
C   C37       1.0  0.36647  0.38623  0.32500  1.0000 0.0546445324
C   C38       1.0  0.63353  0.61377  0.67500  1.0000 0.0546445324
C   C39       1.0  0.13353  0.61377  0.82500  1.0000 0.0546445324
C   C40       1.0  0.86647  0.38623  0.17500  1.0000 0.0546445324
C   C41       1.0  0.63623  0.88353  0.57500  1.0000 0.0546445324
C   C42       1.0  0.36377  0.11647  0.42500  1.0000 0.0546445324
C   C43       1.0  0.86377  0.11647  0.07500  1.0000 0.0546445324
C   C44       1.0  0.13623  0.88353  0.92500  1.0000 0.0546445324
C   C45       1.0  0.86647  0.88623  0.82500  1.0000 0.0546445324
C   C46       1.0  0.13353  0.11377  0.17500  1.0000 0.0546445324
C   C47       1.0  0.63353  0.11377  0.32500  1.0000 0.0546445324
C   C48       1.0  0.36647  0.88623  0.67500  1.0000 0.0546445324
C   C49       1.0  0.16843  0.34587  0.12860  1.0000 0.0397313655
C   C50       1.0  0.83157  0.65413  0.87140  1.0000 0.0397313655
C   C51       1.0  0.33157  0.65413  0.62860  1.0000 0.0397313655
C   C52       1.0  0.66843  0.34587  0.37140  1.0000 0.0397313655
C   C53       1.0  0.40413  0.41843  0.37860  1.0000 0.0397313655
C   C54       1.0  0.59587  0.58157  0.62140  1.0000 0.0397313655
C   C55       1.0  0.09587  0.58157  0.87860  1.0000 0.0397313655
C   C56       1.0  0.90413  0.41843  0.12140  1.0000 0.0397313655
C   C57       1.0  0.66843  0.84587  0.62860  1.0000 0.0397313655
C   C58       1.0  0.33157  0.15413  0.37140  1.0000 0.0397313655
C   C59       1.0  0.83157  0.15413  0.12860  1.0000 0.0397313655
C   C60       1.0  0.16843  0.84587  0.87140  1.0000 0.0397313655
C   C61       1.0  0.90413  0.91843  0.87860  1.0000 0.0397313655
C   C62       1.0  0.09587  0.08157  0.12140  1.0000 0.0397313655
C   C63       1.0  0.59587  0.08157  0.37860  1.0000 0.0397313655
C   C64       1.0  0.40413  0.91843  0.62140  1.0000 0.0397313655
C   C65       1.0  0.15786  0.43578  0.18667  1.0000 0.3495959773
C   C66       1.0  0.84214  0.56422  0.81333  1.0000 0.3495959773
C   C67       1.0  0.34214  0.56422  0.68667  1.0000 0.3495959773
C   C68       1.0  0.65786  0.43578  0.31333  1.0000 0.3495959773
C   C69       1.0  0.31422  0.40786  0.43667  1.0000 0.3495959773
C   C70       1.0  0.68578  0.59214  0.56333  1.0000 0.3495959773
C   C71       1.0  0.18578  0.59214  0.93667  1.0000 0.3495959773
C   C72       1.0  0.81422  0.40786  0.06333  1.0000 0.3495959773
C   C73       1.0  0.65786  0.93578  0.68667  1.0000 0.3495959773
C   C74       1.0  0.34214  0.06422  0.31333  1.0000 0.3495959773
C   C75       1.0  0.84214  0.06422  0.18667  1.0000 0.3495959773
C   C76       1.0  0.15786  0.93578  0.81333  1.0000 0.3495959773
C   C77       1.0  0.81422  0.90786  0.93667  1.0000 0.3495959773
C   C78       1.0  0.18578  0.09214  0.06333  1.0000 0.3495959773
C   C79       1.0  0.68578  0.09214  0.43667  1.0000 0.3495959773
C   C80       1.0  0.31422  0.90786  0.56333  1.0000 0.3495959773
C   C81       1.0  0.16012  0.48622  0.24521  1.0000 0.0137630038
C   C82       1.0  0.83988  0.51378  0.75479  1.0000 0.0137630038
C   C83       1.0  0.33988  0.51378  0.74521  1.0000 0.0137630038
C   C84       1.0  0.66012  0.48622  0.25479  1.0000 0.0137630038
C   C85       1.0  0.26378  0.41012  0.49521  1.0000 0.0137630038
C   C86       1.0  0.73622  0.58988  0.50479  1.0000 0.0137630038
C   C87       1.0  0.23622  0.58988  0.99521  1.0000 0.0137630038
C   C88       1.0  0.76378  0.41012  0.00479  1.0000 0.0137630038
C   C89       1.0  0.66012  0.98622  0.74521  1.0000 0.0137630038
C   C90       1.0  0.33988  0.01378  0.25479  1.0000 0.0137630038
C   C91       1.0  0.83988  0.01378  0.24521  1.0000 0.0137630038
C   C92       1.0  0.16012  0.98622  0.75479  1.0000 0.0137630038
C   C93       1.0  0.76378  0.91012  0.99521  1.0000 0.0137630038
C   C94       1.0  0.23622  0.08988  0.00479  1.0000 0.0137630038
C   C95       1.0  0.73622  0.08988  0.49521  1.0000 0.0137630038
C   C96       1.0  0.26378  0.91012  0.50479  1.0000 0.0137630038
C   C97       1.0  0.10856  0.52419  0.25518  1.0000 -0.0920324881
C   C98       1.0  0.89144  0.47581  0.74482  1.0000 -0.0920324881
C   C99       1.0  0.39144  0.47581  0.75518  1.0000 -0.0920324881
C   C100      1.0  0.60856  0.52419  0.24482  1.0000 -0.0920324881
C   C101      1.0  0.22581  0.35856  0.50518  1.0000 -0.0920324881
C   C102      1.0  0.77419  0.64144  0.49482  1.0000 -0.0920324881
C   C103      1.0  0.27419  0.64144  0.00518  1.0000 -0.0920324881
C   C104      1.0  0.72581  0.35856  0.99482  1.0000 -0.0920324881
C   C105      1.0  0.60856  0.02419  0.75518  1.0000 -0.0920324881
C   C106      1.0  0.39144  0.97581  0.24482  1.0000 -0.0920324881
C   C107      1.0  0.89144  0.97581  0.25518  1.0000 -0.0920324881
C   C108      1.0  0.10856  0.02419  0.74482  1.0000 -0.0920324881
C   C109      1.0  0.72581  0.85856  0.00518  1.0000 -0.0920324881
C   C110      1.0  0.27419  0.14144  0.99482  1.0000 -0.0920324881
C   C111      1.0  0.77419  0.14144  0.50518  1.0000 -0.0920324881
C   C112      1.0  0.22581  0.85856  0.49482  1.0000 -0.0920324881
C   C113      1.0  0.10924  0.57261  0.31058  1.0000 -0.1287659515
C   C114      1.0  0.89076  0.42739  0.68942  1.0000 -0.1287659515
C   C115      1.0  0.39076  0.42739  0.81058  1.0000 -0.1287659515
C   C116      1.0  0.60924  0.57261  0.18942  1.0000 -0.1287659515
C   C117      1.0  0.17739  0.35924  0.56058  1.0000 -0.1287659515
C   C118      1.0  0.82261  0.64076  0.43942  1.0000 -0.1287659515
C   C119      1.0  0.32261  0.64076  0.06058  1.0000 -0.1287659515
C   C120      1.0  0.67739  0.35924  0.93942  1.0000 -0.1287659515
C   C121      1.0  0.60924  0.07261  0.81058  1.0000 -0.1287659515
C   C122      1.0  0.39076  0.92739  0.18942  1.0000 -0.1287659515
C   C123      1.0  0.89076  0.92739  0.31058  1.0000 -0.1287659515
C   C124      1.0  0.10924  0.07261  0.68942  1.0000 -0.1287659515
C   C125      1.0  0.67739  0.85924  0.06058  1.0000 -0.1287659515
C   C126      1.0  0.32261  0.14076  0.93942  1.0000 -0.1287659515
C   C127      1.0  0.82261  0.14076  0.56058  1.0000 -0.1287659515
C   C128      1.0  0.17739  0.85924  0.43942  1.0000 -0.1287659515
C   C129      1.0  0.16112  0.58615  0.35839  1.0000 0.0827802931
C   C130      1.0  0.83888  0.41385  0.64161  1.0000 0.0827802931
C   C131      1.0  0.33888  0.41385  0.85839  1.0000 0.0827802931
C   C132      1.0  0.66112  0.58615  0.14161  1.0000 0.0827802931
C   C133      1.0  0.16385  0.41112  0.60839  1.0000 0.0827802931
C   C134      1.0  0.83615  0.58888  0.39161  1.0000 0.0827802931
C   C135      1.0  0.33615  0.58888  0.10839  1.0000 0.0827802931
C   C136      1.0  0.66385  0.41112  0.89161  1.0000 0.0827802931
C   C137      1.0  0.66112  0.08615  0.85839  1.0000 0.0827802931
C   C138      1.0  0.33888  0.91385  0.14161  1.0000 0.0827802931
C   C139      1.0  0.83888  0.91385  0.35839  1.0000 0.0827802931
C   C140      1.0  0.16112  0.08615  0.64161  1.0000 0.0827802931
C   C141      1.0  0.66385  0.91112  0.10839  1.0000 0.0827802931
C   C142      1.0  0.33615  0.08888  0.89161  1.0000 0.0827802931
C   C143      1.0  0.83615  0.08888  0.60839  1.0000 0.0827802931
C   C144      1.0  0.16385  0.91112  0.39161  1.0000 0.0827802931
C   C145      1.0  0.21275  0.54824  0.34742  1.0000 -0.1101360373
C   C146      1.0  0.78725  0.45176  0.65258  1.0000 -0.1101360373
C   C147      1.0  0.28725  0.45176  0.84742  1.0000 -0.1101360373
C   C148      1.0  0.71275  0.54824  0.15258  1.0000 -0.1101360373
C   C149      1.0  0.20176  0.46275  0.59742  1.0000 -0.1101360373
C   C150      1.0  0.79824  0.53725  0.40258  1.0000 -0.1101360373
C   C151      1.0  0.29824  0.53725  0.09742  1.0000 -0.1101360373
C   C152      1.0  0.70176  0.46275  0.90258  1.0000 -0.1101360373
C   C153      1.0  0.71275  0.04824  0.84742  1.0000 -0.1101360373
C   C154      1.0  0.28725  0.95176  0.15258  1.0000 -0.1101360373
C   C155      1.0  0.78725  0.95176  0.34742  1.0000 -0.1101360373
C   C156      1.0  0.21275  0.04824  0.65258  1.0000 -0.1101360373
C   C157      1.0  0.70176  0.96275  0.09742  1.0000 -0.1101360373
C   C158      1.0  0.29824  0.03725  0.90258  1.0000 -0.1101360373
C   C159      1.0  0.79824  0.03725  0.59742  1.0000 -0.1101360373
C   C160      1.0  0.20176  0.96275  0.40258  1.0000 -0.1101360373
C   C161      1.0  0.21249  0.49931  0.29298  1.0000 -0.0979744527
C   C162      1.0  0.78751  0.50069  0.70702  1.0000 -0.0979744527
C   C163      1.0  0.28751  0.50069  0.79298  1.0000 -0.0979744527
C   C164      1.0  0.71249  0.49931  0.20702  1.0000 -0.0979744527
C   C165      1.0  0.25069  0.46249  0.54298  1.0000 -0.0979744527
C   C166      1.0  0.74931  0.53751  0.45702  1.0000 -0.0979744527
C   C167      1.0  0.24931  0.53751  0.04298  1.0000 -0.0979744527
C   C168      1.0  0.75069  0.46249  0.95702  1.0000 -0.0979744527
C   C169      1.0  0.71249  0.99931  0.79298  1.0000 -0.0979744527
C   C170      1.0  0.28751  0.00069  0.20702  1.0000 -0.0979744527
C   C171      1.0  0.78751  0.00069  0.29298  1.0000 -0.0979744527
C   C172      1.0  0.21249  0.99931  0.70702  1.0000 -0.0979744527
C   C173      1.0  0.75069  0.96249  0.04298  1.0000 -0.0979744527
C   C174      1.0  0.24931  0.03751  0.95702  1.0000 -0.0979744527
C   C175      1.0  0.74931  0.03751  0.54298  1.0000 -0.0979744527
C   C176      1.0  0.25069  0.96249  0.45702  1.0000 -0.0979744527
C   C177      1.0  0.16413  0.64040  0.41725  1.0000 0.2336671915
C   C178      1.0  0.83587  0.35960  0.58275  1.0000 0.2336671915
C   C179      1.0  0.33587  0.35960  0.91725  1.0000 0.2336671915
C   C180      1.0  0.66413  0.64040  0.08275  1.0000 0.2336671915
C   C181      1.0  0.10960  0.41413  0.66725  1.0000 0.2336671915
C   C182      1.0  0.89040  0.58587  0.33275  1.0000 0.2336671915
C   C183      1.0  0.39040  0.58587  0.16725  1.0000 0.2336671915
C   C184      1.0  0.60960  0.41413  0.83275  1.0000 0.2336671915
C   C185      1.0  0.66413  0.14040  0.91725  1.0000 0.2336671915
C   C186      1.0  0.33587  0.85960  0.08275  1.0000 0.2336671915
C   C187      1.0  0.83587  0.85960  0.41725  1.0000 0.2336671915
C   C188      1.0  0.16413  0.14040  0.58275  1.0000 0.2336671915
C   C189      1.0  0.60960  0.91413  0.16725  1.0000 0.2336671915
C   C190      1.0  0.39040  0.08587  0.83275  1.0000 0.2336671915
C   C191      1.0  0.89040  0.08587  0.66725  1.0000 0.2336671915
C   C192      1.0  0.10960  0.91413  0.33275  1.0000 0.2336671915
C   C193      1.0  0.10284  0.67394  0.42284  1.0000 -0.3979229565
C   C194      1.0  0.89716  0.32606  0.57716  1.0000 -0.3979229565
C   C195      1.0  0.39716  0.32606  0.92284  1.0000 -0.3979229565
C   C196      1.0  0.60284  0.67394  0.07716  1.0000 -0.3979229565
C   C197      1.0  0.07606  0.35284  0.67284  1.0000 -0.3979229565
C   C198      1.0  0.92394  0.64716  0.32716  1.0000 -0.3979229565
C   C199      1.0  0.42394  0.64716  0.17284  1.0000 -0.3979229565
C   C200      1.0  0.57606  0.35284  0.82716  1.0000 -0.3979229565
C   C201      1.0  0.60284  0.17394  0.92284  1.0000 -0.3979229565
C   C202      1.0  0.39716  0.82606  0.07716  1.0000 -0.3979229565
C   C203      1.0  0.89716  0.82606  0.42284  1.0000 -0.3979229565
C   C204      1.0  0.10284  0.17394  0.57716  1.0000 -0.3979229565
C   C205      1.0  0.57606  0.85284  0.17284  1.0000 -0.3979229565
C   C206      1.0  0.42394  0.14716  0.82716  1.0000 -0.3979229565
C   C207      1.0  0.92394  0.14716  0.67284  1.0000 -0.3979229565
C   C208      1.0  0.07606  0.85284  0.32716  1.0000 -0.3979229565
C   C209      1.0  0.18150  0.61921  0.50458  1.0000 -0.3979229565
C   C210      1.0  0.81850  0.38079  0.49542  1.0000 -0.3979229565
C   C211      1.0  0.31850  0.38079  0.00458  1.0000 -0.3979229565
C   C212      1.0  0.68150  0.61921  0.99542  1.0000 -0.3979229565
C   C213      1.0  0.13079  0.43150  0.75458  1.0000 -0.3979229565
C   C214      1.0  0.86921  0.56850  0.24542  1.0000 -0.3979229565
C   C215      1.0  0.36921  0.56850  0.25458  1.0000 -0.3979229565
C   C216      1.0  0.63079  0.43150  0.74542  1.0000 -0.3979229565
C   C217      1.0  0.68150  0.11921  0.00458  1.0000 -0.3979229565
C   C218      1.0  0.31850  0.88079  0.99542  1.0000 -0.3979229565
C   C219      1.0  0.81850  0.88079  0.50458  1.0000 -0.3979229565
C   C220      1.0  0.18150  0.11921  0.49542  1.0000 -0.3979229565
C   C221      1.0  0.63079  0.93150  0.25458  1.0000 -0.3979229565
C   C222      1.0  0.36921  0.06850  0.74542  1.0000 -0.3979229565
C   C223      1.0  0.86921  0.06850  0.75458  1.0000 -0.3979229565
C   C224      1.0  0.13079  0.93150  0.24542  1.0000 -0.3979229565
C   C225      1.0  0.21307  0.68511  0.38459  1.0000 -0.3979229565
C   C226      1.0  0.78693  0.31489  0.61541  1.0000 -0.3979229565
C   C227      1.0  0.28693  0.31489  0.88459  1.0000 -0.3979229565
C   C228      1.0  0.71307  0.68511  0.11541  1.0000 -0.3979229565
C   C229      1.0  0.06489  0.46307  0.63459  1.0000 -0.3979229565
C   C230      1.0  0.93511  0.53693  0.36541  1.0000 -0.3979229565
C   C231      1.0  0.43511  0.53693  0.13459  1.0000 -0.3979229565
C   C232      1.0  0.56489  0.46307  0.86541  1.0000 -0.3979229565
C   C233      1.0  0.71307  0.18511  0.88459  1.0000 -0.3979229565
C   C234      1.0  0.28693  0.81489  0.11541  1.0000 -0.3979229565
C   C235      1.0  0.78693  0.81489  0.38459  1.0000 -0.3979229565
C   C236      1.0  0.21307  0.18511  0.61541  1.0000 -0.3979229565
C   C237      1.0  0.56489  0.96307  0.13459  1.0000 -0.3979229565
C   C238      1.0  0.43511  0.03693  0.86541  1.0000 -0.3979229565
C   C239      1.0  0.93511  0.03693  0.63459  1.0000 -0.3979229565
C   C240      1.0  0.06489  0.96307  0.36541  1.0000 -0.3979229565
N   N1        1.0  0.12945  0.43943  0.11196  1.0000 -0.3979229565
N   N2        1.0  0.87055  0.56057  0.88804  1.0000 -0.3979229565
N   N3        1.0  0.37055  0.56057  0.61196  1.0000 -0.3979229565
N   N4        1.0  0.62945  0.43943  0.38804  1.0000 -0.3979229565
N   N5        1.0  0.31057  0.37945  0.36196  1.0000 -0.3979229565
N   N6        1.0  0.68943  0.62055  0.63804  1.0000 -0.3979229565
N   N7        1.0  0.18943  0.62055  0.86196  1.0000 -0.3979229565
N   N8        1.0  0.81057  0.37945  0.13804  1.0000 -0.3979229565
N   N9        1.0  0.62945  0.93943  0.61196  1.0000 -0.3979229565
N   N10       1.0  0.37055  0.06057  0.38804  1.0000 -0.3979229565
N   N11       1.0  0.87055  0.06057  0.11196  1.0000 -0.3979229565
N   N12       1.0  0.12945  0.93943  0.88804  1.0000 -0.3979229565
N   N13       1.0  0.81057  0.87945  0.86196  1.0000 -0.3979229565
N   N14       1.0  0.18943  0.12055  0.13804  1.0000 -0.3979229565
N   N15       1.0  0.68943  0.12055  0.36196  1.0000 -0.3979229565
N   N16       1.0  0.31057  0.87945  0.63804  1.0000 -0.3979229565
N   N17       1.0  0.18231  0.37882  0.19806  1.0000 -0.3889943265
N   N18       1.0  0.81769  0.62118  0.80194  1.0000 -0.3889943265
N   N19       1.0  0.31769  0.62118  0.69806  1.0000 -0.3889943265
N   N20       1.0  0.68231  0.37882  0.30194  1.0000 -0.3889943265
N   N21       1.0  0.37118  0.43231  0.44806  1.0000 -0.3889943265
N   N22       1.0  0.62882  0.56769  0.55194  1.0000 -0.3889943265
N   N23       1.0  0.12882  0.56769  0.94806  1.0000 -0.3889943265
N   N24       1.0  0.87118  0.43231  0.05194  1.0000 -0.3889943265
N   N25       1.0  0.68231  0.87882  0.69806  1.0000 -0.3889943265
N   N26       1.0  0.31769  0.12118  0.30194  1.0000 -0.3889943265
N   N27       1.0  0.81769  0.12118  0.19806  1.0000 -0.3889943265
N   N28       1.0  0.18231  0.87882  0.80194  1.0000 -0.3889943265
N   N29       1.0  0.87118  0.93231  0.94806  1.0000 -0.3889943265
N   N30       1.0  0.12882  0.06769  0.05194  1.0000 -0.3889943265
N   N31       1.0  0.62882  0.06769  0.44806  1.0000 -0.3889943265
N   N32       1.0  0.37118  0.93231  0.55194  1.0000 -0.3889943265
O   O1        1.0  0.08818  0.41626  0.95153  1.0000 -0.5514821295
O   O2        1.0  0.91182  0.58374  0.04847  1.0000 -0.5514821295
O   O3        1.0  0.41182  0.58374  0.45153  1.0000 -0.5514821295
O   O4        1.0  0.58818  0.41626  0.54847  1.0000 -0.5514821295
O   O5        1.0  0.33374  0.33818  0.20153  1.0000 -0.5514821295
O   O6        1.0  0.66626  0.66182  0.79847  1.0000 -0.5514821295
O   O7        1.0  0.16626  0.66182  0.70153  1.0000 -0.5514821295
O   O8        1.0  0.83374  0.33818  0.29847  1.0000 -0.5514821295
O   O9        1.0  0.58818  0.91626  0.45153  1.0000 -0.5514821295
O   O10       1.0  0.41182  0.08374  0.54847  1.0000 -0.5514821295
O   O11       1.0  0.91182  0.08374  0.95153  1.0000 -0.5514821295
O   O12       1.0  0.08818  0.91626  0.04847  1.0000 -0.5514821295
O   O13       1.0  0.83374  0.83818  0.70153  1.0000 -0.5514821295
O   O14       1.0  0.16626  0.16182  0.29847  1.0000 -0.5514821295
O   O15       1.0  0.66626  0.16182  0.20153  1.0000 -0.5514821295
O   O16       1.0  0.33374  0.83818  0.79847  1.0000 -0.5514821295
O   O17       1.0  0.11761  0.31912  0.95956  1.0000 -0.407767126
O   O18       1.0  0.88239  0.68088  0.04044  1.0000 -0.407767126
O   O19       1.0  0.38239  0.68088  0.45956  1.0000 -0.407767126
O   O20       1.0  0.61761  0.31912  0.54044  1.0000 -0.407767126
O   O21       1.0  0.43088  0.36761  0.20956  1.0000 -0.407767126
O   O22       1.0  0.56912  0.63239  0.79044  1.0000 -0.407767126
O   O23       1.0  0.06912  0.63239  0.70956  1.0000 -0.407767126
O   O24       1.0  0.93088  0.36761  0.29044  1.0000 -0.407767126
O   O25       1.0  0.61761  0.81912  0.45956  1.0000 -0.407767126
O   O26       1.0  0.38239  0.18088  0.54044  1.0000 -0.407767126
O   O27       1.0  0.88239  0.18088  0.95956  1.0000 -0.407767126
O   O28       1.0  0.11761  0.81912  0.04044  1.0000 -0.407767126
O   O29       1.0  0.93088  0.86761  0.70956  1.0000 -0.407767126
O   O30       1.0  0.06912  0.13239  0.29044  1.0000 -0.407767126
O   O31       1.0  0.56912  0.13239  0.20956  1.0000 -0.407767126
O   O32       1.0  0.43088  0.86761  0.79044  1.0000 -0.407767126
O   O33       1.0  0.17744  0.25257  0.05369  1.0000 -0.4204235185
O   O34       1.0  0.82256  0.74743  0.94631  1.0000 -0.4204235185
O   O35       1.0  0.32256  0.74743  0.55369  1.0000 -0.4204235185
O   O36       1.0  0.67744  0.25257  0.44631  1.0000 -0.4204235185
O   O37       1.0  0.49743  0.42744  0.30369  1.0000 -0.4204235185
O   O38       1.0  0.50257  0.57256  0.69631  1.0000 -0.4204235185
O   O39       1.0  0.00257  0.57256  0.80369  1.0000 -0.4204235185
O   O40       1.0  0.99743  0.42744  0.19631  1.0000 -0.4204235185
O   O41       1.0  0.67744  0.75257  0.55369  1.0000 -0.4204235185
O   O42       1.0  0.32256  0.24743  0.44631  1.0000 -0.4204235185
O   O43       1.0  0.82256  0.24743  0.05369  1.0000 -0.4204235185
O   O44       1.0  0.17744  0.75257  0.94631  1.0000 -0.4204235185
O   O45       1.0  0.99743  0.92744  0.80369  1.0000 -0.4204235185
O   O46       1.0  0.00257  0.07256  0.19631  1.0000 -0.4204235185
O   O47       1.0  0.50257  0.07256  0.30369  1.0000 -0.4204235185
O   O48       1.0  0.49743  0.92744  0.69631  1.0000 -0.4204235185
O   O49       1.0  0.22123  0.26084  0.17826  1.0000 -0.5630765516
O   O50       1.0  0.77877  0.73916  0.82174  1.0000 -0.5630765516
O   O51       1.0  0.27877  0.73916  0.67826  1.0000 -0.5630765516
O   O52       1.0  0.72123  0.26084  0.32174  1.0000 -0.5630765516
O   O53       1.0  0.48916  0.47123  0.42826  1.0000 -0.5630765516
O   O54       1.0  0.51084  0.52877  0.57174  1.0000 -0.5630765516
O   O55       1.0  0.01084  0.52877  0.92826  1.0000 -0.5630765516
O   O56       1.0  0.98916  0.47123  0.07174  1.0000 -0.5630765516
O   O57       1.0  0.72123  0.76084  0.67826  1.0000 -0.5630765516
O   O58       1.0  0.27877  0.23916  0.32174  1.0000 -0.5630765516
O   O59       1.0  0.77877  0.23916  0.17826  1.0000 -0.5630765516
O   O60       1.0  0.22123  0.76084  0.82174  1.0000 -0.5630765516
O   O61       1.0  0.98916  0.97123  0.92826  1.0000 -0.5630765516
O   O62       1.0  0.01084  0.02877  0.07174  1.0000 -0.5630765516
O   O63       1.0  0.51084  0.02877  0.42826  1.0000 -0.5630765516
O   O64       1.0  0.48916  0.97123  0.57174  1.0000 -0.5630765516
