# DDEC6 charges by PACMAN v1.1 (https://github.com/mtap-research/PACMAN-charge/)
data_2013[Co][the]3[ASR]1
_chemical_formula_sum              "Co18 H120 C216 O72"
_cell_length_a       23.5988
_cell_length_b       23.5988
_cell_length_c       23.5988
_cell_angle_alpha    109.471
_cell_angle_beta     109.471
_cell_angle_gamma    109.471

_symmetry_space_group_name_H-M    "P 1"
_symmetry_Int_Tables_number       1

loop_
  _symmetry_equiv_pos_as_xyz
  'x, y, z'

loop_
  _atom_site_type_symbol
  _atom_site_label
  _atom_site_symmetry_multiplicity
  _atom_site_fract_x
  _atom_site_fract_y
  _atom_site_fract_z
  _atom_site_occupancy
  _atom_site_charge
Co  Co1       1.0  0.11015  0.55463  0.55552  1.0000 1.1363965758
Co  Co2       1.0  0.99911  0.55463  0.44448  1.0000 1.1363965758
Co  Co3       1.0  0.00089  0.44537  0.55552  1.0000 1.1363965758
Co  Co4       1.0  0.88985  0.44537  0.44448  1.0000 1.1349117699
Co  Co5       1.0  0.55552  0.11015  0.55463  1.0000 1.1363965758
Co  Co6       1.0  0.44448  0.99911  0.55463  1.0000 1.1363965758
Co  Co7       1.0  0.55552  0.00089  0.44537  1.0000 1.1363965758
Co  Co8       1.0  0.44448  0.88985  0.44537  1.0000 1.1363965758
Co  Co9       1.0  0.55463  0.55552  0.11015  1.0000 1.1363965758
Co  Co10      1.0  0.55463  0.44448  0.99911  1.0000 1.1363965758
Co  Co11      1.0  0.44537  0.55552  0.00089  1.0000 1.1363965758
Co  Co12      1.0  0.44537  0.44448  0.88985  1.0000 1.1363965758
Co  Co13      1.0  0.16840  0.50000  0.66840  1.0000 1.0970443908
Co  Co14      1.0  0.83160  0.50000  0.33160  1.0000 1.0970443908
Co  Co15      1.0  0.66840  0.16840  0.50000  1.0000 1.0970443908
Co  Co16      1.0  0.33160  0.83160  0.50000  1.0000 1.0947200003
Co  Co17      1.0  0.50000  0.66840  0.16840  1.0000 1.0970443908
Co  Co18      1.0  0.50000  0.33160  0.83160  1.0000 1.0970443908
H   H1        1.0  0.21670  0.49350  0.44680  1.0000 0.1297347232
H   H2        1.0  0.04670  0.76990  0.55320  1.0000 0.1297347232
H   H3        1.0  0.95330  0.50650  0.72320  1.0000 0.1297347232
H   H4        1.0  0.78330  0.23010  0.27680  1.0000 0.1297347232
H   H5        1.0  0.44680  0.21670  0.49350  1.0000 0.1297347232
H   H6        1.0  0.55320  0.04670  0.76990  1.0000 0.1297347232
H   H7        1.0  0.72320  0.95330  0.50650  1.0000 0.1297347232
H   H8        1.0  0.27680  0.78330  0.23010  1.0000 0.1297347232
H   H9        1.0  0.49350  0.44680  0.21670  1.0000 0.1297347232
H   H10       1.0  0.76990  0.55320  0.04670  1.0000 0.1297347232
H   H11       1.0  0.50650  0.72320  0.95330  1.0000 0.1297347232
H   H12       1.0  0.23010  0.27680  0.78330  1.0000 0.1297347232
H   H13       1.0  0.78330  0.50650  0.55320  1.0000 0.1297347232
H   H14       1.0  0.95330  0.23010  0.44680  1.0000 0.1297347232
H   H15       1.0  0.04670  0.49350  0.27680  1.0000 0.1297347232
H   H16       1.0  0.21670  0.76990  0.72320  1.0000 0.1297347232
H   H17       1.0  0.55320  0.78330  0.50650  1.0000 0.1297347232
H   H18       1.0  0.44680  0.95330  0.23010  1.0000 0.1297347232
H   H19       1.0  0.27680  0.04670  0.49350  1.0000 0.1297347232
H   H20       1.0  0.72320  0.21670  0.76990  1.0000 0.1297347232
H   H21       1.0  0.50650  0.55320  0.78330  1.0000 0.1297347232
H   H22       1.0  0.23010  0.44680  0.95330  1.0000 0.1297347232
H   H23       1.0  0.49350  0.27680  0.04670  1.0000 0.1297347232
H   H24       1.0  0.76990  0.72320  0.21670  1.0000 0.1297347232
H   H25       1.0  0.27473  0.45703  0.39850  1.0000 0.1297347232
H   H26       1.0  0.05853  0.87623  0.60150  1.0000 0.1297347232
H   H27       1.0  0.94147  0.54297  0.81770  1.0000 0.1297347232
H   H28       1.0  0.72527  0.12377  0.18230  1.0000 0.1297347232
H   H29       1.0  0.39850  0.27473  0.45703  1.0000 0.1297347232
H   H30       1.0  0.60150  0.05853  0.87623  1.0000 0.1297347232
H   H31       1.0  0.81770  0.94147  0.54297  1.0000 0.1297347232
H   H32       1.0  0.18230  0.72527  0.12377  1.0000 0.1297347232
H   H33       1.0  0.45703  0.39850  0.27473  1.0000 0.1297347232
H   H34       1.0  0.87623  0.60150  0.05853  1.0000 0.1297347232
H   H35       1.0  0.54297  0.81770  0.94147  1.0000 0.1297347232
H   H36       1.0  0.12377  0.18230  0.72527  1.0000 0.1297347232
H   H37       1.0  0.72527  0.54297  0.60150  1.0000 0.1297347232
H   H38       1.0  0.94147  0.12377  0.39850  1.0000 0.1297347232
H   H39       1.0  0.05853  0.45703  0.18230  1.0000 0.1297347232
H   H40       1.0  0.27473  0.87623  0.81770  1.0000 0.1297347232
H   H41       1.0  0.60150  0.72527  0.54297  1.0000 0.1297347232
H   H42       1.0  0.39850  0.94147  0.12377  1.0000 0.1297347232
H   H43       1.0  0.18230  0.05853  0.45703  1.0000 0.1297347232
H   H44       1.0  0.81770  0.27473  0.87623  1.0000 0.1297347232
H   H45       1.0  0.54297  0.60150  0.72527  1.0000 0.1297347232
H   H46       1.0  0.12377  0.39850  0.94147  1.0000 0.1297347232
H   H47       1.0  0.45703  0.18230  0.05853  1.0000 0.1297347232
H   H48       1.0  0.87623  0.81770  0.27473  1.0000 0.1297347232
H   H49       1.0  0.39320  0.46580  0.57360  1.0000 0.1174786906
H   H50       1.0  0.89220  0.81960  0.42640  1.0000 0.1174786906
H   H51       1.0  0.10780  0.53420  0.92740  1.0000 0.1174786906
H   H52       1.0  0.60680  0.18040  0.07260  1.0000 0.1174786906
H   H53       1.0  0.57360  0.39320  0.46580  1.0000 0.1174786906
H   H54       1.0  0.42640  0.89220  0.81960  1.0000 0.1174786906
H   H55       1.0  0.92740  0.10780  0.53420  1.0000 0.1174786906
H   H56       1.0  0.07260  0.60680  0.18040  1.0000 0.1174786906
H   H57       1.0  0.46580  0.57360  0.39320  1.0000 0.1174786906
H   H58       1.0  0.81960  0.42640  0.89220  1.0000 0.1174786906
H   H59       1.0  0.53420  0.92740  0.10780  1.0000 0.1174786906
H   H60       1.0  0.18040  0.07260  0.60680  1.0000 0.1174786906
H   H61       1.0  0.60680  0.53420  0.42640  1.0000 0.1174786906
H   H62       1.0  0.10780  0.18040  0.57360  1.0000 0.1174786906
H   H63       1.0  0.89220  0.46580  0.07260  1.0000 0.1174786906
H   H64       1.0  0.39320  0.81960  0.92740  1.0000 0.1174786906
H   H65       1.0  0.42640  0.60680  0.53420  1.0000 0.1174786906
H   H66       1.0  0.57360  0.10780  0.18040  1.0000 0.1174786906
H   H67       1.0  0.07260  0.89220  0.46580  1.0000 0.1174786906
H   H68       1.0  0.92740  0.39320  0.81960  1.0000 0.1174786906
H   H69       1.0  0.53420  0.42640  0.60680  1.0000 0.1174786906
H   H70       1.0  0.18040  0.57360  0.10780  1.0000 0.1174786906
H   H71       1.0  0.46580  0.07260  0.89220  1.0000 0.1174786906
H   H72       1.0  0.81960  0.92740  0.39320  1.0000 0.1174786906
H   H73       1.0  0.32050  0.48290  0.61440  1.0000 0.1297347232
H   H74       1.0  0.86850  0.70610  0.38560  1.0000 0.1297347232
H   H75       1.0  0.13150  0.51710  0.83760  1.0000 0.1297347232
H   H76       1.0  0.67950  0.29390  0.16240  1.0000 0.1297347232
H   H77       1.0  0.61440  0.32050  0.48290  1.0000 0.1297347232
H   H78       1.0  0.38560  0.86850  0.70610  1.0000 0.1297347232
H   H79       1.0  0.83760  0.13150  0.51710  1.0000 0.1297347232
H   H80       1.0  0.16240  0.67950  0.29390  1.0000 0.1297347232
H   H81       1.0  0.48290  0.61440  0.32050  1.0000 0.1297347232
H   H82       1.0  0.70610  0.38560  0.86850  1.0000 0.1297347232
H   H83       1.0  0.51710  0.83760  0.13150  1.0000 0.1297347232
H   H84       1.0  0.29390  0.16240  0.67950  1.0000 0.1297347232
H   H85       1.0  0.67950  0.51710  0.38560  1.0000 0.1297347232
H   H86       1.0  0.13150  0.29390  0.61440  1.0000 0.1297347232
H   H87       1.0  0.86850  0.48290  0.16240  1.0000 0.1297347232
H   H88       1.0  0.32050  0.70610  0.83760  1.0000 0.1297347232
H   H89       1.0  0.38560  0.67950  0.51710  1.0000 0.1297347232
H   H90       1.0  0.61440  0.13150  0.29390  1.0000 0.1297347232
H   H91       1.0  0.16240  0.86850  0.48290  1.0000 0.1297347232
H   H92       1.0  0.83760  0.32050  0.70610  1.0000 0.1297347232
H   H93       1.0  0.51710  0.38560  0.67950  1.0000 0.1297347232
H   H94       1.0  0.29390  0.61440  0.13150  1.0000 0.1297347232
H   H95       1.0  0.48290  0.16240  0.86850  1.0000 0.1297347232
H   H96       1.0  0.70610  0.83760  0.32050  1.0000 0.1297347232
H   H97       1.0  0.38250  0.49440  0.40070  1.0000 0.1174786906
H   H98       1.0  0.09370  0.98180  0.59930  1.0000 0.1174786906
H   H99       1.0  0.90630  0.50560  0.88810  1.0000 0.1174786906
H   H100      1.0  0.61750  0.01820  0.11190  1.0000 0.1174786906
H   H101      1.0  0.40070  0.38250  0.49440  1.0000 0.1174786906
H   H102      1.0  0.59930  0.09370  0.98180  1.0000 0.1174786906
H   H103      1.0  0.88810  0.90630  0.50560  1.0000 0.1174786906
H   H104      1.0  0.11190  0.61750  0.01820  1.0000 0.1174786906
H   H105      1.0  0.49440  0.40070  0.38250  1.0000 0.1174786906
H   H106      1.0  0.98180  0.59930  0.09370  1.0000 0.1174786906
H   H107      1.0  0.50560  0.88810  0.90630  1.0000 0.1174786906
H   H108      1.0  0.01820  0.11190  0.61750  1.0000 0.1174786906
H   H109      1.0  0.61750  0.50560  0.59930  1.0000 0.1174786906
H   H110      1.0  0.90630  0.01820  0.40070  1.0000 0.1174786906
H   H111      1.0  0.09370  0.49440  0.11190  1.0000 0.1174786906
H   H112      1.0  0.38250  0.98180  0.88810  1.0000 0.1174786906
H   H113      1.0  0.59930  0.61750  0.50560  1.0000 0.1174786906
H   H114      1.0  0.40070  0.90630  0.01820  1.0000 0.1174786906
H   H115      1.0  0.11190  0.09370  0.49440  1.0000 0.1174786906
H   H116      1.0  0.88810  0.38250  0.98180  1.0000 0.1174786906
H   H117      1.0  0.50560  0.59930  0.61750  1.0000 0.1174786906
H   H118      1.0  0.01820  0.40070  0.90630  1.0000 0.1174786906
H   H119      1.0  0.49440  0.11190  0.09370  1.0000 0.1174786906
H   H120      1.0  0.98180  0.88810  0.38250  1.0000 0.1174786906
C   C1        1.0  0.21430  0.50240  0.56550  1.0000 0.5888909144
C   C2        1.0  0.93690  0.64880  0.43450  1.0000 0.5888909144
C   C3        1.0  0.06310  0.49760  0.71190  1.0000 0.5888909144
C   C4        1.0  0.78570  0.35120  0.28810  1.0000 0.5888909144
C   C5        1.0  0.56550  0.21430  0.50240  1.0000 0.5888909144
C   C6        1.0  0.43450  0.93690  0.64880  1.0000 0.5888909144
C   C7        1.0  0.71190  0.06310  0.49760  1.0000 0.5888909144
C   C8        1.0  0.28810  0.78570  0.35120  1.0000 0.5888909144
C   C9        1.0  0.50240  0.56550  0.21430  1.0000 0.5888909144
C   C10       1.0  0.64880  0.43450  0.93690  1.0000 0.5888909144
C   C11       1.0  0.49760  0.71190  0.06310  1.0000 0.5888909144
C   C12       1.0  0.35120  0.28810  0.78570  1.0000 0.5888909144
C   C13       1.0  0.78570  0.49760  0.43450  1.0000 0.5888909144
C   C14       1.0  0.06310  0.35120  0.56550  1.0000 0.5888909144
C   C15       1.0  0.93690  0.50240  0.28810  1.0000 0.5888909144
C   C16       1.0  0.21430  0.64880  0.71190  1.0000 0.5888909144
C   C17       1.0  0.43450  0.78570  0.49760  1.0000 0.5888909144
C   C18       1.0  0.56550  0.06310  0.35120  1.0000 0.5888909144
C   C19       1.0  0.28810  0.93690  0.50240  1.0000 0.5888909144
C   C20       1.0  0.71190  0.21430  0.64880  1.0000 0.5888909144
C   C21       1.0  0.49760  0.43450  0.78570  1.0000 0.5888909144
C   C22       1.0  0.35120  0.56550  0.06310  1.0000 0.5888909144
C   C23       1.0  0.50240  0.28810  0.93690  1.0000 0.5888909144
C   C24       1.0  0.64880  0.71190  0.21430  1.0000 0.5888909144
C   C25       1.0  0.25940  0.48720  0.53420  1.0000 -0.0022861927
C   C26       1.0  0.95300  0.72520  0.46580  1.0000 -0.0022861927
C   C27       1.0  0.04700  0.51280  0.77220  1.0000 -0.0022861927
C   C28       1.0  0.74060  0.27480  0.22780  1.0000 -0.0022861927
C   C29       1.0  0.53420  0.25940  0.48720  1.0000 -0.0022861927
C   C30       1.0  0.46580  0.95300  0.72520  1.0000 -0.0022861927
C   C31       1.0  0.77220  0.04700  0.51280  1.0000 -0.0022861927
C   C32       1.0  0.22780  0.74060  0.27480  1.0000 -0.0022861927
C   C33       1.0  0.48720  0.53420  0.25940  1.0000 -0.0022861927
C   C34       1.0  0.72520  0.46580  0.95300  1.0000 -0.0022861927
C   C35       1.0  0.51280  0.77220  0.04700  1.0000 -0.0022861927
C   C36       1.0  0.27480  0.22780  0.74060  1.0000 -0.0022861927
C   C37       1.0  0.74060  0.51280  0.46580  1.0000 -0.0022861927
C   C38       1.0  0.04700  0.27480  0.53420  1.0000 -0.0022861927
C   C39       1.0  0.95300  0.48720  0.22780  1.0000 -0.0022861927
C   C40       1.0  0.25940  0.72520  0.77220  1.0000 -0.0022861927
C   C41       1.0  0.46580  0.74060  0.51280  1.0000 -0.0022861927
C   C42       1.0  0.53420  0.04700  0.27480  1.0000 -0.0022861927
C   C43       1.0  0.22780  0.95300  0.48720  1.0000 -0.0022861927
C   C44       1.0  0.77220  0.25940  0.72520  1.0000 -0.0022861927
C   C45       1.0  0.51280  0.46580  0.74060  1.0000 -0.0022861927
C   C46       1.0  0.27480  0.53420  0.04700  1.0000 -0.0022861927
C   C47       1.0  0.48720  0.22780  0.95300  1.0000 -0.0022861927
C   C48       1.0  0.72520  0.77220  0.25940  1.0000 -0.0022861927
C   C49       1.0  0.24900  0.48340  0.47000  1.0000 -0.0985959111
C   C50       1.0  0.01340  0.77900  0.53000  1.0000 -0.0985959111
C   C51       1.0  0.98660  0.51660  0.76560  1.0000 -0.0985959111
C   C52       1.0  0.75100  0.22100  0.23440  1.0000 -0.0985959111
C   C53       1.0  0.47000  0.24900  0.48340  1.0000 -0.0985959111
C   C54       1.0  0.53000  0.01340  0.77900  1.0000 -0.0985959111
C   C55       1.0  0.76560  0.98660  0.51660  1.0000 -0.0985959111
C   C56       1.0  0.23440  0.75100  0.22100  1.0000 -0.0985959111
C   C57       1.0  0.48340  0.47000  0.24900  1.0000 -0.0985959111
C   C58       1.0  0.77900  0.53000  0.01340  1.0000 -0.0985959111
C   C59       1.0  0.51660  0.76560  0.98660  1.0000 -0.0985959111
C   C60       1.0  0.22100  0.23440  0.75100  1.0000 -0.0985959111
C   C61       1.0  0.75100  0.51660  0.53000  1.0000 -0.0985959111
C   C62       1.0  0.98660  0.22100  0.47000  1.0000 -0.0985959111
C   C63       1.0  0.01340  0.48340  0.23440  1.0000 -0.0985959111
C   C64       1.0  0.24900  0.77900  0.76560  1.0000 -0.0985959111
C   C65       1.0  0.53000  0.75100  0.51660  1.0000 -0.0985959111
C   C66       1.0  0.47000  0.98660  0.22100  1.0000 -0.0985959111
C   C67       1.0  0.23440  0.01340  0.48340  1.0000 -0.0985959111
C   C68       1.0  0.76560  0.24900  0.77900  1.0000 -0.0985959111
C   C69       1.0  0.51660  0.53000  0.75100  1.0000 -0.0985959111
C   C70       1.0  0.22100  0.47000  0.98660  1.0000 -0.0985959111
C   C71       1.0  0.48340  0.23440  0.01340  1.0000 -0.0985959111
C   C72       1.0  0.77900  0.76560  0.24900  1.0000 -0.0985959111
C   C73       1.0  0.28570  0.46530  0.44320  1.0000 -0.1499616542
C   C74       1.0  0.02210  0.84250  0.55680  1.0000 -0.1499616542
C   C75       1.0  0.97790  0.53470  0.82040  1.0000 -0.1499616542
C   C76       1.0  0.71430  0.15750  0.17960  1.0000 -0.1499616542
C   C77       1.0  0.44320  0.28570  0.46530  1.0000 -0.1499616542
C   C78       1.0  0.55680  0.02210  0.84250  1.0000 -0.1499616542
C   C79       1.0  0.82040  0.97790  0.53470  1.0000 -0.1499616542
C   C80       1.0  0.17960  0.71430  0.15750  1.0000 -0.1499616542
C   C81       1.0  0.46530  0.44320  0.28570  1.0000 -0.1499616542
C   C82       1.0  0.84250  0.55680  0.02210  1.0000 -0.1499616542
C   C83       1.0  0.53470  0.82040  0.97790  1.0000 -0.1499616542
C   C84       1.0  0.15750  0.17960  0.71430  1.0000 -0.1499616542
C   C85       1.0  0.71430  0.53470  0.55680  1.0000 -0.1499616542
C   C86       1.0  0.97790  0.15750  0.44320  1.0000 -0.1499616542
C   C87       1.0  0.02210  0.46530  0.17960  1.0000 -0.1499616542
C   C88       1.0  0.28570  0.84250  0.82040  1.0000 -0.1499616542
C   C89       1.0  0.55680  0.71430  0.53470  1.0000 -0.1499616542
C   C90       1.0  0.44320  0.97790  0.15750  1.0000 -0.1499616542
C   C91       1.0  0.17960  0.02210  0.46530  1.0000 -0.1499616542
C   C92       1.0  0.82040  0.28570  0.84250  1.0000 -0.1499616542
C   C93       1.0  0.53470  0.55680  0.71430  1.0000 -0.1499616542
C   C94       1.0  0.15750  0.44320  0.97790  1.0000 -0.1499616542
C   C95       1.0  0.46530  0.17960  0.02210  1.0000 -0.1499616542
C   C96       1.0  0.84250  0.82040  0.28570  1.0000 -0.1499616542
C   C97       1.0  0.34160  0.45860  0.48180  1.0000 0.0716457459
C   C98       1.0  0.97680  0.85980  0.51820  1.0000 0.0716457459
C   C99       1.0  0.02320  0.54140  0.88300  1.0000 0.0716457459
C   C100      1.0  0.65840  0.14020  0.11700  1.0000 0.0716457459
C   C101      1.0  0.48180  0.34160  0.45860  1.0000 0.0716457459
C   C102      1.0  0.51820  0.97680  0.85980  1.0000 0.0716457459
C   C103      1.0  0.88300  0.02320  0.54140  1.0000 0.0716457459
C   C104      1.0  0.11700  0.65840  0.14020  1.0000 0.0716457459
C   C105      1.0  0.45860  0.48180  0.34160  1.0000 0.0716457459
C   C106      1.0  0.85980  0.51820  0.97680  1.0000 0.0716457459
C   C107      1.0  0.54140  0.88300  0.02320  1.0000 0.0716457459
C   C108      1.0  0.14020  0.11700  0.65840  1.0000 0.0716457459
C   C109      1.0  0.65840  0.54140  0.51820  1.0000 0.0716457459
C   C110      1.0  0.02320  0.14020  0.48180  1.0000 0.0716457459
C   C111      1.0  0.97680  0.45860  0.11700  1.0000 0.0716457459
C   C112      1.0  0.34160  0.85980  0.88300  1.0000 0.0716457459
C   C113      1.0  0.51820  0.65840  0.54140  1.0000 0.0716457459
C   C114      1.0  0.48180  0.02320  0.14020  1.0000 0.0716457459
C   C115      1.0  0.11700  0.97680  0.45860  1.0000 0.0716457459
C   C116      1.0  0.88300  0.34160  0.85980  1.0000 0.0716457459
C   C117      1.0  0.54140  0.51820  0.65840  1.0000 0.0716457459
C   C118      1.0  0.14020  0.48180  0.02320  1.0000 0.0716457459
C   C119      1.0  0.45860  0.11700  0.97680  1.0000 0.0716457459
C   C120      1.0  0.85980  0.88300  0.34160  1.0000 0.0716457459
C   C121      1.0  0.35550  0.46770  0.54680  1.0000 -0.1674494638
C   C122      1.0  0.92090  0.80870  0.45320  1.0000 -0.1674494638
C   C123      1.0  0.07910  0.53230  0.88780  1.0000 -0.1674494638
C   C124      1.0  0.64450  0.19130  0.11220  1.0000 -0.1674494638
C   C125      1.0  0.54680  0.35550  0.46770  1.0000 -0.1674494638
C   C126      1.0  0.45320  0.92090  0.80870  1.0000 -0.1674494638
C   C127      1.0  0.88780  0.07910  0.53230  1.0000 -0.1674494638
C   C128      1.0  0.11220  0.64450  0.19130  1.0000 -0.1674494638
C   C129      1.0  0.46770  0.54680  0.35550  1.0000 -0.1674494638
C   C130      1.0  0.80870  0.45320  0.92090  1.0000 -0.1674494638
C   C131      1.0  0.53230  0.88780  0.07910  1.0000 -0.1674494638
C   C132      1.0  0.19130  0.11220  0.64450  1.0000 -0.1674494638
C   C133      1.0  0.64450  0.53230  0.45320  1.0000 -0.1674494638
C   C134      1.0  0.07910  0.19130  0.54680  1.0000 -0.1674494638
C   C135      1.0  0.92090  0.46770  0.11220  1.0000 -0.1674494638
C   C136      1.0  0.35550  0.80870  0.88780  1.0000 -0.1674494638
C   C137      1.0  0.45320  0.64450  0.53230  1.0000 -0.1674494638
C   C138      1.0  0.54680  0.07910  0.19130  1.0000 -0.1674494638
C   C139      1.0  0.11220  0.92090  0.46770  1.0000 -0.1674494638
C   C140      1.0  0.88780  0.35550  0.80870  1.0000 -0.1674494638
C   C141      1.0  0.53230  0.45320  0.64450  1.0000 -0.1674494638
C   C142      1.0  0.19130  0.54680  0.07910  1.0000 -0.1674494638
C   C143      1.0  0.46770  0.11220  0.92090  1.0000 -0.1674494638
C   C144      1.0  0.80870  0.88780  0.35550  1.0000 -0.1674494638
C   C145      1.0  0.31310  0.47970  0.57200  1.0000 -0.0933018278
C   C146      1.0  0.90770  0.74110  0.42800  1.0000 -0.0933018278
C   C147      1.0  0.09230  0.52030  0.83340  1.0000 -0.0933018278
C   C148      1.0  0.68690  0.25890  0.16660  1.0000 -0.0933018278
C   C149      1.0  0.57200  0.31310  0.47970  1.0000 -0.0933018278
C   C150      1.0  0.42800  0.90770  0.74110  1.0000 -0.0933018278
C   C151      1.0  0.83340  0.09230  0.52030  1.0000 -0.0933018278
C   C152      1.0  0.16660  0.68690  0.25890  1.0000 -0.0933018278
C   C153      1.0  0.47970  0.57200  0.31310  1.0000 -0.0933018278
C   C154      1.0  0.74110  0.42800  0.90770  1.0000 -0.0933018278
C   C155      1.0  0.52030  0.83340  0.09230  1.0000 -0.0933018278
C   C156      1.0  0.25890  0.16660  0.68690  1.0000 -0.0933018278
C   C157      1.0  0.68690  0.52030  0.42800  1.0000 -0.0933018278
C   C158      1.0  0.09230  0.25890  0.57200  1.0000 -0.0933018278
C   C159      1.0  0.90770  0.47970  0.16660  1.0000 -0.0933018278
C   C160      1.0  0.31310  0.74110  0.83340  1.0000 -0.0933018278
C   C161      1.0  0.42800  0.68690  0.52030  1.0000 -0.0933018278
C   C162      1.0  0.57200  0.09230  0.25890  1.0000 -0.0933018278
C   C163      1.0  0.16660  0.90770  0.47970  1.0000 -0.0933018278
C   C164      1.0  0.83340  0.31310  0.74110  1.0000 -0.0933018278
C   C165      1.0  0.52030  0.42800  0.68690  1.0000 -0.0933018278
C   C166      1.0  0.25890  0.57200  0.09230  1.0000 -0.0933018278
C   C167      1.0  0.47970  0.16660  0.90770  1.0000 -0.0933018278
C   C168      1.0  0.74110  0.83340  0.31310  1.0000 -0.0933018278
C   C169      1.0  0.38380  0.43920  0.45160  1.0000 0.0811881664
C   C170      1.0  0.98760  0.93220  0.54840  1.0000 0.0811881664
C   C171      1.0  0.01240  0.56080  0.94460  1.0000 0.0811881664
C   C172      1.0  0.61620  0.06780  0.05540  1.0000 0.0811881664
C   C173      1.0  0.45160  0.38380  0.43920  1.0000 0.0811881664
C   C174      1.0  0.54840  0.98760  0.93220  1.0000 0.0811881664
C   C175      1.0  0.94460  0.01240  0.56080  1.0000 0.0811881664
C   C176      1.0  0.05540  0.61620  0.06780  1.0000 0.0811881664
C   C177      1.0  0.43920  0.45160  0.38380  1.0000 0.0811881664
C   C178      1.0  0.93220  0.54840  0.98760  1.0000 0.0811881664
C   C179      1.0  0.56080  0.94460  0.01240  1.0000 0.0811881664
C   C180      1.0  0.06780  0.05540  0.61620  1.0000 0.0811881664
C   C181      1.0  0.61620  0.56080  0.54840  1.0000 0.0811881664
C   C182      1.0  0.01240  0.06780  0.45160  1.0000 0.0811881664
C   C183      1.0  0.98760  0.43920  0.05540  1.0000 0.0811881664
C   C184      1.0  0.38380  0.93220  0.94460  1.0000 0.0811881664
C   C185      1.0  0.54840  0.61620  0.56080  1.0000 0.0811881664
C   C186      1.0  0.45160  0.01240  0.06780  1.0000 0.0811881664
C   C187      1.0  0.05540  0.98760  0.43920  1.0000 0.0811881664
C   C188      1.0  0.94460  0.38380  0.93220  1.0000 0.0811881664
C   C189      1.0  0.56080  0.54840  0.61620  1.0000 0.0811881664
C   C190      1.0  0.06780  0.45160  0.01240  1.0000 0.0811881664
C   C191      1.0  0.43920  0.05540  0.98760  1.0000 0.0811881664
C   C192      1.0  0.93220  0.94460  0.38380  1.0000 0.0811881664
C   C193      1.0  0.39950  0.46630  0.41000  1.0000 -0.1894091151
C   C194      1.0  0.05630  0.98950  0.59000  1.0000 -0.1894091151
C   C195      1.0  0.94370  0.53370  0.93320  1.0000 -0.1894091151
C   C196      1.0  0.60050  0.01050  0.06680  1.0000 -0.1894091151
C   C197      1.0  0.41000  0.39950  0.46630  1.0000 -0.1894091151
C   C198      1.0  0.59000  0.05630  0.98950  1.0000 -0.1894091151
C   C199      1.0  0.93320  0.94370  0.53370  1.0000 -0.1894091151
C   C200      1.0  0.06680  0.60050  0.01050  1.0000 -0.1894091151
C   C201      1.0  0.46630  0.41000  0.39950  1.0000 -0.1894091151
C   C202      1.0  0.98950  0.59000  0.05630  1.0000 -0.1894091151
C   C203      1.0  0.53370  0.93320  0.94370  1.0000 -0.1894091151
C   C204      1.0  0.01050  0.06680  0.60050  1.0000 -0.1894091151
C   C205      1.0  0.60050  0.53370  0.59000  1.0000 -0.1894091151
C   C206      1.0  0.94370  0.01050  0.41000  1.0000 -0.1894091151
C   C207      1.0  0.05630  0.46630  0.06680  1.0000 -0.1894091151
C   C208      1.0  0.39950  0.98950  0.93320  1.0000 -0.1894091151
C   C209      1.0  0.59000  0.60050  0.53370  1.0000 -0.1894091151
C   C210      1.0  0.41000  0.94370  0.01050  1.0000 -0.1894091151
C   C211      1.0  0.06680  0.05630  0.46630  1.0000 -0.1894091151
C   C212      1.0  0.93320  0.39950  0.98950  1.0000 -0.1894091151
C   C213      1.0  0.53370  0.59000  0.60050  1.0000 -0.1894091151
C   C214      1.0  0.01050  0.41000  0.94370  1.0000 -0.1894091151
C   C215      1.0  0.46630  0.06680  0.05630  1.0000 -0.1894091151
C   C216      1.0  0.98950  0.93320  0.39950  1.0000 -0.1894091151
O   O1        1.0  0.17020  0.51600  0.53080  1.0000 -0.5357758096
O   O2        1.0  0.98520  0.63940  0.46920  1.0000 -0.5357758096
O   O3        1.0  0.01480  0.48400  0.65420  1.0000 -0.5357758096
O   O4        1.0  0.82980  0.36060  0.34580  1.0000 -0.5357758096
O   O5        1.0  0.53080  0.17020  0.51600  1.0000 -0.5357758096
O   O6        1.0  0.46920  0.98520  0.63940  1.0000 -0.5357758096
O   O7        1.0  0.65420  0.01480  0.48400  1.0000 -0.5357758096
O   O8        1.0  0.34580  0.82980  0.36060  1.0000 -0.5357758096
O   O9        1.0  0.51600  0.53080  0.17020  1.0000 -0.5357758096
O   O10       1.0  0.63940  0.46920  0.98520  1.0000 -0.5357758096
O   O11       1.0  0.48400  0.65420  0.01480  1.0000 -0.5357758096
O   O12       1.0  0.36060  0.34580  0.82980  1.0000 -0.5357758096
O   O13       1.0  0.82980  0.48400  0.46920  1.0000 -0.5357758096
O   O14       1.0  0.01480  0.36060  0.53080  1.0000 -0.5357758096
O   O15       1.0  0.98520  0.51600  0.34580  1.0000 -0.5357758096
O   O16       1.0  0.17020  0.63940  0.65420  1.0000 -0.5347740111
O   O17       1.0  0.46920  0.82980  0.48400  1.0000 -0.5357758096
O   O18       1.0  0.53080  0.01480  0.36060  1.0000 -0.5357758096
O   O19       1.0  0.34580  0.98520  0.51600  1.0000 -0.5357758096
O   O20       1.0  0.65420  0.17020  0.63940  1.0000 -0.5357758096
O   O21       1.0  0.48400  0.46920  0.82980  1.0000 -0.5357758096
O   O22       1.0  0.36060  0.53080  0.01480  1.0000 -0.5357758096
O   O23       1.0  0.51600  0.34580  0.98520  1.0000 -0.5357758096
O   O24       1.0  0.63940  0.65420  0.17020  1.0000 -0.5357758096
O   O25       1.0  0.22350  0.49970  0.61740  1.0000 -0.5064684442
O   O26       1.0  0.88230  0.60610  0.38260  1.0000 -0.5064684442
O   O27       1.0  0.11770  0.50030  0.72380  1.0000 -0.5064684442
O   O28       1.0  0.77650  0.39390  0.27620  1.0000 -0.5064684442
O   O29       1.0  0.61740  0.22350  0.49970  1.0000 -0.5064684442
O   O30       1.0  0.38260  0.88230  0.60610  1.0000 -0.5064684442
O   O31       1.0  0.72380  0.11770  0.50030  1.0000 -0.5064684442
O   O32       1.0  0.27620  0.77650  0.39390  1.0000 -0.5064684442
O   O33       1.0  0.49970  0.61740  0.22350  1.0000 -0.5064684442
O   O34       1.0  0.60610  0.38260  0.88230  1.0000 -0.5064684442
O   O35       1.0  0.50030  0.72380  0.11770  1.0000 -0.5064684442
O   O36       1.0  0.39390  0.27620  0.77650  1.0000 -0.5064684442
O   O37       1.0  0.77650  0.50030  0.38260  1.0000 -0.5064684442
O   O38       1.0  0.11770  0.39390  0.61740  1.0000 -0.5064684442
O   O39       1.0  0.88230  0.49970  0.27620  1.0000 -0.5064684442
O   O40       1.0  0.22350  0.60610  0.72380  1.0000 -0.5064684442
O   O41       1.0  0.38260  0.77650  0.50030  1.0000 -0.5041395482
O   O42       1.0  0.61740  0.11770  0.39390  1.0000 -0.5064684442
O   O43       1.0  0.27620  0.88230  0.49970  1.0000 -0.5064684442
O   O44       1.0  0.72380  0.22350  0.60610  1.0000 -0.5064684442
O   O45       1.0  0.50030  0.38260  0.77650  1.0000 -0.5064684442
O   O46       1.0  0.39390  0.61740  0.11770  1.0000 -0.5064684442
O   O47       1.0  0.49970  0.27620  0.88230  1.0000 -0.5064684442
O   O48       1.0  0.60610  0.72380  0.22350  1.0000 -0.5064684442
O   O49       1.0  0.09050  0.50000  0.59050  1.0000 -0.7937810835
O   O50       1.0  0.90950  0.50000  0.40950  1.0000 -0.7937810835
O   O51       1.0  0.59050  0.09050  0.50000  1.0000 -0.7937810835
O   O52       1.0  0.40950  0.90950  0.50000  1.0000 -0.7937810835
O   O53       1.0  0.50000  0.59050  0.09050  1.0000 -0.7937810835
O   O54       1.0  0.50000  0.40950  0.90950  1.0000 -0.7952130494
O   O55       1.0  0.03190  0.47870  0.44680  1.0000 -0.2202993613
O   O56       1.0  0.03190  0.58510  0.55320  1.0000 -0.2202993613
O   O57       1.0  0.96810  0.52130  0.55320  1.0000 -0.2202993613
O   O58       1.0  0.96810  0.41490  0.44680  1.0000 -0.2202993613
O   O59       1.0  0.44680  0.03190  0.47870  1.0000 -0.2202993613
O   O60       1.0  0.55320  0.03190  0.58510  1.0000 -0.2202993613
O   O61       1.0  0.55320  0.96810  0.52130  1.0000 -0.2202993613
O   O62       1.0  0.44680  0.96810  0.41490  1.0000 -0.2202993613
O   O63       1.0  0.47870  0.44680  0.03190  1.0000 -0.2202993613
O   O64       1.0  0.58510  0.55320  0.03190  1.0000 -0.2202993613
O   O65       1.0  0.52130  0.55320  0.96810  1.0000 -0.2202993613
O   O66       1.0  0.41490  0.44680  0.96810  1.0000 -0.2202993613
O   O67       1.0  0.11040  0.61040  0.50000  1.0000 -0.6244746503
O   O68       1.0  0.88960  0.38960  0.50000  1.0000 -0.6262994167
O   O69       1.0  0.50000  0.11040  0.61040  1.0000 -0.6244746503
O   O70       1.0  0.50000  0.88960  0.38960  1.0000 -0.6262994167
O   O71       1.0  0.61040  0.50000  0.11040  1.0000 -0.6262994167
O   O72       1.0  0.38960  0.50000  0.88960  1.0000 -0.6262994167
