# DDEC6 charges by PACMAN v1.1 (https://github.com/mtap-research/PACMAN-charge/)
data_2013[CuEu][nan]3[ASR]1
_chemical_formula_sum              "Eu2 Cu2 H16 C32 N10 O16"
_cell_length_a       10.7491
_cell_length_b       10.7585
_cell_length_c       11.8901
_cell_angle_alpha    70.146
_cell_angle_beta     78.016
_cell_angle_gamma    61.03

_symmetry_space_group_name_H-M    "P 1"
_symmetry_Int_Tables_number       1

loop_
  _symmetry_equiv_pos_as_xyz
  'x, y, z'

loop_
  _atom_site_type_symbol
  _atom_site_label
  _atom_site_symmetry_multiplicity
  _atom_site_fract_x
  _atom_site_fract_y
  _atom_site_fract_z
  _atom_site_occupancy
  _atom_site_charge
Eu  Eu1       1.0  0.45094  0.00069  0.83559  1.0000 2.0468235643
Eu  Eu2       1.0  0.54906  0.99931  0.16441  1.0000 2.0468235643
Cu  Cu1       1.0  0.00000  0.00000  0.00000  1.0000 0.6498918564
Cu  Cu2       1.0  0.00000  0.00000  0.50000  1.0000 0.6227038534
H   H1        1.0  0.99550  0.72930  0.47870  1.0000 0.118459401
H   H2        1.0  0.00450  0.27070  0.52130  1.0000 0.118459401
H   H3        1.0  0.09150  0.47940  0.56380  1.0000 0.1368642667
H   H4        1.0  0.90850  0.52060  0.43620  1.0000 0.1368642667
H   H5        1.0  0.30350  0.52180  0.77480  1.0000 0.1368642667
H   H6        1.0  0.69650  0.47820  0.22520  1.0000 0.1368642667
H   H7        1.0  0.20760  0.76910  0.68010  1.0000 0.1083861359
H   H8        1.0  0.79240  0.23090  0.31990  1.0000 0.1083861359
H   H9        1.0  0.00230  0.27830  0.82190  1.0000 0.118459401
H   H10       1.0  0.99770  0.72170  0.17810  1.0000 0.118459401
H   H11       1.0  0.87100  0.53010  0.78060  1.0000 0.1368642667
H   H12       1.0  0.12900  0.46990  0.21940  1.0000 0.1368642667
H   H13       1.0  0.60880  0.46680  0.06260  1.0000 0.1368642667
H   H14       1.0  0.39120  0.53320  0.93740  1.0000 0.1368642667
H   H15       1.0  0.75060  0.21800  0.09890  1.0000 0.1083861359
H   H16       1.0  0.24940  0.78200  0.90110  1.0000 0.1083861359
C   C1        1.0  0.82210  0.02250  0.71680  1.0000 0.0074378646
C   C2        1.0  0.17790  0.97750  0.28320  1.0000 0.0074378646
C   C3        1.0  0.82700  0.01160  0.83450  1.0000 -0.0118051255
C   C4        1.0  0.17300  0.98840  0.16550  1.0000 -0.0118051255
C   C5        1.0  0.71770  0.03450  0.64070  1.0000 0.6264644594
C   C6        1.0  0.28230  0.96550  0.35930  1.0000 0.6264644594
C   C7        1.0  0.73500  0.99810  0.94530  1.0000 0.6227038534
C   C8        1.0  0.26500  0.00190  0.05470  1.0000 0.6227038534
C   C9        1.0  0.05890  0.68680  0.53900  1.0000 0.0804200005
C   C10       1.0  0.94110  0.31320  0.46100  1.0000 0.0804200005
C   C11       1.0  0.11580  0.53650  0.59010  1.0000 -0.1687978997
C   C12       1.0  0.88420  0.46350  0.40990  1.0000 -0.1687978997
C   C13       1.0  0.20880  0.47060  0.68010  1.0000 0.0441476287
C   C14       1.0  0.79120  0.52940  0.31990  1.0000 0.0441476287
C   C15       1.0  0.24150  0.56130  0.71390  1.0000 -0.1514279364
C   C16       1.0  0.75850  0.43870  0.28610  1.0000 -0.1514279364
C   C17       1.0  0.18230  0.71000  0.65750  1.0000 0.0804200005
C   C18       1.0  0.81770  0.29000  0.34250  1.0000 0.0804200005
C   C19       1.0  0.27580  0.30710  0.74080  1.0000 0.5539742143
C   C20       1.0  0.72420  0.69290  0.25920  1.0000 0.5539742143
C   C21       1.0  0.92260  0.31730  0.87130  1.0000 0.0893074156
C   C22       1.0  0.07740  0.68270  0.12870  1.0000 0.0893074156
C   C23       1.0  0.84380  0.46860  0.84540  1.0000 -0.1514279364
C   C24       1.0  0.15620  0.53140  0.15460  1.0000 -0.1514279364
C   C25       1.0  0.72300  0.52840  0.91730  1.0000 0.0477061452
C   C26       1.0  0.27700  0.47160  0.08270  1.0000 0.0477061452
C   C27       1.0  0.68910  0.43120  0.01270  1.0000 -0.1514279364
C   C28       1.0  0.31090  0.56880  0.98730  1.0000 -0.1514279364
C   C29       1.0  0.77410  0.28200  0.03360  1.0000 0.0804200005
C   C30       1.0  0.22590  0.71800  0.96640  1.0000 0.0804200005
C   C31       1.0  0.63050  0.69300  0.89130  1.0000 0.5590168269
C   C32       1.0  0.36950  0.30700  0.10870  1.0000 0.5590168269
N   N1        1.0  0.94450  0.02400  0.66250  1.0000 -0.1906045496
N   N2        1.0  0.05550  0.97600  0.33750  1.0000 -0.1906045496
N   N3        1.0  0.02250  0.01800  0.73890  1.0000 -0.0632448091
N   N4        1.0  0.97750  0.98200  0.26110  1.0000 -0.0632448091
N   N5        1.0  0.95080  0.01080  0.84440  1.0000 -0.1906045496
N   N6        1.0  0.04920  0.98920  0.15560  1.0000 -0.1906045496
N   N7        1.0  0.09060  0.77390  0.57210  1.0000 -0.1994437358
N   N8        1.0  0.90940  0.22610  0.42790  1.0000 -0.1994437358
N   N9        1.0  0.88960  0.22470  0.96380  1.0000 -0.1994437358
N   N10       1.0  0.11040  0.77530  0.03620  1.0000 -0.1994437358
O   O1        1.0  0.76710  0.00850  0.54190  1.0000 -0.5465355187
O   O2        1.0  0.23290  0.99150  0.45810  1.0000 -0.5465355187
O   O3        1.0  0.58940  0.07570  0.67950  1.0000 -0.6685780256
O   O4        1.0  0.41060  0.92430  0.32050  1.0000 -0.6685780256
O   O5        1.0  0.61890  0.99790  0.94290  1.0000 -0.6834058731
O   O6        1.0  0.38110  0.00210  0.05710  1.0000 -0.6834058731
O   O7        1.0  0.77670  0.98710  0.04110  1.0000 -0.639483866
O   O8        1.0  0.22330  0.01290  0.95890  1.0000 -0.639483866
O   O9        1.0  0.26150  0.22030  0.70150  1.0000 -0.6267885535
O   O10       1.0  0.73850  0.77970  0.29850  1.0000 -0.6267885535
O   O11       1.0  0.34800  0.26060  0.83000  1.0000 -0.6021693914
O   O12       1.0  0.65200  0.73940  0.17000  1.0000 -0.6021693914
O   O13       1.0  0.51520  0.74090  0.95170  1.0000 -0.6177094548
O   O14       1.0  0.48480  0.25910  0.04830  1.0000 -0.6177094548
O   O15       1.0  0.66870  0.77810  0.80770  1.0000 -0.6133890717
O   O16       1.0  0.33130  0.22190  0.19230  1.0000 -0.6133890717
