# DDEC6 charges by PACMAN v1.1 (https://github.com/mtap-research/PACMAN-charge/)
data_2013[CoLa][nan]3[ASR]1
_chemical_formula_sum              "La16 Co8 H192 C384 N64 O128"
_cell_length_a       33.0426
_cell_length_b       33.0426
_cell_length_c       33.0426
_cell_angle_alpha    91.683
_cell_angle_beta     91.683
_cell_angle_gamma    160.264

_symmetry_space_group_name_H-M    "P 1"
_symmetry_Int_Tables_number       1

loop_
  _symmetry_equiv_pos_as_xyz
  'x, y, z'

loop_
  _atom_site_type_symbol
  _atom_site_label
  _atom_site_symmetry_multiplicity
  _atom_site_fract_x
  _atom_site_fract_y
  _atom_site_fract_z
  _atom_site_occupancy
  _atom_site_charge
La  La1       1.0  0.83642  0.55702  0.92100  1.0000 1.8088720892
La  La2       1.0  0.16542  0.58642  0.77940  1.0000 1.8088720892
La  La3       1.0  0.63602  0.91542  0.07900  1.0000 1.8046942805
La  La4       1.0  0.80702  0.38602  0.22060  1.0000 1.8046942805
La  La5       1.0  0.41358  0.19298  0.57900  1.0000 1.8088720892
La  La6       1.0  0.08458  0.16358  0.72060  1.0000 1.8088720892
La  La7       1.0  0.61398  0.83458  0.42100  1.0000 1.8088720892
La  La8       1.0  0.44298  0.36398  0.27940  1.0000 1.8088720892
La  La9       1.0  0.33129  0.05510  0.92227  1.0000 1.8408003305
La  La10      1.0  0.65902  0.08129  0.77619  1.0000 1.8408003305
La  La11      1.0  0.13283  0.40902  0.07773  1.0000 1.8408003305
La  La12      1.0  0.30510  0.88283  0.22381  1.0000 1.8408003305
La  La13      1.0  0.91871  0.69490  0.57773  1.0000 1.8408003305
La  La14      1.0  0.59098  0.66871  0.72381  1.0000 1.8408003305
La  La15      1.0  0.11717  0.34098  0.42227  1.0000 1.8408003305
La  La16      1.0  0.94490  0.86717  0.27619  1.0000 1.8408003305
Co  Co1       1.0  0.20766  0.08741  0.78719  1.0000 0.5385219087
Co  Co2       1.0  0.67047  0.95766  0.62025  1.0000 0.5385219087
Co  Co3       1.0  0.30022  0.42047  0.21281  1.0000 0.5385219087
Co  Co4       1.0  0.33741  0.05022  0.37975  1.0000 0.5385219087
Co  Co5       1.0  0.04234  0.66259  0.71281  1.0000 0.5385219087
Co  Co6       1.0  0.57953  0.79234  0.87975  1.0000 0.5385219087
Co  Co7       1.0  0.94978  0.32953  0.28719  1.0000 0.5385219087
Co  Co8       1.0  0.91259  0.69978  0.12025  1.0000 0.5385219087
H   H1        1.0  0.69590  0.53310  0.06120  1.0000 0.11675076
H   H2        1.0  0.88470  0.44590  0.66280  1.0000 0.11675076
H   H3        1.0  0.47190  0.63470  0.93880  1.0000 0.11675076
H   H4        1.0  0.78310  0.22190  0.33720  1.0000 0.11675076
H   H5        1.0  0.55410  0.21690  0.43880  1.0000 0.11675076
H   H6        1.0  0.36530  0.30410  0.83720  1.0000 0.11675076
H   H7        1.0  0.77810  0.11530  0.56120  1.0000 0.11675076
H   H8        1.0  0.46690  0.52810  0.16280  1.0000 0.11675076
H   H9        1.0  0.67400  0.55280  0.00620  1.0000 0.1409259387
H   H10       1.0  0.91780  0.42400  0.62120  1.0000 0.1409259387
H   H11       1.0  0.54660  0.66780  0.99380  1.0000 0.1409259387
H   H12       1.0  0.80280  0.29660  0.37880  1.0000 0.1409259387
H   H13       1.0  0.57600  0.19720  0.49380  1.0000 0.1409259387
H   H14       1.0  0.33220  0.32600  0.87880  1.0000 0.1409259387
H   H15       1.0  0.70340  0.08220  0.50620  1.0000 0.1409259387
H   H16       1.0  0.44720  0.45340  0.12120  1.0000 0.1409259387
H   H17       1.0  0.83520  0.71120  0.96980  1.0000 0.1409259387
H   H18       1.0  0.11540  0.58520  0.62400  1.0000 0.1409259387
H   H19       1.0  0.74140  0.86540  0.03020  1.0000 0.1409259387
H   H20       1.0  0.96120  0.49140  0.37600  1.0000 0.1409259387
H   H21       1.0  0.41480  0.03880  0.53020  1.0000 0.1409259387
H   H22       1.0  0.13460  0.16480  0.87600  1.0000 0.1409259387
H   H23       1.0  0.50860  0.88460  0.46980  1.0000 0.1409259387
H   H24       1.0  0.28880  0.25860  0.12400  1.0000 0.1409259387
H   H25       1.0  0.29480  0.00210  0.04110  1.0000 0.1297613231
H   H26       1.0  0.50370  0.04480  0.79270  1.0000 0.1297613231
H   H27       1.0  0.96100  0.25370  0.95890  1.0000 0.1297613231
H   H28       1.0  0.25210  0.71100  0.20730  1.0000 0.1297613231
H   H29       1.0  0.95520  0.74790  0.45890  1.0000 0.1297613231
H   H30       1.0  0.74630  0.70520  0.70730  1.0000 0.1297613231
H   H31       1.0  0.28900  0.49630  0.54110  1.0000 0.1297613231
H   H32       1.0  0.99790  0.03900  0.29270  1.0000 0.1297613231
H   H33       1.0  0.33590  0.04800  0.11230  1.0000 0.1297613231
H   H34       1.0  0.47360  0.08590  0.78790  1.0000 0.1297613231
H   H35       1.0  0.93570  0.22360  0.88770  1.0000 0.1297613231
H   H36       1.0  0.29800  0.68570  0.21210  1.0000 0.1297613231
H   H37       1.0  0.91410  0.70200  0.38770  1.0000 0.1297613231
H   H38       1.0  0.77640  0.66410  0.71210  1.0000 0.1297613231
H   H39       1.0  0.31430  0.52640  0.61230  1.0000 0.1297613231
H   H40       1.0  0.95200  0.06430  0.28790  1.0000 0.1297613231
H   H41       1.0  0.19750  0.94900  0.14570  1.0000 0.1049292986
H   H42       1.0  0.30180  0.94750  0.74850  1.0000 0.1049292986
H   H43       1.0  0.80330  0.05180  0.85430  1.0000 0.1049292986
H   H44       1.0  0.19900  0.55330  0.25150  1.0000 0.1049292986
H   H45       1.0  0.05250  0.80100  0.35430  1.0000 0.1049292986
H   H46       1.0  0.94820  0.80250  0.75150  1.0000 0.1049292986
H   H47       1.0  0.44670  0.69820  0.64570  1.0000 0.1049292986
H   H48       1.0  0.05100  0.19670  0.24850  1.0000 0.1049292986
H   H49       1.0  0.06660  0.61430  0.77530  1.0000 0.1082341752
H   H50       1.0  0.54130  0.81660  0.95230  1.0000 0.1082341752
H   H51       1.0  0.83900  0.29130  0.22470  1.0000 0.1082341752
H   H52       1.0  0.86430  0.58900  0.04770  1.0000 0.1082341752
H   H53       1.0  0.18340  0.13570  0.72470  1.0000 0.1082341752
H   H54       1.0  0.70870  0.93340  0.54770  1.0000 0.1082341752
H   H55       1.0  0.41100  0.45870  0.27530  1.0000 0.1082341752
H   H56       1.0  0.38570  0.16100  0.45230  1.0000 0.1082341752
H   H57       1.0  0.16980  0.70550  0.84230  1.0000 0.1409259387
H   H58       1.0  0.57750  0.91980  0.96430  1.0000 0.1409259387
H   H59       1.0  0.86320  0.32750  0.15770  1.0000 0.1409259387
H   H60       1.0  0.95550  0.61320  0.03570  1.0000 0.1409259387
H   H61       1.0  0.08020  0.04450  0.65770  1.0000 0.1409259387
H   H62       1.0  0.67250  0.83020  0.53570  1.0000 0.1409259387
H   H63       1.0  0.38680  0.42250  0.34230  1.0000 0.1409259387
H   H64       1.0  0.29450  0.13680  0.46430  1.0000 0.1409259387
H   H65       1.0  0.22420  0.81530  0.88150  1.0000 0.1409259387
H   H66       1.0  0.59270  0.97420  0.90890  1.0000 0.1409259387
H   H67       1.0  0.93380  0.34270  0.11850  1.0000 0.1409259387
H   H68       1.0  0.06530  0.68380  0.09110  1.0000 0.1409259387
H   H69       1.0  0.02580  0.93470  0.61850  1.0000 0.1409259387
H   H70       1.0  0.65730  0.77580  0.59110  1.0000 0.1409259387
H   H71       1.0  0.31620  0.40730  0.38150  1.0000 0.1409259387
H   H72       1.0  0.18470  0.06620  0.40890  1.0000 0.1409259387
H   H73       1.0  0.90470  0.68040  0.78730  1.0000 0.1297613231
H   H74       1.0  0.36740  0.65470  0.72430  1.0000 0.1297613231
H   H75       1.0  0.89310  0.11740  0.21270  1.0000 0.1297613231
H   H76       1.0  0.93040  0.64310  0.27570  1.0000 0.1297613231
H   H77       1.0  0.34530  0.06960  0.71270  1.0000 0.1297613231
H   H78       1.0  0.88260  0.09530  0.77570  1.0000 0.1297613231
H   H79       1.0  0.35690  0.63260  0.28730  1.0000 0.1297613231
H   H80       1.0  0.31960  0.10690  0.22430  1.0000 0.1297613231
H   H81       1.0  0.94550  0.72230  0.72160  1.0000 0.1297613231
H   H82       1.0  0.47390  0.69550  0.72320  1.0000 0.1297613231
H   H83       1.0  0.00070  0.22390  0.27840  1.0000 0.1297613231
H   H84       1.0  0.97230  0.75070  0.27680  1.0000 0.1297613231
H   H85       1.0  0.30450  0.02770  0.77840  1.0000 0.1297613231
H   H86       1.0  0.77610  0.05450  0.77680  1.0000 0.1297613231
H   H87       1.0  0.24930  0.52610  0.22160  1.0000 0.1297613231
H   H88       1.0  0.27770  0.99930  0.22320  1.0000 0.1297613231
H   H89       1.0  0.02230  0.73840  0.69150  1.0000 0.11675076
H   H90       1.0  0.58080  0.77230  0.78390  1.0000 0.11675076
H   H91       1.0  0.04690  0.33080  0.30850  1.0000 0.11675076
H   H92       1.0  0.98840  0.79690  0.21610  1.0000 0.11675076
H   H93       1.0  0.22770  0.01160  0.80850  1.0000 0.11675076
H   H94       1.0  0.66920  0.97770  0.71610  1.0000 0.11675076
H   H95       1.0  0.20310  0.41920  0.19150  1.0000 0.11675076
H   H96       1.0  0.26160  0.95310  0.28390  1.0000 0.11675076
H   H97       1.0  0.45030  0.31620  0.74790  1.0000 0.1082341752
H   H98       1.0  0.95240  0.20030  0.63410  1.0000 0.1049292986
H   H99       1.0  0.56830  0.70240  0.25210  1.0000 0.1049292986
H   H100      1.0  0.56620  0.31830  0.36590  1.0000 0.1082341752
H   H101      1.0  0.79970  0.43380  0.75210  1.0000 0.1082341752
H   H102      1.0  0.29760  0.54970  0.86590  1.0000 0.1049292986
H   H103      1.0  0.68170  0.04760  0.24790  1.0000 0.1082341752
H   H104      1.0  0.68380  0.43170  0.13410  1.0000 0.1049292986
H   H105      1.0  0.62060  0.43630  0.75510  1.0000 0.1297613231
H   H106      1.0  0.11550  0.37060  0.68430  1.0000 0.1297613231
H   H107      1.0  0.68120  0.86550  0.24490  1.0000 0.1297613231
H   H108      1.0  0.68630  0.43120  0.31570  1.0000 0.1297613231
H   H109      1.0  0.62940  0.31370  0.74490  1.0000 0.1297613231
H   H110      1.0  0.13450  0.37940  0.81570  1.0000 0.1297613231
H   H111      1.0  0.56880  0.88450  0.25510  1.0000 0.1297613231
H   H112      1.0  0.56370  0.31880  0.18430  1.0000 0.1297613231
H   H113      1.0  0.65590  0.42700  0.81070  1.0000 0.1297613231
H   H114      1.0  0.09520  0.40590  0.72890  1.0000 0.1297613231
H   H115      1.0  0.61630  0.84520  0.18930  1.0000 0.1297613231
H   H116      1.0  0.67700  0.36630  0.27110  1.0000 0.1297613231
H   H117      1.0  0.59410  0.32300  0.68930  1.0000 0.1297613231
H   H118      1.0  0.15480  0.34410  0.77110  1.0000 0.1297613231
H   H119      1.0  0.63370  0.90480  0.31070  1.0000 0.1297613231
H   H120      1.0  0.57300  0.38370  0.22890  1.0000 0.1297613231
H   H121      1.0  0.33420  0.21210  0.96030  1.0000 0.1409259387
H   H122      1.0  0.62390  0.08420  0.62210  1.0000 0.1409259387
H   H123      1.0  0.25180  0.37390  0.03970  1.0000 0.1409259387
H   H124      1.0  0.46210  0.00180  0.37790  1.0000 0.1409259387
H   H125      1.0  0.91580  0.53790  0.53970  1.0000 0.1409259387
H   H126      1.0  0.62610  0.66580  0.87790  1.0000 0.1409259387
H   H127      1.0  0.99820  0.37610  0.46030  1.0000 0.1409259387
H   H128      1.0  0.78790  0.74820  0.12210  1.0000 0.1409259387
H   H129      1.0  0.13200  0.02850  0.93150  1.0000 0.1481674541
H   H130      1.0  0.45050  0.88200  0.60350  1.0000 0.1481674541
H   H131      1.0  0.09700  0.20050  0.06850  1.0000 0.1481674541
H   H132      1.0  0.27850  0.84700  0.39650  1.0000 0.1481674541
H   H133      1.0  0.11800  0.72150  0.56850  1.0000 0.1481674541
H   H134      1.0  0.79950  0.86800  0.89650  1.0000 0.1481674541
H   H135      1.0  0.15300  0.54950  0.43150  1.0000 0.1481674541
H   H136      1.0  0.97150  0.90300  0.10350  1.0000 0.1481674541
H   H137      1.0  0.07510  0.96470  0.86200  1.0000 0.11675076
H   H138      1.0  0.46310  0.82510  0.61040  1.0000 0.11675076
H   H139      1.0  0.10270  0.21310  0.13800  1.0000 0.11675076
H   H140      1.0  0.21470  0.85270  0.38960  1.0000 0.11675076
H   H141      1.0  0.17490  0.78530  0.63800  1.0000 0.11675076
H   H142      1.0  0.78690  0.92490  0.88960  1.0000 0.11675076
H   H143      1.0  0.14730  0.53690  0.36200  1.0000 0.11675076
H   H144      1.0  0.03530  0.89730  0.11040  1.0000 0.11675076
H   H145      1.0  0.56490  0.27060  0.06310  1.0000 0.11675076
H   H146      1.0  0.75180  0.31490  0.79430  1.0000 0.11675076
H   H147      1.0  0.20750  0.50180  0.93690  1.0000 0.11675076
H   H148      1.0  0.52060  0.95750  0.20570  1.0000 0.11675076
H   H149      1.0  0.68510  0.47940  0.43690  1.0000 0.11675076
H   H150      1.0  0.49820  0.43510  0.70570  1.0000 0.11675076
H   H151      1.0  0.04250  0.24820  0.56310  1.0000 0.11675076
H   H152      1.0  0.72940  0.79250  0.29430  1.0000 0.11675076
H   H153      1.0  0.68980  0.36450  0.12030  1.0000 0.1297613231
H   H154      1.0  0.81950  0.43980  0.82530  1.0000 0.1297613231
H   H155      1.0  0.24420  0.56950  0.87970  1.0000 0.1297613231
H   H156      1.0  0.61450  0.99420  0.17470  1.0000 0.1297613231
H   H157      1.0  0.56020  0.38550  0.37970  1.0000 0.1297613231
H   H158      1.0  0.43050  0.31020  0.67470  1.0000 0.1297613231
H   H159      1.0  0.00580  0.18050  0.62030  1.0000 0.1297613231
H   H160      1.0  0.63550  0.75580  0.32530  1.0000 0.1297613231
H   H161      1.0  0.80230  0.41520  0.11330  1.0000 0.1082341752
H   H162      1.0  0.93900  0.55230  0.88710  1.0000 0.1082341752
H   H163      1.0  0.30190  0.68900  0.88670  1.0000 0.1082341752
H   H164      1.0  0.66520  0.05190  0.11290  1.0000 0.1082341752
H   H165      1.0  0.44770  0.33480  0.38670  1.0000 0.1082341752
H   H166      1.0  0.31100  0.19770  0.61290  1.0000 0.1082341752
H   H167      1.0  0.94810  0.06100  0.61330  1.0000 0.1082341752
H   H168      1.0  0.58480  0.69810  0.38710  1.0000 0.1082341752
H   H169      1.0  0.65860  0.25270  0.88570  1.0000 0.1082341752
H   H170      1.0  0.02290  0.40860  0.90590  1.0000 0.1082341752
H   H171      1.0  0.36700  0.77290  0.11430  1.0000 0.1082341752
H   H172      1.0  0.50270  0.11700  0.09410  1.0000 0.1082341752
H   H173      1.0  0.59140  0.49730  0.61430  1.0000 0.1082341752
H   H174      1.0  0.22710  0.34140  0.59410  1.0000 0.1082341752
H   H175      1.0  0.88300  0.97710  0.38570  1.0000 0.1082341752
H   H176      1.0  0.74730  0.63300  0.40590  1.0000 0.1082341752
H   H177      1.0  0.58400  0.11610  0.89130  1.0000 0.1297613231
H   H178      1.0  0.94270  0.33400  0.96790  1.0000 0.1297613231
H   H179      1.0  0.22480  0.69270  0.10870  1.0000 0.1297613231
H   H180      1.0  0.36610  0.97480  0.03210  1.0000 0.1297613231
H   H181      1.0  0.66600  0.63390  0.60870  1.0000 0.1297613231
H   H182      1.0  0.30730  0.41600  0.53210  1.0000 0.1297613231
H   H183      1.0  0.02520  0.05730  0.39130  1.0000 0.1297613231
H   H184      1.0  0.88390  0.77520  0.46790  1.0000 0.1297613231
H   H185      1.0  0.58840  0.09750  0.95610  1.0000 0.1082341752
H   H186      1.0  0.88230  0.33840  0.99090  1.0000 0.1082341752
H   H187      1.0  0.14140  0.63230  0.04390  1.0000 0.1082341752
H   H188      1.0  0.34750  0.89140  0.00910  1.0000 0.1082341752
H   H189      1.0  0.66160  0.65250  0.54390  1.0000 0.1082341752
H   H190      1.0  0.36770  0.41160  0.50910  1.0000 0.1082341752
H   H191      1.0  0.10860  0.11770  0.45610  1.0000 0.1082341752
H   H192      1.0  0.90250  0.85860  0.49090  1.0000 0.1082341752
C   C1        1.0  0.75999  0.59552  0.04671  1.0000 0.0574687516
C   C2        1.0  0.96328  0.50999  0.66447  1.0000 0.0574687516
C   C3        1.0  0.54881  0.71328  0.95329  1.0000 0.0574687516
C   C4        1.0  0.84552  0.29881  0.33553  1.0000 0.0574687516
C   C5        1.0  0.49001  0.15448  0.45329  1.0000 0.0574687516
C   C6        1.0  0.28672  0.24001  0.83553  1.0000 0.0574687516
C   C7        1.0  0.70119  0.03672  0.54671  1.0000 0.0574687516
C   C8        1.0  0.40448  0.45119  0.16447  1.0000 0.0574687516
C   C9        1.0  0.74616  0.60681  0.01397  1.0000 -0.1001832275
C   C10       1.0  0.98219  0.49616  0.63935  1.0000 -0.1001832275
C   C11       1.0  0.59284  0.73219  0.98603  1.0000 -0.1051325347
C   C12       1.0  0.85681  0.34284  0.36065  1.0000 -0.1001832275
C   C13       1.0  0.50384  0.14319  0.48603  1.0000 -0.1001832275
C   C14       1.0  0.26781  0.25384  0.86065  1.0000 -0.1001832275
C   C15       1.0  0.65716  0.01781  0.51397  1.0000 -0.1051325347
C   C16       1.0  0.39319  0.40716  0.13935  1.0000 -0.1001832275
C   C17       1.0  0.84218  0.70090  0.99208  1.0000 -0.0381459545
C   C18       1.0  0.10010  0.59218  0.64128  1.0000 -0.0381459545
C   C19       1.0  0.70882  0.85010  0.00792  1.0000 -0.0381459545
C   C20       1.0  0.95090  0.45882  0.35872  1.0000 -0.0381459545
C   C21       1.0  0.40782  0.04910  0.50792  1.0000 -0.0381459545
C   C22       1.0  0.14990  0.15782  0.85872  1.0000 -0.0381459545
C   C23       1.0  0.54118  0.89990  0.49208  1.0000 -0.0381459545
C   C24       1.0  0.29910  0.29118  0.14128  1.0000 -0.0381459545
C   C25       1.0  0.94878  0.77934  0.00412  1.0000 -0.0689834743
C   C26       1.0  0.19466  0.69878  0.66944  1.0000 -0.0689834743
C   C27       1.0  0.77522  0.94466  0.99588  1.0000 -0.0689834743
C   C28       1.0  0.02934  0.52522  0.33056  1.0000 -0.0689834743
C   C29       1.0  0.30122  0.97066  0.49588  1.0000 -0.0689834743
C   C30       1.0  0.05534  0.05122  0.83056  1.0000 -0.0689834743
C   C31       1.0  0.47478  0.80534  0.50412  1.0000 -0.0689834743
C   C32       1.0  0.22066  0.22478  0.16944  1.0000 -0.0689834743
C   C33       1.0  0.05111  0.88013  0.97944  1.0000 0.5600718761
C   C34       1.0  0.32167  0.80111  0.67098  1.0000 0.5600718761
C   C35       1.0  0.90069  0.07167  0.02056  1.0000 0.5600718761
C   C36       1.0  0.13013  0.65069  0.32902  1.0000 0.5600718761
C   C37       1.0  0.19889  0.86987  0.52056  1.0000 0.5600718761
C   C38       1.0  0.92833  0.94889  0.82902  1.0000 0.5600718761
C   C39       1.0  0.34931  0.67833  0.47944  1.0000 0.5600718761
C   C40       1.0  0.11987  0.09931  0.17098  1.0000 0.5600718761
C   C41       1.0  0.95415  0.75949  0.03804  1.0000 0.1481674541
C   C42       1.0  0.16611  0.70415  0.69466  1.0000 0.1481674541
C   C43       1.0  0.72145  0.91611  0.96196  1.0000 0.1481674541
C   C44       1.0  0.00949  0.47145  0.30534  1.0000 0.1481674541
C   C45       1.0  0.29585  0.99051  0.46196  1.0000 0.1481674541
C   C46       1.0  0.08389  0.04585  0.80534  1.0000 0.1481674541
C   C47       1.0  0.52855  0.83389  0.53804  1.0000 0.1481674541
C   C48       1.0  0.24051  0.27855  0.19466  1.0000 0.1481674541
C   C49       1.0  0.06312  0.83821  0.05613  1.0000 0.1697016046
C   C50       1.0  0.25699  0.81312  0.72491  1.0000 0.1697016046
C   C51       1.0  0.78208  0.00699  0.94387  1.0000 0.1697016046
C   C52       1.0  0.08821  0.53208  0.27509  1.0000 0.1697016046
C   C53       1.0  0.18688  0.91179  0.44387  1.0000 0.1697016046
C   C54       1.0  0.99301  0.93688  0.77509  1.0000 0.1697016046
C   C55       1.0  0.46792  0.74301  0.55613  1.0000 0.1697016046
C   C56       1.0  0.16179  0.21792  0.22491  1.0000 0.1697016046
C   C57       1.0  0.13620  0.88385  0.03365  1.0000 -0.1001832275
C   C58       1.0  0.35255  0.88620  0.75235  1.0000 -0.0916888834
C   C59       1.0  0.85020  0.10255  0.96635  1.0000 -0.0916888834
C   C60       1.0  0.13385  0.60020  0.24765  1.0000 -0.0916888834
C   C61       1.0  0.11380  0.86615  0.46635  1.0000 -0.0916888834
C   C62       1.0  0.89745  0.86380  0.74765  1.0000 -0.0916888834
C   C63       1.0  0.39980  0.64745  0.53365  1.0000 -0.1001832275
C   C64       1.0  0.11615  0.14980  0.25235  1.0000 -0.0916888834
C   C65       1.0  0.10048  0.83984  0.98872  1.0000 0.6429310743
C   C66       1.0  0.36176  0.85048  0.76064  1.0000 0.6429310743
C   C67       1.0  0.85112  0.11176  0.01128  1.0000 0.6429310743
C   C68       1.0  0.08984  0.60112  0.23936  1.0000 0.6429310743
C   C69       1.0  0.14952  0.91016  0.51128  1.0000 0.6429310743
C   C70       1.0  0.88824  0.89952  0.73936  1.0000 0.6429310743
C   C71       1.0  0.39888  0.63824  0.48872  1.0000 0.6429310743
C   C72       1.0  0.16016  0.14888  0.26064  1.0000 0.6429310743
C   C73       1.0  0.24115  0.96559  0.05514  1.0000 -0.0496138182
C   C74       1.0  0.43601  0.99115  0.77556  1.0000 -0.0496138182
C   C75       1.0  0.91045  0.18601  0.94486  1.0000 -0.0496138182
C   C76       1.0  0.21559  0.66045  0.22444  1.0000 -0.0496138182
C   C77       1.0  0.00885  0.78441  0.44486  1.0000 -0.0496138182
C   C78       1.0  0.81399  0.75885  0.72444  1.0000 -0.0496138182
C   C79       1.0  0.33955  0.56399  0.55514  1.0000 -0.0496138182
C   C80       1.0  0.03441  0.08955  0.27556  1.0000 -0.0496138182
C   C81       1.0  0.26510  0.99202  0.09752  1.0000 -0.1508808029
C   C82       1.0  0.41758  0.01510  0.77308  1.0000 -0.1508808029
C   C83       1.0  0.89450  0.16758  0.90248  1.0000 -0.1508808029
C   C84       1.0  0.24202  0.64450  0.22692  1.0000 -0.1508808029
C   C85       1.0  0.98490  0.75798  0.40248  1.0000 -0.1508808029
C   C86       1.0  0.83242  0.73490  0.72692  1.0000 -0.1508808029
C   C87       1.0  0.35550  0.58242  0.59752  1.0000 -0.1508808029
C   C88       1.0  0.00798  0.10550  0.27308  1.0000 -0.1508808029
C   C89       1.0  0.18355  0.93479  0.11714  1.0000 0.0541724828
C   C90       1.0  0.31641  0.93355  0.74876  1.0000 0.0541724828
C   C91       1.0  0.81765  0.06641  0.88286  1.0000 0.0541724828
C   C92       1.0  0.18479  0.56765  0.25124  1.0000 0.0541724828
C   C93       1.0  0.06645  0.81521  0.38286  1.0000 0.0541724828
C   C94       1.0  0.93359  0.81645  0.75124  1.0000 0.0541724828
C   C95       1.0  0.43235  0.68359  0.61714  1.0000 0.0541724828
C   C96       1.0  0.06521  0.18235  0.24876  1.0000 0.0541724828
C   C97       1.0  0.08571  0.65544  0.79175  1.0000 0.0886452477
C   C98       1.0  0.54396  0.83571  0.93027  1.0000 0.0886452477
C   C99       1.0  0.86369  0.29396  0.20825  1.0000 0.0886452477
C   C100      1.0  0.90544  0.61369  0.06973  1.0000 0.0886452477
C   C101      1.0  0.16429  0.09456  0.70825  1.0000 0.0886452477
C   C102      1.0  0.70604  0.91429  0.56973  1.0000 0.0886452477
C   C103      1.0  0.38631  0.45604  0.29175  1.0000 0.0886452477
C   C104      1.0  0.34456  0.13631  0.43027  1.0000 0.0886452477
C   C105      1.0  0.14914  0.71140  0.83174  1.0000 -0.1173950494
C   C106      1.0  0.56740  0.89914  0.93774  1.0000 -0.1173950494
C   C107      1.0  0.87966  0.31740  0.16826  1.0000 -0.1173950494
C   C108      1.0  0.96140  0.62966  0.06226  1.0000 -0.1173950494
C   C109      1.0  0.10086  0.03860  0.66826  1.0000 -0.1173950494
C   C110      1.0  0.68260  0.85086  0.56226  1.0000 -0.1173950494
C   C111      1.0  0.37034  0.43260  0.33174  1.0000 -0.1173950494
C   C112      1.0  0.28860  0.12034  0.43774  1.0000 -0.1173950494
C   C113      1.0  0.18020  0.77552  0.85512  1.0000 -0.0585785299
C   C114      1.0  0.57508  0.93020  0.90468  1.0000 -0.0585785299
C   C115      1.0  0.92040  0.32508  0.14488  1.0000 -0.0585785299
C   C116      1.0  0.02552  0.67040  0.09532  1.0000 -0.0585785299
C   C117      1.0  0.06980  0.97448  0.64488  1.0000 -0.0585785299
C   C118      1.0  0.67492  0.81980  0.59532  1.0000 -0.0585785299
C   C119      1.0  0.32960  0.42492  0.35512  1.0000 -0.0585785299
C   C120      1.0  0.22448  0.07960  0.40468  1.0000 -0.0585785299
C   C121      1.0  0.14587  0.78104  0.83931  1.0000 -0.0916888834
C   C122      1.0  0.55656  0.89587  0.86483  1.0000 -0.0813336309
C   C123      1.0  0.94173  0.30656  0.16069  1.0000 -0.0916888834
C   C124      1.0  0.03104  0.69173  0.13517  1.0000 -0.0813336309
C   C125      1.0  0.10413  0.96896  0.66069  1.0000 -0.0813336309
C   C126      1.0  0.69344  0.85413  0.63517  1.0000 -0.0813336309
C   C127      1.0  0.30827  0.44344  0.33931  1.0000 -0.0916888834
C   C128      1.0  0.21896  0.05827  0.36483  1.0000 -0.0813336309
C   C129      1.0  0.19874  0.86738  0.86352  1.0000 0.5679564443
C   C130      1.0  0.58522  0.94874  0.83136  1.0000 0.5679564443
C   C131      1.0  0.00386  0.33522  0.13648  1.0000 0.5679564443
C   C132      1.0  0.11738  0.75386  0.16864  1.0000 0.5679564443
C   C133      1.0  0.05126  0.88262  0.63648  1.0000 0.5679564443
C   C134      1.0  0.66478  0.80126  0.66864  1.0000 0.5679564443
C   C135      1.0  0.24614  0.41478  0.36352  1.0000 0.5679564443
C   C136      1.0  0.13262  0.99614  0.33136  1.0000 0.5679564443
C   C137      1.0  0.07706  0.71707  0.80033  1.0000 0.1481674541
C   C138      1.0  0.52673  0.82706  0.85999  1.0000 0.1481674541
C   C139      1.0  0.91674  0.27673  0.19967  1.0000 0.1481674541
C   C140      1.0  0.96707  0.66674  0.14001  1.0000 0.1481674541
C   C141      1.0  0.17294  0.03293  0.69967  1.0000 0.1481674541
C   C142      1.0  0.72327  0.92294  0.64001  1.0000 0.1481674541
C   C143      1.0  0.33326  0.47327  0.30033  1.0000 0.1481674541
C   C144      1.0  0.28293  0.08326  0.35999  1.0000 0.1481674541
C   C145      1.0  0.03030  0.71130  0.78020  1.0000 0.1409259387
C   C146      1.0  0.50010  0.78030  0.81900  1.0000 0.1409259387
C   C147      1.0  0.93110  0.25010  0.21980  1.0000 0.1409259387
C   C148      1.0  0.96130  0.68110  0.18100  1.0000 0.1409259387
C   C149      1.0  0.21970  0.03870  0.71980  1.0000 0.1409259387
C   C150      1.0  0.74990  0.96970  0.68100  1.0000 0.1409259387
C   C151      1.0  0.31890  0.49990  0.28020  1.0000 0.1409259387
C   C152      1.0  0.28870  0.06890  0.31900  1.0000 0.1409259387
C   C153      1.0  0.97141  0.68676  0.79797  1.0000 -0.0496138182
C   C154      1.0  0.42344  0.72141  0.78465  1.0000 -0.0496138182
C   C155      1.0  0.88879  0.17344  0.20203  1.0000 -0.0496138182
C   C156      1.0  0.93676  0.63879  0.21535  1.0000 -0.0496138182
C   C157      1.0  0.27859  0.06324  0.70203  1.0000 -0.0496138182
C   C158      1.0  0.82656  0.02859  0.71535  1.0000 -0.0496138182
C   C159      1.0  0.36121  0.57656  0.29797  1.0000 -0.0496138182
C   C160      1.0  0.31324  0.11121  0.28465  1.0000 -0.0496138182
C   C161      1.0  0.93270  0.64664  0.83994  1.0000 0.5548963998
C   C162      1.0  0.34276  0.68270  0.78606  1.0000 0.5548963998
C   C163      1.0  0.80670  0.09276  0.16006  1.0000 0.5548963998
C   C164      1.0  0.89664  0.55670  0.21394  1.0000 0.5548963998
C   C165      1.0  0.31730  0.10336  0.66006  1.0000 0.5548963998
C   C166      1.0  0.90724  0.06730  0.71394  1.0000 0.5548963998
C   C167      1.0  0.44330  0.65724  0.33994  1.0000 0.5548963998
C   C168      1.0  0.35336  0.19330  0.28606  1.0000 0.5548963998
C   C169      1.0  0.94058  0.69233  0.77551  1.0000 -0.0813336309
C   C170      1.0  0.41507  0.69058  0.74825  1.0000 -0.0813336309
C   C171      1.0  0.91682  0.16507  0.22449  1.0000 -0.0813336309
C   C172      1.0  0.94233  0.66682  0.25175  1.0000 -0.0813336309
C   C173      1.0  0.30942  0.05767  0.72449  1.0000 -0.0813336309
C   C174      1.0  0.83493  0.05942  0.75175  1.0000 -0.0813336309
C   C175      1.0  0.33318  0.58493  0.27551  1.0000 -0.0813336309
C   C176      1.0  0.30767  0.08318  0.24825  1.0000 -0.0813336309
C   C177      1.0  0.96278  0.71515  0.73633  1.0000 -0.1342636194
C   C178      1.0  0.47645  0.71278  0.74763  1.0000 -0.1342636194
C   C179      1.0  0.97882  0.22645  0.26367  1.0000 -0.1342636194
C   C180      1.0  0.96515  0.72882  0.25237  1.0000 -0.1342636194
C   C181      1.0  0.28722  0.03485  0.76367  1.0000 -0.1342636194
C   C182      1.0  0.77355  0.03722  0.75237  1.0000 -0.1342636194
C   C183      1.0  0.27118  0.52355  0.23633  1.0000 -0.1342636194
C   C184      1.0  0.28485  0.02118  0.24763  1.0000 -0.1342636194
C   C185      1.0  0.01183  0.72779  0.71882  1.0000 0.0886452477
C   C186      1.0  0.54301  0.76183  0.78404  1.0000 0.0886452477
C   C187      1.0  0.00897  0.29301  0.28118  1.0000 0.0886452477
C   C188      1.0  0.97779  0.75897  0.21596  1.0000 0.0886452477
C   C189      1.0  0.23817  0.02221  0.78118  1.0000 0.0886452477
C   C190      1.0  0.70699  0.98817  0.71596  1.0000 0.0886452477
C   C191      1.0  0.24103  0.45699  0.21882  1.0000 0.0886452477
C   C192      1.0  0.27221  0.99103  0.28404  1.0000 0.0886452477
C   C193      1.0  0.47009  0.31990  0.77159  1.0000 0.075770753
C   C194      1.0  0.94850  0.22009  0.65019  1.0000 0.075770753
C   C195      1.0  0.54831  0.69850  0.22841  1.0000 0.075770753
C   C196      1.0  0.56990  0.29831  0.34981  1.0000 0.075770753
C   C197      1.0  0.77991  0.43010  0.72841  1.0000 0.075770753
C   C198      1.0  0.30150  0.52991  0.84981  1.0000 0.075770753
C   C199      1.0  0.70169  0.05150  0.27159  1.0000 0.075770753
C   C200      1.0  0.68010  0.45169  0.15019  1.0000 0.075770753
C   C201      1.0  0.57003  0.38900  0.77483  1.0000 -0.1508808029
C   C202      1.0  0.04520  0.32003  0.68103  1.0000 -0.1508808029
C   C203      1.0  0.61417  0.79520  0.22517  1.0000 -0.1508808029
C   C204      1.0  0.63900  0.36417  0.31897  1.0000 -0.1508808029
C   C205      1.0  0.67997  0.36100  0.72517  1.0000 -0.1508808029
C   C206      1.0  0.20480  0.42997  0.81897  1.0000 -0.1508808029
C   C207      1.0  0.63583  0.95480  0.27483  1.0000 -0.1508808029
C   C208      1.0  0.61100  0.38583  0.18103  1.0000 -0.1508808029
C   C209      1.0  0.59212  0.38526  0.80838  1.0000 -0.0496138182
C   C210      1.0  0.03374  0.34212  0.70686  1.0000 -0.0496138182
C   C211      1.0  0.57688  0.78374  0.19162  1.0000 -0.0496138182
C   C212      1.0  0.63526  0.32688  0.29314  1.0000 -0.0496138182
C   C213      1.0  0.65788  0.36474  0.69162  1.0000 -0.0496138182
C   C214      1.0  0.21626  0.40788  0.79314  1.0000 -0.0496138182
C   C215      1.0  0.67312  0.96626  0.30838  1.0000 -0.0496138182
C   C216      1.0  0.61474  0.42312  0.20686  1.0000 -0.0496138182
C   C217      1.0  0.51922  0.31925  0.83887  1.0000 -0.1001832275
C   C218      1.0  0.93035  0.26922  0.69997  1.0000 -0.1001832275
C   C219      1.0  0.48038  0.68035  0.16113  1.0000 -0.1001832275
C   C220      1.0  0.56925  0.23038  0.30003  1.0000 -0.1001832275
C   C221      1.0  0.73078  0.43075  0.66113  1.0000 -0.1001832275
C   C222      1.0  0.31965  0.48078  0.80003  1.0000 -0.1001832275
C   C223      1.0  0.76962  0.06965  0.33887  1.0000 -0.1001832275
C   C224      1.0  0.68075  0.51962  0.19997  1.0000 -0.1001832275
C   C225      1.0  0.42903  0.26365  0.83508  1.0000 0.1577407051
C   C226      1.0  0.84395  0.17903  0.66538  1.0000 0.1577407051
C   C227      1.0  0.42857  0.59395  0.16492  1.0000 0.1577407051
C   C228      1.0  0.51365  0.17857  0.33462  1.0000 0.1577407051
C   C229      1.0  0.82097  0.48635  0.66492  1.0000 0.1577407051
C   C230      1.0  0.40605  0.57097  0.83462  1.0000 0.1577407051
C   C231      1.0  0.82143  0.15605  0.33508  1.0000 0.1577407051
C   C232      1.0  0.73635  0.57143  0.16538  1.0000 0.1577407051
C   C233      1.0  0.53566  0.30395  0.87181  1.0000 0.6429310743
C   C234      1.0  0.91385  0.28566  0.73171  1.0000 0.6429310743
C   C235      1.0  0.43214  0.66385  0.12819  1.0000 0.6429310743
C   C236      1.0  0.55395  0.18214  0.26829  1.0000 0.6429310743
C   C237      1.0  0.71434  0.44605  0.62819  1.0000 0.6429310743
C   C238      1.0  0.33615  0.46434  0.76829  1.0000 0.6429310743
C   C239      1.0  0.81786  0.08615  0.37181  1.0000 0.6429310743
C   C240      1.0  0.69605  0.56786  0.23171  1.0000 0.6429310743
C   C241      1.0  0.35079  0.20132  0.86631  1.0000 0.1409259387
C   C242      1.0  0.73448  0.10079  0.64947  1.0000 0.1409259387
C   C243      1.0  0.33501  0.48448  0.13369  1.0000 0.1409259387
C   C244      1.0  0.45132  0.08501  0.35053  1.0000 0.1409259387
C   C245      1.0  0.89921  0.54868  0.63369  1.0000 0.1409259387
C   C246      1.0  0.51552  0.64921  0.85053  1.0000 0.1409259387
C   C247      1.0  0.91499  0.26552  0.36631  1.0000 0.1409259387
C   C248      1.0  0.79868  0.66499  0.14947  1.0000 0.1409259387
C   C249      1.0  0.39267  0.24750  0.90817  1.0000 -0.0689834743
C   C250      1.0  0.73450  0.14267  0.64517  1.0000 -0.0689834743
C   C251      1.0  0.33933  0.48450  0.09183  1.0000 -0.0689834743
C   C252      1.0  0.49750  0.08933  0.35483  1.0000 -0.0689834743
C   C253      1.0  0.85733  0.50250  0.59183  1.0000 -0.0689834743
C   C254      1.0  0.51550  0.60733  0.85483  1.0000 -0.0689834743
C   C255      1.0  0.91067  0.26550  0.40817  1.0000 -0.0689834743
C   C256      1.0  0.75250  0.66067  0.14517  1.0000 -0.0689834743
C   C257      1.0  0.52296  0.36377  0.92833  1.0000 0.5600718761
C   C258      1.0  0.84463  0.27296  0.65919  1.0000 0.5600718761
C   C259      1.0  0.43544  0.59463  0.07167  1.0000 0.5600718761
C   C260      1.0  0.61377  0.18544  0.34081  1.0000 0.5600718761
C   C261      1.0  0.72704  0.38623  0.57167  1.0000 0.5600718761
C   C262      1.0  0.40537  0.47704  0.84081  1.0000 0.5600718761
C   C263      1.0  0.81456  0.15537  0.42833  1.0000 0.5600718761
C   C264      1.0  0.63623  0.56456  0.15919  1.0000 0.5600718761
C   C265      1.0  0.30876  0.18229  0.93245  1.0000 -0.0496138182
C   C266      1.0  0.62631  0.05876  0.62647  1.0000 -0.0496138182
C   C267      1.0  0.24984  0.37631  0.06755  1.0000 -0.0496138182
C   C268      1.0  0.43229  0.99984  0.37353  1.0000 -0.0381459545
C   C269      1.0  0.94124  0.56771  0.56755  1.0000 -0.0496138182
C   C270      1.0  0.62369  0.69124  0.87353  1.0000 -0.0496138182
C   C271      1.0  0.00016  0.37369  0.43245  1.0000 -0.0381459545
C   C272      1.0  0.81771  0.75016  0.12647  1.0000 -0.0496138182
C   C273      1.0  0.18911  0.07462  0.91533  1.0000 -0.1051325347
C   C274      1.0  0.52378  0.93911  0.61449  1.0000 -0.1001832275
C   C275      1.0  0.15929  0.27378  0.08467  1.0000 -0.1051325347
C   C276      1.0  0.32462  0.90929  0.38551  1.0000 -0.1051325347
C   C277      1.0  0.06089  0.67538  0.58467  1.0000 -0.1051325347
C   C278      1.0  0.72622  0.81089  0.88551  1.0000 -0.1001832275
C   C279      1.0  0.09071  0.47622  0.41533  1.0000 -0.1051325347
C   C280      1.0  0.92538  0.84071  0.11449  1.0000 -0.1051325347
C   C281      1.0  0.15573  0.03647  0.87380  1.0000 0.0725080408
C   C282      1.0  0.53193  0.90573  0.61926  1.0000 0.0725080408
C   C283      1.0  0.16267  0.28193  0.12620  1.0000 0.0725080408
C   C284      1.0  0.28647  0.91267  0.38074  1.0000 0.0725080408
C   C285      1.0  0.09427  0.71353  0.62620  1.0000 0.0725080408
C   C286      1.0  0.71807  0.84427  0.88074  1.0000 0.0725080408
C   C287      1.0  0.08733  0.46807  0.37380  1.0000 0.0725080408
C   C288      1.0  0.96353  0.83733  0.11926  1.0000 0.0725080408
C   C289      1.0  0.51130  0.18944  0.98834  1.0000 0.5600718761
C   C290      1.0  0.77296  0.26130  0.82186  1.0000 0.5600718761
C   C291      1.0  0.20110  0.52296  0.01166  1.0000 0.5600718761
C   C292      1.0  0.43944  0.95110  0.17814  1.0000 0.5600718761
C   C293      1.0  0.73870  0.56056  0.51166  1.0000 0.5600718761
C   C294      1.0  0.47704  0.48870  0.67814  1.0000 0.5600718761
C   C295      1.0  0.04890  0.22704  0.48834  1.0000 0.5600718761
C   C296      1.0  0.81056  0.79890  0.32186  1.0000 0.5600718761
C   C297      1.0  0.60121  0.25998  0.02359  1.0000 -0.0813336309
C   C298      1.0  0.82762  0.35121  0.84123  1.0000 -0.0813336309
C   C299      1.0  0.23639  0.57762  0.97641  1.0000 -0.0813336309
C   C300      1.0  0.50998  0.98639  0.15877  1.0000 -0.0813336309
C   C301      1.0  0.64879  0.49002  0.47641  1.0000 -0.0813336309
C   C302      1.0  0.42238  0.39879  0.65877  1.0000 -0.0813336309
C   C303      1.0  0.01361  0.17238  0.52359  1.0000 -0.0813336309
C   C304      1.0  0.74002  0.76361  0.34123  1.0000 -0.0813336309
C   C305      1.0  0.60995  0.28960  0.06115  1.0000 -0.1001832275
C   C306      1.0  0.79880  0.35995  0.82035  1.0000 -0.1001832275
C   C307      1.0  0.22845  0.54880  0.93885  1.0000 -0.1001832275
C   C308      1.0  0.53960  0.97845  0.17965  1.0000 -0.1001832275
C   C309      1.0  0.64005  0.46040  0.43885  1.0000 -0.1001832275
C   C310      1.0  0.45120  0.39005  0.67965  1.0000 -0.1001832275
C   C311      1.0  0.02155  0.20120  0.56115  1.0000 -0.1001832275
C   C312      1.0  0.71040  0.77155  0.32035  1.0000 -0.1001832275
C   C313      1.0  0.68460  0.34630  0.09490  1.0000 -0.1390308221
C   C314      1.0  0.83970  0.43460  0.83830  1.0000 -0.1390308221
C   C315      1.0  0.25140  0.58970  0.90510  1.0000 -0.1390308221
C   C316      1.0  0.59630  0.00140  0.16170  1.0000 -0.1390308221
C   C317      1.0  0.56540  0.40370  0.40510  1.0000 -0.1390308221
C   C318      1.0  0.41030  0.31540  0.66170  1.0000 -0.1390308221
C   C319      1.0  0.99860  0.16030  0.59490  1.0000 -0.1390308221
C   C320      1.0  0.65370  0.74860  0.33830  1.0000 -0.1390308221
C   C321      1.0  0.75060  0.37520  0.09020  1.0000 0.0574687516
C   C322      1.0  0.91040  0.50060  0.87540  1.0000 0.0574687516
C   C323      1.0  0.28500  0.66040  0.90980  1.0000 0.0574687516
C   C324      1.0  0.62520  0.03500  0.12460  1.0000 0.0574687516
C   C325      1.0  0.49940  0.37480  0.40980  1.0000 0.0574687516
C   C326      1.0  0.33960  0.24940  0.62460  1.0000 0.0574687516
C   C327      1.0  0.96500  0.08960  0.59020  1.0000 0.0574687516
C   C328      1.0  0.62480  0.71500  0.37540  1.0000 0.0574687516
C   C329      1.0  0.67090  0.29100  0.02110  1.0000 0.1577407051
C   C330      1.0  0.89980  0.42090  0.87990  1.0000 0.1577407051
C   C331      1.0  0.26990  0.64980  0.97890  1.0000 0.1577407051
C   C332      1.0  0.54100  0.01990  0.12010  1.0000 0.1577407051
C   C333      1.0  0.57910  0.45900  0.47890  1.0000 0.1577407051
C   C334      1.0  0.35020  0.32910  0.62010  1.0000 0.1577407051
C   C335      1.0  0.98010  0.10020  0.52110  1.0000 0.1577407051
C   C336      1.0  0.70900  0.73010  0.37990  1.0000 0.1577407051
C   C337      1.0  0.66034  0.25530  0.98344  1.0000 0.1577407051
C   C338      1.0  0.92690  0.41034  0.90504  1.0000 0.1577407051
C   C339      1.0  0.27186  0.67690  0.01656  1.0000 0.1577407051
C   C340      1.0  0.50530  0.02186  0.09496  1.0000 0.1577407051
C   C341      1.0  0.58966  0.49470  0.51656  1.0000 0.1577407051
C   C342      1.0  0.32310  0.33966  0.59496  1.0000 0.1577407051
C   C343      1.0  0.97814  0.07310  0.48344  1.0000 0.1577407051
C   C344      1.0  0.74470  0.72814  0.40504  1.0000 0.1577407051
C   C345      1.0  0.68210  0.29010  0.94740  1.0000 -0.0813336309
C   C346      1.0  0.98470  0.43210  0.89200  1.0000 -0.0813336309
C   C347      1.0  0.34270  0.73470  0.05260  1.0000 -0.0813336309
C   C348      1.0  0.54010  0.09270  0.10800  1.0000 -0.0813336309
C   C349      1.0  0.56790  0.45990  0.55260  1.0000 -0.0813336309
C   C350      1.0  0.26530  0.31790  0.60800  1.0000 -0.0813336309
C   C351      1.0  0.90730  0.01530  0.44740  1.0000 -0.0813336309
C   C352      1.0  0.70990  0.65730  0.39200  1.0000 -0.0813336309
C   C353      1.0  0.73480  0.38196  0.94136  1.0000 0.5679564443
C   C354      1.0  0.04344  0.48480  0.85284  1.0000 0.5679564443
C   C355      1.0  0.44060  0.79344  0.05864  1.0000 0.5679564443
C   C356      1.0  0.63196  0.19060  0.14716  1.0000 0.5679564443
C   C357      1.0  0.51520  0.36804  0.55864  1.0000 0.5679564443
C   C358      1.0  0.20656  0.26520  0.64716  1.0000 0.5679564443
C   C359      1.0  0.80940  0.95656  0.44136  1.0000 0.5679564443
C   C360      1.0  0.61804  0.55940  0.35284  1.0000 0.5679564443
C   C361      1.0  0.65110  0.23580  0.91130  1.0000 -0.0496138182
C   C362      1.0  0.98980  0.40110  0.91530  1.0000 -0.0496138182
C   C363      1.0  0.32450  0.73980  0.08870  1.0000 -0.0496138182
C   C364      1.0  0.48580  0.07450  0.08470  1.0000 -0.0496138182
C   C365      1.0  0.59890  0.51420  0.58870  1.0000 -0.0496138182
C   C366      1.0  0.26020  0.34890  0.58470  1.0000 -0.0496138182
C   C367      1.0  0.92550  0.01020  0.41130  1.0000 -0.0496138182
C   C368      1.0  0.76420  0.67550  0.41530  1.0000 -0.0496138182
C   C369      1.0  0.60910  0.15650  0.91440  1.0000 -0.1390308221
C   C370      1.0  0.94470  0.35910  0.95260  1.0000 -0.1390308221
C   C371      1.0  0.24210  0.69470  0.08560  1.0000 -0.1390308221
C   C372      1.0  0.40650  0.99210  0.04740  1.0000 -0.1390308221
C   C373      1.0  0.64090  0.59350  0.58560  1.0000 -0.1390308221
C   C374      1.0  0.30530  0.39090  0.54740  1.0000 -0.1390308221
C   C375      1.0  0.00790  0.05530  0.41440  1.0000 -0.1390308221
C   C376      1.0  0.84350  0.75790  0.45260  1.0000 -0.1390308221
C   C377      1.0  0.60740  0.14250  0.95310  1.0000 0.0725080408
C   C378      1.0  0.90430  0.35740  0.96490  1.0000 0.0725080408
C   C379      1.0  0.18940  0.65430  0.04690  1.0000 0.0725080408
C   C380      1.0  0.39250  0.93940  0.03510  1.0000 0.0725080408
C   C381      1.0  0.64260  0.60750  0.54690  1.0000 0.0725080408
C   C382      1.0  0.34570  0.39260  0.53510  1.0000 0.0725080408
C   C383      1.0  0.06060  0.09570  0.45310  1.0000 0.0725080408
C   C384      1.0  0.85750  0.81060  0.46490  1.0000 0.0725080408
N   N1        1.0  0.86203  0.67015  0.05938  1.0000 -0.2499115479
N   N2        1.0  0.05265  0.61203  0.69188  1.0000 -0.2499115479
N   N3        1.0  0.61077  0.80265  0.94062  1.0000 -0.2499115479
N   N4        1.0  0.92015  0.36077  0.30812  1.0000 -0.2499115479
N   N5        1.0  0.38797  0.07985  0.44062  1.0000 -0.2499115479
N   N6        1.0  0.19735  0.13797  0.80812  1.0000 -0.2499115479
N   N7        1.0  0.63923  0.94735  0.55938  1.0000 -0.2499115479
N   N8        1.0  0.32985  0.38923  0.19188  1.0000 -0.2499115479
N   N9        1.0  0.08299  0.85798  0.09697  1.0000 -0.2584654709
N   N10       1.0  0.23602  0.83299  0.72501  1.0000 -0.2584654709
N   N11       1.0  0.76101  0.98602  0.90303  1.0000 -0.2584654709
N   N12       1.0  0.10798  0.51101  0.27499  1.0000 -0.2584654709
N   N13       1.0  0.16701  0.89202  0.40303  1.0000 -0.2584654709
N   N14       1.0  0.01398  0.91701  0.77499  1.0000 -0.2584654709
N   N15       1.0  0.48899  0.76398  0.59697  1.0000 -0.2584654709
N   N16       1.0  0.14202  0.23899  0.22501  1.0000 -0.2499115479
N   N17       1.0  0.05186  0.65958  0.77664  1.0000 -0.2499115479
N   N18       1.0  0.52522  0.80186  0.89228  1.0000 -0.2499115479
N   N19       1.0  0.88294  0.27522  0.22336  1.0000 -0.2499115479
N   N20       1.0  0.90958  0.63294  0.10772  1.0000 -0.2499115479
N   N21       1.0  0.19814  0.09042  0.72336  1.0000 -0.2499115479
N   N22       1.0  0.72478  0.94814  0.60772  1.0000 -0.2499115479
N   N23       1.0  0.36706  0.47478  0.27664  1.0000 -0.2499115479
N   N24       1.0  0.34042  0.11706  0.39228  1.0000 -0.2499115479
N   N25       1.0  0.04419  0.72518  0.73977  1.0000 -0.2584654709
N   N26       1.0  0.55442  0.79419  0.81901  1.0000 -0.2584654709
N   N27       1.0  0.98541  0.30442  0.26023  1.0000 -0.2584654709
N   N28       1.0  0.97518  0.73541  0.18099  1.0000 -0.2584654709
N   N29       1.0  0.20581  0.02482  0.76023  1.0000 -0.2584654709
N   N30       1.0  0.69558  0.95581  0.68099  1.0000 -0.2584654709
N   N31       1.0  0.26459  0.44558  0.23977  1.0000 -0.2584654709
N   N32       1.0  0.27482  0.01459  0.31901  1.0000 -0.2584654709
N   N33       1.0  0.23341  0.09741  0.84962  1.0000 -0.2499115479
N   N34       1.0  0.63379  0.98341  0.63600  1.0000 -0.243647113
N   N35       1.0  0.24779  0.38379  0.15038  1.0000 -0.2499115479
N   N36       1.0  0.34741  0.99779  0.36400  1.0000 -0.243647113
N   N37       1.0  0.01659  0.65259  0.65038  1.0000 -0.243647113
N   N38       1.0  0.61621  0.76659  0.86400  1.0000 -0.243647113
N   N39       1.0  0.00221  0.36621  0.34962  1.0000 -0.243647113
N   N40       1.0  0.90259  0.75221  0.13600  1.0000 -0.2499115479
N   N41       1.0  0.39989  0.25782  0.80051  1.0000 -0.2499115479
N   N42       1.0  0.84938  0.14989  0.64207  1.0000 -0.2499115479
N   N43       1.0  0.45731  0.59938  0.19949  1.0000 -0.2499115479
N   N44       1.0  0.50782  0.20731  0.35793  1.0000 -0.2499115479
N   N45       1.0  0.85011  0.49218  0.69949  1.0000 -0.2499115479
N   N46       1.0  0.40062  0.60011  0.85793  1.0000 -0.2499115479
N   N47       1.0  0.79269  0.15062  0.30051  1.0000 -0.2499115479
N   N48       1.0  0.74218  0.54269  0.14207  1.0000 -0.2499115479
N   N49       1.0  0.63133  0.18877  0.98790  1.0000 -0.2584654709
N   N50       1.0  0.89343  0.38133  0.94256  1.0000 -0.2584654709
N   N51       1.0  0.20087  0.64343  0.01210  1.0000 -0.2584654709
N   N52       1.0  0.43877  0.95087  0.05744  1.0000 -0.2584654709
N   N53       1.0  0.61867  0.56123  0.51210  1.0000 -0.2584654709
N   N54       1.0  0.35657  0.36867  0.55744  1.0000 -0.2584654709
N   N55       1.0  0.04913  0.10657  0.48790  1.0000 -0.2584654709
N   N56       1.0  0.81123  0.79913  0.44256  1.0000 -0.2584654709
N   N57       1.0  0.74904  0.35120  0.05444  1.0000 -0.2584654709
N   N58       1.0  0.94460  0.49904  0.89784  1.0000 -0.2584654709
N   N59       1.0  0.29676  0.69460  0.94556  1.0000 -0.2584654709
N   N60       1.0  0.60120  0.04676  0.10216  1.0000 -0.2584654709
N   N61       1.0  0.50096  0.39880  0.44556  1.0000 -0.2584654709
N   N62       1.0  0.30540  0.25096  0.60216  1.0000 -0.2584654709
N   N63       1.0  0.95324  0.05540  0.55444  1.0000 -0.2584654709
N   N64       1.0  0.64880  0.70324  0.39784  1.0000 -0.2584654709
O   O1        1.0  0.02320  0.85114  0.94134  1.0000 -0.5706502418
O   O2        1.0  0.33186  0.77320  0.67206  1.0000 -0.5706502418
O   O3        1.0  0.90980  0.08186  0.05866  1.0000 -0.5706502418
O   O4        1.0  0.10114  0.65980  0.32794  1.0000 -0.5706502418
O   O5        1.0  0.22680  0.89886  0.55866  1.0000 -0.5706502418
O   O6        1.0  0.91814  0.97680  0.82794  1.0000 -0.5706502418
O   O7        1.0  0.34020  0.66814  0.44134  1.0000 -0.5706502418
O   O8        1.0  0.14886  0.09020  0.17206  1.0000 -0.5706502418
O   O9        1.0  0.15740  0.98596  0.99936  1.0000 -0.6011040306
O   O10       1.0  0.40804  0.90740  0.67144  1.0000 -0.6011040306
O   O11       1.0  0.98660  0.15804  0.00064  1.0000 -0.6011040306
O   O12       1.0  0.23596  0.73660  0.32856  1.0000 -0.6011040306
O   O13       1.0  0.09260  0.76404  0.50064  1.0000 -0.6011040306
O   O14       1.0  0.84196  0.84260  0.82856  1.0000 -0.6011040306
O   O15       1.0  0.26340  0.59196  0.49936  1.0000 -0.6011040306
O   O16       1.0  0.01404  0.01340  0.17144  1.0000 -0.6011040306
O   O17       1.0  0.98727  0.73093  0.97540  1.0000 -0.6393400203
O   O18       1.0  0.26187  0.73727  0.75634  1.0000 -0.6393400203
O   O19       1.0  0.75553  0.01187  0.02460  1.0000 -0.6393400203
O   O20       1.0  0.98093  0.50553  0.24366  1.0000 -0.6393400203
O   O21       1.0  0.26273  0.01907  0.52460  1.0000 -0.6393400203
O   O22       1.0  0.98813  0.01273  0.74366  1.0000 -0.6393400203
O   O23       1.0  0.49447  0.73813  0.47540  1.0000 -0.6393400203
O   O24       1.0  0.26907  0.24447  0.25634  1.0000 -0.6393400203
O   O25       1.0  0.18183  0.90935  0.96778  1.0000 -0.6158810701
O   O26       1.0  0.46405  0.93183  0.77248  1.0000 -0.6158810701
O   O27       1.0  0.94157  0.21405  0.03222  1.0000 -0.6158810701
O   O28       1.0  0.15935  0.69157  0.22752  1.0000 -0.6158810701
O   O29       1.0  0.06817  0.84065  0.53222  1.0000 -0.6158810701
O   O30       1.0  0.78595  0.81817  0.72752  1.0000 -0.6158810701
O   O31       1.0  0.30843  0.53595  0.46778  1.0000 -0.6158810701
O   O32       1.0  0.09065  0.05843  0.27248  1.0000 -0.6158810701
O   O33       1.0  0.21722  0.88220  0.90262  1.0000 -0.5867614761
O   O34       1.0  0.56460  0.96722  0.83502  1.0000 -0.5867614761
O   O35       1.0  0.97958  0.31460  0.09738  1.0000 -0.5867614761
O   O36       1.0  0.13220  0.72958  0.16498  1.0000 -0.5867614761
O   O37       1.0  0.03278  0.86780  0.59738  1.0000 -0.5867614761
O   O38       1.0  0.68540  0.78278  0.66498  1.0000 -0.5867614761
O   O39       1.0  0.27042  0.43540  0.40262  1.0000 -0.5867614761
O   O40       1.0  0.11780  0.02042  0.33502  1.0000 -0.5867614761
O   O41       1.0  0.22514  0.92298  0.84632  1.0000 -0.5867614761
O   O42       1.0  0.62882  0.97514  0.80216  1.0000 -0.5867614761
O   O43       1.0  0.07666  0.37882  0.15368  1.0000 -0.5867614761
O   O44       1.0  0.17298  0.82666  0.19784  1.0000 -0.5867614761
O   O45       1.0  0.02486  0.82702  0.65368  1.0000 -0.5867614761
O   O46       1.0  0.62118  0.77486  0.69784  1.0000 -0.5867614761
O   O47       1.0  0.17334  0.37118  0.34632  1.0000 -0.5867614761
O   O48       1.0  0.07702  0.92334  0.30216  1.0000 -0.5867614761
O   O49       1.0  0.85724  0.54869  0.84353  1.0000 -0.5825259234
O   O50       1.0  0.26371  0.60724  0.80855  1.0000 -0.5825259234
O   O51       1.0  0.70516  0.01371  0.15647  1.0000 -0.5825259234
O   O52       1.0  0.79869  0.45516  0.19145  1.0000 -0.5825259234
O   O53       1.0  0.39276  0.20131  0.65647  1.0000 -0.5825259234
O   O54       1.0  0.98629  0.14276  0.69145  1.0000 -0.5825259234
O   O55       1.0  0.54484  0.73629  0.34353  1.0000 -0.5825259234
O   O56       1.0  0.45131  0.29484  0.30855  1.0000 -0.5825259234
O   O57       1.0  0.97161  0.70854  0.86815  1.0000 -0.5825259234
O   O58       1.0  0.35346  0.72161  0.76307  1.0000 -0.5825259234
O   O59       1.0  0.84039  0.10346  0.13185  1.0000 -0.5825259234
O   O60       1.0  0.95854  0.59039  0.23693  1.0000 -0.5825259234
O   O61       1.0  0.27839  0.04146  0.63185  1.0000 -0.5825259234
O   O62       1.0  0.89654  0.02839  0.73693  1.0000 -0.5825259234
O   O63       1.0  0.40961  0.64654  0.36815  1.0000 -0.5825259234
O   O64       1.0  0.29146  0.15961  0.26307  1.0000 -0.5825259234
O   O65       1.0  0.53877  0.35997  0.96114  1.0000 -0.5706502418
O   O66       1.0  0.82763  0.28877  0.67880  1.0000 -0.5706502418
O   O67       1.0  0.39883  0.57763  0.03886  1.0000 -0.5706502418
O   O68       1.0  0.60997  0.14883  0.32120  1.0000 -0.5706502418
O   O69       1.0  0.71123  0.39003  0.53886  1.0000 -0.5706502418
O   O70       1.0  0.42237  0.46123  0.82120  1.0000 -0.5706502418
O   O71       1.0  0.85117  0.17237  0.46114  1.0000 -0.5706502418
O   O72       1.0  0.64003  0.60117  0.17880  1.0000 -0.5706502418
O   O73       1.0  0.60508  0.45510  0.91078  1.0000 -0.5867614761
O   O74       1.0  0.94430  0.35508  0.64998  1.0000 -0.5867614761
O   O75       1.0  0.54432  0.69430  0.08922  1.0000 -0.5867614761
O   O76       1.0  0.70510  0.29432  0.35002  1.0000 -0.5867614761
O   O77       1.0  0.64492  0.29490  0.58922  1.0000 -0.5867614761
O   O78       1.0  0.30570  0.39492  0.85002  1.0000 -0.5867614761
O   O79       1.0  0.70568  0.05570  0.41078  1.0000 -0.5867614761
O   O80       1.0  0.54490  0.45568  0.14998  1.0000 -0.5867614761
O   O81       1.0  0.80434  0.46461  0.97055  1.0000 -0.6011040306
O   O82       1.0  0.08379  0.55434  0.83973  1.0000 -0.6011040306
O   O83       1.0  0.49406  0.83379  0.02945  1.0000 -0.6011040306
O   O84       1.0  0.71461  0.24406  0.16027  1.0000 -0.6011040306
O   O85       1.0  0.44566  0.28539  0.52945  1.0000 -0.6011040306
O   O86       1.0  0.16621  0.19566  0.66027  1.0000 -0.6011040306
O   O87       1.0  0.75594  0.91621  0.47055  1.0000 -0.6011040306
O   O88       1.0  0.53539  0.50594  0.33973  1.0000 -0.6011040306
O   O89       1.0  0.71351  0.37523  0.90674  1.0000 -0.5573951821
O   O90       1.0  0.05677  0.46351  0.83828  1.0000 -0.5573951821
O   O91       1.0  0.46849  0.80677  0.09326  1.0000 -0.5573951821
O   O92       1.0  0.62523  0.21849  0.16172  1.0000 -0.5573951821
O   O93       1.0  0.53649  0.37477  0.59326  1.0000 -0.5573951821
O   O94       1.0  0.19323  0.28649  0.66172  1.0000 -0.5573951821
O   O95       1.0  0.78151  0.94323  0.40674  1.0000 -0.5573951821
O   O96       1.0  0.62477  0.53151  0.33828  1.0000 -0.5573951821
O   O97       1.0  0.63736  0.38383  0.88059  1.0000 -0.6011040306
O   O98       1.0  0.00677  0.38736  0.75353  1.0000 -0.6011040306
O   O99       1.0  0.50324  0.75677  0.11941  1.0000 -0.6011040306
O   O100      1.0  0.63383  0.25324  0.24647  1.0000 -0.6011040306
O   O101      1.0  0.61264  0.36617  0.61941  1.0000 -0.6011040306
O   O102      1.0  0.24323  0.36264  0.74647  1.0000 -0.6011040306
O   O103      1.0  0.74676  0.99323  0.38059  1.0000 -0.6011040306
O   O104      1.0  0.61617  0.49676  0.25353  1.0000 -0.6011040306
O   O105      1.0  0.44273  0.20794  0.88667  1.0000 -0.6393400203
O   O106      1.0  0.80606  0.19273  0.73479  1.0000 -0.6393400203
O   O107      1.0  0.32127  0.55606  0.11333  1.0000 -0.6393400203
O   O108      1.0  0.45794  0.07127  0.26521  1.0000 -0.6393400203
O   O109      1.0  0.80727  0.54206  0.61333  1.0000 -0.6393400203
O   O110      1.0  0.44394  0.55727  0.76521  1.0000 -0.6393400203
O   O111      1.0  0.92873  0.19394  0.38667  1.0000 -0.6393400203
O   O112      1.0  0.79206  0.67873  0.23479  1.0000 -0.6393400203
O   O113      1.0  0.41719  0.08100  0.97599  1.0000 -0.5573951821
O   O114      1.0  0.69120  0.16719  0.83619  1.0000 -0.5573951821
O   O115      1.0  0.10501  0.44120  0.02401  1.0000 -0.5573951821
O   O116      1.0  0.33100  0.85501  0.16381  1.0000 -0.5573951821
O   O117      1.0  0.83281  0.66900  0.52401  1.0000 -0.5573951821
O   O118      1.0  0.55880  0.58281  0.66381  1.0000 -0.5573951821
O   O119      1.0  0.14499  0.30880  0.47599  1.0000 -0.5573951821
O   O120      1.0  0.91900  0.89499  0.33619  1.0000 -0.5573951821
O   O121      1.0  0.53310  0.24251  0.97181  1.0000 -0.5867614761
O   O122      1.0  0.81129  0.28310  0.79059  1.0000 -0.5867614761
O   O123      1.0  0.27070  0.56129  0.02819  1.0000 -0.5867614761
O   O124      1.0  0.49251  0.02070  0.20941  1.0000 -0.5867614761
O   O125      1.0  0.71690  0.50749  0.52819  1.0000 -0.5867614761
O   O126      1.0  0.43871  0.46690  0.70941  1.0000 -0.5867614761
O   O127      1.0  0.97930  0.18871  0.47181  1.0000 -0.5867614761
O   O128      1.0  0.75749  0.72930  0.29059  1.0000 -0.5867614761
