# DDEC6 charges by PACMAN v1.1 (https://github.com/mtap-research/PACMAN-charge/)
data_2013[Ce][nan]3[ASR]5
_chemical_formula_sum              "Ce2 H12 C8 S1 O18"
_cell_length_a       11.6299
_cell_length_b       11.6299
_cell_length_c       6.1689
_cell_angle_alpha    88.6025
_cell_angle_beta     91.3975
_cell_angle_gamma    141.556

_symmetry_space_group_name_H-M    "P 1"
_symmetry_Int_Tables_number       1

loop_
  _symmetry_equiv_pos_as_xyz
  'x, y, z'

loop_
  _atom_site_type_symbol
  _atom_site_label
  _atom_site_symmetry_multiplicity
  _atom_site_fract_x
  _atom_site_fract_y
  _atom_site_fract_z
  _atom_site_occupancy
  _atom_site_charge
Ce  Ce1       1.0  0.89873  0.60809  0.05006  1.0000 1.92361355
Ce  Ce2       1.0  0.60809  0.89873  0.94994  1.0000 1.92361355
H   H1        1.0  0.49330  0.28090  0.93870  1.0000 0.3721364754
H   H2        1.0  0.28090  0.49330  0.06130  1.0000 0.3721364754
H   H3        1.0  0.73070  0.22090  0.80140  1.0000 0.3436210769
H   H4        1.0  0.22090  0.73070  0.19860  1.0000 0.3436210769
H   H5        1.0  0.43790  0.20430  0.63250  1.0000 0.1256630737
H   H6        1.0  0.20430  0.43790  0.36750  1.0000 0.1256630737
H   H7        1.0  0.44160  0.01800  0.54490  1.0000 0.1406707782
H   H8        1.0  0.01800  0.44160  0.45510  1.0000 0.1406707782
H   H9        1.0  0.09230  0.92470  0.42420  1.0000 0.4061362463
H   H10       1.0  0.92470  0.09230  0.57580  1.0000 0.4061362463
H   H11       1.0  0.02030  0.75370  0.44200  1.0000 0.3791859764
H   H12       1.0  0.75370  0.02030  0.55800  1.0000 0.3791859764
C   C1        1.0  0.71640  0.40520  0.55470  1.0000 0.6062096375
C   C2        1.0  0.40520  0.71640  0.44530  1.0000 0.6062096375
C   C3        1.0  0.54300  0.24220  0.69070  1.0000 0.0063097788
C   C4        1.0  0.24220  0.54300  0.30930  1.0000 0.0063097788
C   C5        1.0  0.49740  0.07800  0.68620  1.0000 0.0035323456
C   C6        1.0  0.07800  0.49740  0.31380  1.0000 0.0035323456
C   C7        1.0  0.35280  0.93860  0.86280  1.0000 0.6049932259
C   C8        1.0  0.93860  0.35280  0.13720  1.0000 0.6049932259
S   S1        1.0  0.75490  0.75490  0.00000  1.0000 1.4099628943
O   O1        1.0  0.90560  0.81780  0.88580  1.0000 -0.6996794623
O   O2        1.0  0.81780  0.90560  0.11420  1.0000 -0.6996794623
O   O3        1.0  0.68150  0.60690  0.14860  1.0000 -0.7233486455
O   O4        1.0  0.60690  0.68150  0.85140  1.0000 -0.7233486455
O   O5        1.0  0.85710  0.54510  0.65550  1.0000 -0.5891126227
O   O6        1.0  0.54510  0.85710  0.34450  1.0000 -0.5891126227
O   O7        1.0  0.70360  0.38540  0.35340  1.0000 -0.6082224828
O   O8        1.0  0.38540  0.70360  0.64660  1.0000 -0.6082224828
O   O9        1.0  0.58180  0.30640  0.90280  1.0000 -0.5089350027
O   O10       1.0  0.30640  0.58180  0.09720  1.0000 -0.5089350027
O   O11       1.0  0.65401  0.12759  0.71750  1.0000 -0.5329260212
O   O12       1.0  0.12759  0.65401  0.28250  1.0000 -0.5329260212
O   O13       1.0  0.20290  0.87350  0.86080  1.0000 -0.5891126227
O   O14       1.0  0.87350  0.20290  0.13920  1.0000 -0.5891126227
O   O15       1.0  0.39560  0.89540  0.00440  1.0000 -0.6150227767
O   O16       1.0  0.89540  0.39560  0.99560  1.0000 -0.6150227767
O   O17       1.0  0.06370  0.84070  0.35690  1.0000 -0.7506939751
O   O18       1.0  0.84070  0.06370  0.64310  1.0000 -0.7506939751
