# DDEC6 charges by PACMAN v1.1 (https://github.com/mtap-research/PACMAN-charge/)
data_2013[Co][qtz]3[ASR]1
_chemical_formula_sum              "Co3 H48 C72 N6 O12"
_cell_length_a       10.7022
_cell_length_b       10.7022
_cell_length_c       22.8742
_cell_angle_alpha    90
_cell_angle_beta     90
_cell_angle_gamma    120

_symmetry_space_group_name_H-M    "P 1"
_symmetry_Int_Tables_number       1

loop_
  _symmetry_equiv_pos_as_xyz
  'x, y, z'

loop_
  _atom_site_type_symbol
  _atom_site_label
  _atom_site_symmetry_multiplicity
  _atom_site_fract_x
  _atom_site_fract_y
  _atom_site_fract_z
  _atom_site_occupancy
  _atom_site_charge
Co  Co1       1.0  0.35530  0.64500  0.32250  1.0000 0.7964666285
Co  Co2       1.0  0.35500  0.71030  0.98917  1.0000 0.7964666285
Co  Co3       1.0  0.28970  0.64470  0.65583  1.0000 0.7964666285
H   H1        1.0  0.34930  0.76990  0.20130  1.0000 0.1126988401
H   H2        1.0  0.23010  0.57940  0.86797  1.0000 0.1126988401
H   H3        1.0  0.42060  0.65070  0.53463  1.0000 0.1126988401
H   H4        1.0  0.21510  0.81190  0.14120  1.0000 0.1467651027
H   H5        1.0  0.18810  0.40320  0.80787  1.0000 0.1467651027
H   H6        1.0  0.59680  0.78490  0.47453  1.0000 0.1467651027
H   H7        1.0  0.87890  0.55790  0.24000  1.0000 0.1467651027
H   H8        1.0  0.44210  0.32100  0.90667  1.0000 0.1467651027
H   H9        1.0  0.67900  0.12110  0.57333  1.0000 0.1467651027
H   H10       1.0  0.03520  0.56100  0.30890  1.0000 0.1126988401
H   H11       1.0  0.43900  0.47420  0.97557  1.0000 0.1126988401
H   H12       1.0  0.52580  0.96480  0.64223  1.0000 0.1126988401
H   H13       1.0  0.09130  0.92110  0.11780  1.0000 0.117566758
H   H14       1.0  0.07890  0.17020  0.78447  1.0000 0.117566758
H   H15       1.0  0.82980  0.90870  0.45113  1.0000 0.117566758
H   H16       1.0  0.94630  0.95060  0.04810  1.0000 0.1126988401
H   H17       1.0  0.04940  0.99570  0.71477  1.0000 0.1126988401
H   H18       1.0  0.00430  0.05370  0.38143  1.0000 0.1126988401
H   H19       1.0  0.60000  0.61110  0.11110  1.0000 0.117566758
H   H20       1.0  0.38890  0.98890  0.77777  1.0000 0.117566758
H   H21       1.0  0.01110  0.40000  0.44443  1.0000 0.117566758
H   H22       1.0  0.73680  0.54870  0.16790  1.0000 0.1126988401
H   H23       1.0  0.45130  0.18810  0.83457  1.0000 0.1126988401
H   H24       1.0  0.81190  0.26320  0.50123  1.0000 0.1126988401
H   H25       1.0  0.46380  0.97240  0.34100  1.0000 0.1126988401
H   H26       1.0  0.02760  0.49140  0.00767  1.0000 0.1126988401
H   H27       1.0  0.50860  0.53620  0.67433  1.0000 0.1126988401
H   H28       1.0  0.42780  0.12130  0.40030  1.0000 0.1467651027
H   H29       1.0  0.87870  0.30650  0.06697  1.0000 0.1467651027
H   H30       1.0  0.69350  0.57220  0.73363  1.0000 0.1467651027
H   H31       1.0  0.19260  0.79070  0.50370  1.0000 0.1444091248
H   H32       1.0  0.20930  0.40190  0.17037  1.0000 0.1444091248
H   H33       1.0  0.59810  0.80740  0.83703  1.0000 0.1444091248
H   H34       1.0  0.21600  0.64340  0.43950  1.0000 0.1126988401
H   H35       1.0  0.35660  0.57260  0.10617  1.0000 0.1126988401
H   H36       1.0  0.42740  0.78400  0.77283  1.0000 0.1126988401
H   H37       1.0  0.44010  0.25250  0.47230  1.0000 0.1126988401
H   H38       1.0  0.74750  0.18760  0.13897  1.0000 0.1126988401
H   H39       1.0  0.81240  0.55990  0.80563  1.0000 0.1126988401
H   H40       1.0  0.40310  0.39810  0.53700  1.0000 0.1126988401
H   H41       1.0  0.60190  0.00500  0.20367  1.0000 0.1126988401
H   H42       1.0  0.99500  0.59690  0.87033  1.0000 0.1126988401
H   H43       1.0  0.04780  0.05430  0.59810  1.0000 0.117566758
H   H44       1.0  0.94570  0.99350  0.26477  1.0000 0.117566758
H   H45       1.0  0.00650  0.95220  0.93143  1.0000 0.117566758
H   H46       1.0  0.09460  0.90690  0.53950  1.0000 0.117566758
H   H47       1.0  0.09310  0.18770  0.20617  1.0000 0.117566758
H   H48       1.0  0.81230  0.90540  0.87283  1.0000 0.117566758
C   C1        1.0  0.25120  0.73300  0.21200  1.0000 0.0588133954
C   C2        1.0  0.26700  0.51820  0.87867  1.0000 0.0588133954
C   C3        1.0  0.48180  0.74880  0.54533  1.0000 0.0588133954
C   C4        1.0  0.17280  0.75500  0.17520  1.0000 -0.1998471694
C   C5        1.0  0.24500  0.41780  0.84187  1.0000 -0.1998471694
C   C6        1.0  0.58220  0.82720  0.50853  1.0000 -0.1998471694
C   C7        1.0  0.02640  0.69590  0.18590  1.0000 0.117566758
C   C8        1.0  0.30410  0.33050  0.85257  1.0000 0.117566758
C   C9        1.0  0.66950  0.97360  0.51923  1.0000 0.117566758
C   C10       1.0  0.98000  0.61400  0.23320  1.0000 -0.1998471694
C   C11       1.0  0.38600  0.36600  0.89987  1.0000 -0.1998471694
C   C12       1.0  0.63400  0.02000  0.56653  1.0000 -0.1998471694
C   C13       1.0  0.07300  0.60800  0.27260  1.0000 0.0777238183
C   C14       1.0  0.39200  0.46500  0.93927  1.0000 0.0777238183
C   C15       1.0  0.53500  0.92700  0.60593  1.0000 0.0777238183
C   C16       1.0  0.93340  0.72400  0.14660  1.0000 0.0777238183
C   C17       1.0  0.27600  0.20940  0.81327  1.0000 0.0777238183
C   C18       1.0  0.79060  0.06660  0.47993  1.0000 0.0777238183
C   C19       1.0  0.99300  0.85000  0.11360  1.0000 -0.1294888123
C   C20       1.0  0.15000  0.14300  0.78027  1.0000 -0.1294888123
C   C21       1.0  0.85700  0.00700  0.44693  1.0000 -0.1294888123
C   C22       1.0  0.90400  0.87000  0.07370  1.0000 -0.0881498172
C   C23       1.0  0.13000  0.03400  0.74037  1.0000 -0.0881498172
C   C24       1.0  0.96600  0.09600  0.40703  1.0000 -0.0881498172
C   C25       1.0  0.75330  0.77300  0.07060  1.0000 -0.0192345395
C   C26       1.0  0.22700  0.98030  0.73727  1.0000 -0.0192345395
C   C27       1.0  0.01970  0.24670  0.40393  1.0000 -0.0192345395
C   C28       1.0  0.70200  0.66800  0.10830  1.0000 -0.0993599745
C   C29       1.0  0.33200  0.03400  0.77497  1.0000 -0.0993599745
C   C30       1.0  0.96600  0.29800  0.44163  1.0000 -0.0993599745
C   C31       1.0  0.78250  0.63330  0.14450  1.0000 -0.1479539377
C   C32       1.0  0.36670  0.14920  0.81117  1.0000 -0.1479539377
C   C33       1.0  0.85080  0.21750  0.47783  1.0000 -0.1479539377
C   C34       1.0  0.65790  0.80580  0.03100  1.0000 0.5649283129
C   C35       1.0  0.19420  0.85210  0.69767  1.0000 0.5649283129
C   C36       1.0  0.14790  0.34210  0.36433  1.0000 0.5649283129
C   C37       1.0  0.40300  0.93200  0.37420  1.0000 0.0735900549
C   C38       1.0  0.06800  0.47100  0.04087  1.0000 0.0735900549
C   C39       1.0  0.52900  0.59700  0.70753  1.0000 0.0735900549
C   C40       1.0  0.38300  0.02200  0.41010  1.0000 -0.2082544865
C   C41       1.0  0.97800  0.36100  0.07677  1.0000 -0.2082544865
C   C42       1.0  0.63900  0.61700  0.74343  1.0000 -0.2082544865
C   C43       1.0  0.30110  0.97450  0.45960  1.0000 0.117566758
C   C44       1.0  0.02550  0.32660  0.12627  1.0000 0.117566758
C   C45       1.0  0.67340  0.69890  0.79293  1.0000 0.117566758
C   C46       1.0  0.24600  0.83170  0.46890  1.0000 -0.2082544865
C   C47       1.0  0.16830  0.41430  0.13557  1.0000 -0.2082544865
C   C48       1.0  0.58570  0.75400  0.80223  1.0000 -0.2082544865
C   C49       1.0  0.26300  0.74370  0.43100  1.0000 0.0777238183
C   C50       1.0  0.25630  0.51930  0.09767  1.0000 0.0777238183
C   C51       1.0  0.48070  0.73700  0.76433  1.0000 0.0777238183
C   C52       1.0  0.27400  0.06590  0.49890  1.0000 0.0588133954
C   C53       1.0  0.93410  0.20810  0.16557  1.0000 0.0588133954
C   C54       1.0  0.79190  0.72600  0.83223  1.0000 0.0588133954
C   C55       1.0  0.36100  0.21000  0.49870  1.0000 -0.1418895823
C   C56       1.0  0.79000  0.15100  0.16537  1.0000 -0.1418895823
C   C57       1.0  0.84900  0.63900  0.83203  1.0000 -0.1418895823
C   C58       1.0  0.33700  0.29700  0.53690  1.0000 -0.0993599745
C   C59       1.0  0.70300  0.04000  0.20357  1.0000 -0.0993599745
C   C60       1.0  0.96000  0.66300  0.87023  1.0000 -0.0993599745
C   C61       1.0  0.22400  0.24540  0.57340  1.0000 -0.0192345395
C   C62       1.0  0.75460  0.97860  0.24007  1.0000 -0.0192345395
C   C63       1.0  0.02140  0.77600  0.90673  1.0000 -0.0192345395
C   C64       1.0  0.13000  0.09600  0.57340  1.0000 -0.0881498172
C   C65       1.0  0.90400  0.03400  0.24007  1.0000 -0.0881498172
C   C66       1.0  0.96600  0.87000  0.90673  1.0000 -0.0881498172
C   C67       1.0  0.15700  0.00800  0.53780  1.0000 -0.1294888123
C   C68       1.0  0.99200  0.14900  0.20447  1.0000 -0.1294888123
C   C69       1.0  0.85100  0.84300  0.87113  1.0000 -0.1294888123
C   C70       1.0  0.19800  0.33900  0.61440  1.0000 0.5680018264
C   C71       1.0  0.66100  0.85900  0.28107  1.0000 0.5680018264
C   C72       1.0  0.14100  0.80200  0.94773  1.0000 0.5680018264
N   N1        1.0  0.21180  0.66430  0.26270  1.0000 -0.2286145167
N   N2        1.0  0.33570  0.54750  0.92937  1.0000 -0.2286145167
N   N3        1.0  0.45250  0.78820  0.59603  1.0000 -0.2286145167
N   N4        1.0  0.34220  0.78930  0.38310  1.0000 -0.2286145167
N   N5        1.0  0.21070  0.55290  0.04977  1.0000 -0.2286145167
N   N6        1.0  0.44710  0.65780  0.71643  1.0000 -0.2286145167
O   O1        1.0  0.72180  0.91570  0.99750  1.0000 -0.5630676153
O   O2        1.0  0.08430  0.80610  0.66417  1.0000 -0.5630676153
O   O3        1.0  0.19390  0.27820  0.33083  1.0000 -0.5630676153
O   O4        1.0  0.28930  0.47270  0.61410  1.0000 -0.5988777679
O   O5        1.0  0.52730  0.81660  0.28077  1.0000 -0.5988777679
O   O6        1.0  0.18340  0.71070  0.94743  1.0000 -0.5988777679
O   O7        1.0  0.08700  0.27780  0.64700  1.0000 -0.5653020742
O   O8        1.0  0.72220  0.80920  0.31367  1.0000 -0.5653020742
O   O9        1.0  0.19080  0.91300  0.98033  1.0000 -0.5653020742
O   O10       1.0  0.52690  0.71320  0.03130  1.0000 -0.5824911596
O   O11       1.0  0.28680  0.81370  0.69797  1.0000 -0.5824911596
O   O12       1.0  0.18630  0.47310  0.36463  1.0000 -0.5824911596
