# DDEC6 charges by PACMAN v1.1 (https://github.com/mtap-research/PACMAN-charge/)
data_2013[Mn][nan]3[ASR]9
_chemical_formula_sum              "Mn8 H16 C40 N16 O28"
_cell_length_a       12.857
_cell_length_b       8.1939
_cell_length_c       20.0853
_cell_angle_alpha    90
_cell_angle_beta     119.239
_cell_angle_gamma    90

_symmetry_space_group_name_H-M    "P 1"
_symmetry_Int_Tables_number       1

loop_
  _symmetry_equiv_pos_as_xyz
  'x, y, z'

loop_
  _atom_site_type_symbol
  _atom_site_label
  _atom_site_symmetry_multiplicity
  _atom_site_fract_x
  _atom_site_fract_y
  _atom_site_fract_z
  _atom_site_occupancy
  _atom_site_charge
Mn  Mn1       1.0  0.68056  0.91507  0.06467  1.0000 0.8623447296
Mn  Mn2       1.0  0.31944  0.41507  0.43533  1.0000 0.8623447296
Mn  Mn3       1.0  0.31944  0.08493  0.93533  1.0000 0.8623447296
Mn  Mn4       1.0  0.68056  0.58493  0.56467  1.0000 0.8623447296
Mn  Mn5       1.0  0.70496  0.85653  0.28870  1.0000 0.9776776162
Mn  Mn6       1.0  0.29504  0.35653  0.21130  1.0000 0.9776776162
Mn  Mn7       1.0  0.29504  0.14347  0.71130  1.0000 0.9776776162
Mn  Mn8       1.0  0.70496  0.64347  0.78870  1.0000 0.9776776162
H   H1        1.0  0.35700  0.81550  0.36390  1.0000 0.1394921438
H   H2        1.0  0.64300  0.31550  0.13610  1.0000 0.1394921438
H   H3        1.0  0.64300  0.18450  0.63610  1.0000 0.1394921438
H   H4        1.0  0.35700  0.68450  0.86390  1.0000 0.1394921438
H   H5        1.0  0.25230  0.93190  0.24500  1.0000 0.155518039
H   H6        1.0  0.74770  0.43190  0.25500  1.0000 0.155518039
H   H7        1.0  0.74770  0.06810  0.75500  1.0000 0.155518039
H   H8        1.0  0.25230  0.56810  0.74500  1.0000 0.155518039
H   H9        1.0  0.04350  0.93480  0.18270  1.0000 0.1394921438
H   H10       1.0  0.95650  0.43480  0.31730  1.0000 0.1394921438
H   H11       1.0  0.95650  0.06520  0.81730  1.0000 0.1394921438
H   H12       1.0  0.04350  0.56520  0.68270  1.0000 0.1394921438
H   H13       1.0  0.05770  0.71570  0.36540  1.0000 0.1461371508
H   H14       1.0  0.94230  0.21570  0.13460  1.0000 0.1461371508
H   H15       1.0  0.94230  0.28430  0.63460  1.0000 0.1461371508
H   H16       1.0  0.05770  0.78430  0.86540  1.0000 0.1461371508
C   C1        1.0  0.48650  0.06910  0.25790  1.0000 0.5812288848
C   C2        1.0  0.51350  0.56910  0.24210  1.0000 0.5812288848
C   C3        1.0  0.51350  0.93090  0.74210  1.0000 0.5812288848
C   C4        1.0  0.48650  0.43090  0.75790  1.0000 0.5812288848
C   C5        1.0  0.48270  0.05930  0.18160  1.0000 -0.0064418348
C   C6        1.0  0.51730  0.55930  0.31840  1.0000 -0.0064418348
C   C7        1.0  0.51730  0.94070  0.81840  1.0000 -0.0064418348
C   C8        1.0  0.48270  0.44070  0.68160  1.0000 -0.0064418348
C   C9        1.0  0.40020  0.10180  0.10710  1.0000 0.0110854142
C   C10       1.0  0.59980  0.60180  0.39290  1.0000 0.0110854142
C   C11       1.0  0.59980  0.89820  0.89290  1.0000 0.0110854142
C   C12       1.0  0.40020  0.39820  0.60710  1.0000 0.0110854142
C   C13       1.0  0.27620  0.17400  0.06720  1.0000 0.5992452082
C   C14       1.0  0.72380  0.67400  0.43280  1.0000 0.5992452082
C   C15       1.0  0.72380  0.82600  0.93280  1.0000 0.5992452082
C   C16       1.0  0.27620  0.32600  0.56720  1.0000 0.5992452082
C   C17       1.0  0.27410  0.81800  0.33930  1.0000 -0.0329032513
C   C18       1.0  0.72590  0.31800  0.16070  1.0000 -0.0329032513
C   C19       1.0  0.72590  0.18200  0.66070  1.0000 -0.0329032513
C   C20       1.0  0.27410  0.68200  0.83930  1.0000 -0.0329032513
C   C21       1.0  0.21180  0.88740  0.26850  1.0000 -0.0992108202
C   C22       1.0  0.78820  0.38740  0.23150  1.0000 -0.0992108202
C   C23       1.0  0.78820  0.11260  0.73150  1.0000 -0.0992108202
C   C24       1.0  0.21180  0.61260  0.76850  1.0000 -0.0992108202
C   C25       1.0  0.08690  0.89120  0.23150  1.0000 -0.0805043104
C   C26       1.0  0.91310  0.39120  0.26850  1.0000 -0.0805043104
C   C27       1.0  0.91310  0.10880  0.76850  1.0000 -0.0805043104
C   C28       1.0  0.08690  0.60880  0.73150  1.0000 -0.0805043104
C   C29       1.0  0.02930  0.82870  0.26910  1.0000 -0.0419694121
C   C30       1.0  0.97070  0.32870  0.23090  1.0000 -0.0419694121
C   C31       1.0  0.97070  0.17130  0.73090  1.0000 -0.0419694121
C   C32       1.0  0.02930  0.67130  0.76910  1.0000 -0.0419694121
C   C33       1.0  0.09580  0.75910  0.34020  1.0000 -0.0504966165
C   C34       1.0  0.90420  0.25910  0.15980  1.0000 -0.0504966165
C   C35       1.0  0.90420  0.24090  0.65980  1.0000 -0.0504966165
C   C36       1.0  0.09580  0.74090  0.84020  1.0000 -0.0504966165
C   C37       1.0  0.89400  0.83850  0.23400  1.0000 0.5812288848
C   C38       1.0  0.10600  0.33850  0.26600  1.0000 0.5812288848
C   C39       1.0  0.10600  0.16150  0.76600  1.0000 0.5812288848
C   C40       1.0  0.89400  0.66150  0.73400  1.0000 0.5812288848
N   N1        1.0  0.57799  0.98990  0.17989  1.0000 -0.2194484658
N   N2        1.0  0.42201  0.48990  0.32011  1.0000 -0.2194484658
N   N3        1.0  0.42201  0.01010  0.82011  1.0000 -0.2194484658
N   N4        1.0  0.57799  0.51010  0.67989  1.0000 -0.2252798351
N   N5        1.0  0.55404  0.98880  0.10714  1.0000 -0.0504966165
N   N6        1.0  0.44596  0.48880  0.39286  1.0000 -0.0504966165
N   N7        1.0  0.44596  0.01120  0.89286  1.0000 -0.0504966165
N   N8        1.0  0.55404  0.51120  0.60714  1.0000 -0.0504966165
N   N9        1.0  0.44692  0.05520  0.06222  1.0000 -0.2194484658
N   N10       1.0  0.55308  0.55520  0.43778  1.0000 -0.2194484658
N   N11       1.0  0.55308  0.94480  0.93778  1.0000 -0.2194484658
N   N12       1.0  0.44692  0.44480  0.56222  1.0000 -0.2194484658
N   N13       1.0  0.21580  0.75340  0.37360  1.0000 0.3129635704
N   N14       1.0  0.78420  0.25340  0.12640  1.0000 0.3129635704
N   N15       1.0  0.78420  0.24660  0.62640  1.0000 0.3129635704
N   N16       1.0  0.21580  0.74660  0.87360  1.0000 0.3129635704
O   O1        1.0  0.57153  0.98830  0.31163  1.0000 -0.549485949
O   O2        1.0  0.42847  0.48830  0.18837  1.0000 -0.549485949
O   O3        1.0  0.42847  0.01170  0.68837  1.0000 -0.549485949
O   O4        1.0  0.57153  0.51170  0.81163  1.0000 -0.549485949
O   O5        1.0  0.41048  0.14700  0.26548  1.0000 -0.5291234653
O   O6        1.0  0.58952  0.64700  0.23452  1.0000 -0.5291234653
O   O7        1.0  0.58952  0.85300  0.73452  1.0000 -0.5291234653
O   O8        1.0  0.41048  0.35300  0.76548  1.0000 -0.5291234653
O   O9        1.0  0.23048  0.23000  0.10488  1.0000 -0.5291234653
O   O10       1.0  0.76952  0.73000  0.39512  1.0000 -0.5244542929
O   O11       1.0  0.76952  0.77000  0.89512  1.0000 -0.5291234653
O   O12       1.0  0.23048  0.27000  0.60488  1.0000 -0.5291234653
O   O13       1.0  0.22388  0.17090  0.99508  1.0000 -0.5127261999
O   O14       1.0  0.77612  0.67090  0.50492  1.0000 -0.5127261999
O   O15       1.0  0.77612  0.82910  0.00492  1.0000 -0.5127261999
O   O16       1.0  0.22388  0.32910  0.49508  1.0000 -0.5127261999
O   O17       1.0  0.27949  0.67850  0.44279  1.0000 -0.5008262443
O   O18       1.0  0.72051  0.17850  0.05721  1.0000 -0.5008262443
O   O19       1.0  0.72051  0.32150  0.55721  1.0000 -0.5008262443
O   O20       1.0  0.27949  0.82150  0.94279  1.0000 -0.5008262443
O   O21       1.0  0.85007  0.78170  0.27277  1.0000 -0.5419590595
O   O22       1.0  0.14993  0.28170  0.22723  1.0000 -0.5419590595
O   O23       1.0  0.14993  0.21830  0.72723  1.0000 -0.5419590595
O   O24       1.0  0.85007  0.71830  0.77277  1.0000 -0.5419590595
O   O25       1.0  0.83868  0.90800  0.17028  1.0000 -0.5419590595
O   O26       1.0  0.16132  0.40800  0.32972  1.0000 -0.5419590595
O   O27       1.0  0.16132  0.09200  0.82972  1.0000 -0.5419590595
O   O28       1.0  0.83868  0.59200  0.67028  1.0000 -0.5419590595
