# DDEC6 charges by PACMAN v1.1 (https://github.com/mtap-research/PACMAN-charge/)
data_2013[Zn][crb]3[ASR]6
_chemical_formula_sum              "Zn4 H48 C72 N8 O12"
_cell_length_a       5.396
_cell_length_b       18.7159
_cell_length_c       18.7159
_cell_angle_alpha    88.8093
_cell_angle_beta     81.7119
_cell_angle_gamma    81.7116

_symmetry_space_group_name_H-M    "P 1"
_symmetry_Int_Tables_number       1

loop_
  _symmetry_equiv_pos_as_xyz
  'x, y, z'

loop_
  _atom_site_type_symbol
  _atom_site_label
  _atom_site_symmetry_multiplicity
  _atom_site_fract_x
  _atom_site_fract_y
  _atom_site_fract_z
  _atom_site_occupancy
  _atom_site_charge
Zn  Zn1       1.0  0.66126  0.94231  0.48865  1.0000 0.8983726041
Zn  Zn2       1.0  0.09222  0.05769  0.51135  1.0000 0.8983726041
Zn  Zn3       1.0  0.85009  0.48865  0.05769  1.0000 0.8983726041
Zn  Zn4       1.0  0.39643  0.51135  0.94231  1.0000 0.8831404781
H   H1        1.0  0.74470  0.84540  0.16640  1.0000 0.1275050717
H   H2        1.0  0.42330  0.90530  0.09290  1.0000 0.1190731184
H   H3        1.0  0.00370  0.04240  0.29380  1.0000 0.1275050717
H   H4        1.0  0.19580  0.65100  0.12900  1.0000 0.1190731184
H   H5        1.0  0.65900  0.66750  0.27690  1.0000 0.1114995192
H   H6        1.0  0.04000  0.81660  0.40120  1.0000 0.1275050717
H   H7        1.0  0.84560  0.05260  0.18440  1.0000 0.1114995192
H   H8        1.0  0.32860  0.98770  0.36810  1.0000 0.1472205087
H   H9        1.0  0.90720  0.74520  0.18440  1.0000 0.1190731184
H   H10       1.0  0.37990  0.76550  0.33030  1.0000 0.1190731184
H   H11       1.0  0.06090  0.98470  0.08350  1.0000 0.1114995192
H   H12       1.0  0.75650  0.15460  0.83360  1.0000 0.1275050717
H   H13       1.0  0.42150  0.09470  0.90710  1.0000 0.1190731184
H   H14       1.0  0.33990  0.95760  0.70620  1.0000 0.1275050717
H   H15       1.0  0.97580  0.34900  0.87100  1.0000 0.1190731184
H   H16       1.0  0.60340  0.33250  0.72310  1.0000 0.1114995192
H   H17       1.0  0.25780  0.18340  0.59880  1.0000 0.1275050717
H   H18       1.0  0.08260  0.94740  0.81560  1.0000 0.1114995192
H   H19       1.0  0.68440  0.01230  0.63190  1.0000 0.1472205087
H   H20       1.0  0.83680  0.25480  0.81560  1.0000 0.1190731184
H   H21       1.0  0.47570  0.23450  0.66970  1.0000 0.1190731184
H   H22       1.0  0.12910  0.01530  0.91650  1.0000 0.1114995192
H   H23       1.0  0.08890  0.16640  0.15460  1.0000 0.1275050717
H   H24       1.0  0.48380  0.09290  0.09470  1.0000 0.1190731184
H   H25       1.0  0.70250  0.29380  0.95760  1.0000 0.1190731184
H   H26       1.0  0.67520  0.12900  0.34900  1.0000 0.1275050717
H   H27       1.0  0.06410  0.27690  0.33250  1.0000 0.1114995192
H   H28       1.0  0.55880  0.40120  0.18340  1.0000 0.1275050717
H   H29       1.0  0.97000  0.18440  0.94740  1.0000 0.1114995192
H   H30       1.0  0.30330  0.36810  0.01230  1.0000 0.1413956529
H   H31       1.0  0.90840  0.18440  0.25480  1.0000 0.1190731184
H   H32       1.0  0.28980  0.33030  0.23450  1.0000 0.1190731184
H   H33       1.0  0.85560  0.08350  0.01530  1.0000 0.1114995192
H   H34       1.0  0.40990  0.83360  0.84540  1.0000 0.1275050717
H   H35       1.0  0.67140  0.90710  0.90530  1.0000 0.1190731184
H   H36       1.0  0.95390  0.70620  0.04240  1.0000 0.1190731184
H   H37       1.0  0.15320  0.87100  0.65100  1.0000 0.1190731184
H   H38       1.0  0.67350  0.72310  0.66750  1.0000 0.1114995192
H   H39       1.0  0.14340  0.59880  0.81660  1.0000 0.1275050717
H   H40       1.0  0.10180  0.81560  0.05260  1.0000 0.1114995192
H   H41       1.0  0.68370  0.63190  0.98770  1.0000 0.1472205087
H   H42       1.0  0.34760  0.81560  0.74520  1.0000 0.1190731184
H   H43       1.0  0.85460  0.66970  0.76550  1.0000 0.1190731184
H   H44       1.0  0.95440  0.91650  0.98470  1.0000 0.1114995192
H   H45       1.0  0.72826  0.42546  0.96669  1.0000 0.3573538895
H   H46       1.0  0.64147  0.08334  0.48417  1.0000 0.3573538895
H   H47       1.0  0.23047  0.92591  0.52507  1.0000 0.3785004652
H   H48       1.0  0.17274  0.57454  0.03331  1.0000 0.3573538895
C   C1        1.0  0.11323  0.76328  0.26406  1.0000 0.1775348222
C   C2        1.0  0.65840  0.87321  0.20679  1.0000 -0.2291548564
C   C3        1.0  0.63176  0.58523  0.16445  1.0000 0.553487513
C   C4        1.0  0.74178  0.86545  0.27279  1.0000 0.0982732864
C   C5        1.0  0.44181  0.92333  0.20045  1.0000 0.0888034402
C   C6        1.0  0.33999  0.93242  0.13400  1.0000 -0.1592114383
C   C7        1.0  0.08987  0.01430  0.25356  1.0000 -0.1504605116
C   C8        1.0  0.61923  0.90928  0.33226  1.0000 0.1413956529
C   C9        1.0  0.31388  0.96615  0.26109  1.0000 0.082764359
C   C10       1.0  0.23094  0.67282  0.17110  1.0000 -0.0711127111
C   C11       1.0  0.44974  0.64758  0.19854  1.0000 -0.0243176186
C   C12       1.0  0.50574  0.68312  0.25820  1.0000 -0.0863064343
C   C13       1.0  0.92648  0.83933  0.37051  1.0000 0.1472205087
C   C14       1.0  0.99637  0.02062  0.18864  1.0000 -0.099051688
C   C15       1.0  0.40839  0.95896  0.32766  1.0000 -0.2216851079
C   C16       1.0  0.05984  0.72950  0.20342  1.0000 -0.1868339071
C   C17       1.0  0.33888  0.74122  0.29042  1.0000 -0.2001592407
C   C18       1.0  0.12478  0.97951  0.12833  1.0000 -0.1073654538
C   C19       1.0  0.14057  0.23672  0.73594  1.0000 0.1775348222
C   C20       1.0  0.73840  0.12679  0.79321  1.0000 -0.2291548564
C   C21       1.0  0.38144  0.41477  0.83555  1.0000 0.553487513
C   C22       1.0  0.88002  0.13455  0.72721  1.0000 0.0982732864
C   C23       1.0  0.56559  0.07667  0.79955  1.0000 0.0888034402
C   C24       1.0  0.40641  0.06758  0.86600  1.0000 -0.1592114383
C   C25       1.0  0.35773  0.98570  0.74644  1.0000 -0.1504605116
C   C26       1.0  0.86077  0.09072  0.66774  1.0000 0.1413956529
C   C27       1.0  0.54112  0.03385  0.73891  1.0000 0.082764359
C   C28       1.0  0.07486  0.32718  0.82890  1.0000 -0.0711127111
C   C29       1.0  0.29586  0.35242  0.80146  1.0000 -0.0243176186
C   C30       1.0  0.44706  0.31688  0.74180  1.0000 -0.0863064343
C   C31       1.0  0.13632  0.16067  0.62949  1.0000 0.1472205087
C   C32       1.0  0.20563  0.97938  0.81136  1.0000 -0.099051688
C   C33       1.0  0.69501  0.04104  0.67234  1.0000 -0.2216851079
C   C34       1.0  0.99276  0.27050  0.79658  1.0000 -0.1868339071
C   C35       1.0  0.37052  0.25878  0.70958  1.0000 -0.2001592407
C   C36       1.0  0.23262  0.02049  0.87167  1.0000 -0.1073654538
C   C37       1.0  0.62271  0.26406  0.23672  1.0000 0.1775348222
C   C38       1.0  0.13481  0.20679  0.12679  1.0000 -0.2291548564
C   C39       1.0  0.20379  0.16445  0.41477  1.0000 0.5612978375
C   C40       1.0  0.98543  0.27279  0.13455  1.0000 0.0982732864
C   C41       1.0  0.35774  0.20045  0.07667  1.0000 0.0888034402
C   C42       1.0  0.52601  0.13400  0.06758  1.0000 -0.1592114383
C   C43       1.0  0.65657  0.25356  0.98570  1.0000 -0.1504605116
C   C44       1.0  0.04851  0.33226  0.09072  1.0000 0.1413956529
C   C45       1.0  0.42503  0.26109  0.03385  1.0000 0.082764359
C   C46       1.0  0.59796  0.17110  0.32718  1.0000 -0.0711127111
C   C47       1.0  0.35172  0.19854  0.35242  1.0000 -0.0290440257
C   C48       1.0  0.23606  0.25820  0.31688  1.0000 -0.0863064343
C   C49       1.0  0.70301  0.37051  0.16067  1.0000 0.1472205087
C   C50       1.0  0.81499  0.18864  0.97938  1.0000 -0.099051688
C   C51       1.0  0.26395  0.32766  0.04104  1.0000 -0.2291548564
C   C52       1.0  0.73674  0.20342  0.27050  1.0000 -0.1868339071
C   C53       1.0  0.37070  0.29042  0.25878  1.0000 -0.2001592407
C   C54       1.0  0.74689  0.12833  0.02049  1.0000 -0.1073654538
C   C55       1.0  0.12349  0.73594  0.76328  1.0000 0.1775348222
C   C56       1.0  0.46839  0.79321  0.87321  1.0000 -0.2291548564
C   C57       1.0  0.78301  0.83555  0.58523  1.0000 0.5612978375
C   C58       1.0  0.39277  0.72721  0.86545  1.0000 0.0982732864
C   C59       1.0  0.63486  0.79955  0.92333  1.0000 0.0888034402
C   C60       1.0  0.72759  0.86600  0.93242  1.0000 -0.1592114383
C   C61       1.0  0.89583  0.74644  0.01430  1.0000 -0.1504605116
C   C62       1.0  0.47149  0.66774  0.90928  1.0000 0.1413956529
C   C63       1.0  0.71997  0.73891  0.96615  1.0000 0.082764359
C   C64       1.0  0.09624  0.82890  0.67282  1.0000 -0.0711127111
C   C65       1.0  0.90268  0.80146  0.64758  1.0000 -0.0290440257
C   C66       1.0  0.81114  0.74180  0.68312  1.0000 -0.0863064343
C   C67       1.0  0.23419  0.62949  0.83933  1.0000 0.1472205087
C   C68       1.0  0.98301  0.81136  0.02062  1.0000 -0.099051688
C   C69       1.0  0.63265  0.67234  0.95896  1.0000 -0.2291548564
C   C70       1.0  0.21066  0.79658  0.72950  1.0000 -0.1868339071
C   C71       1.0  0.91990  0.70958  0.74122  1.0000 -0.2001592407
C   C72       1.0  0.89571  0.87167  0.97951  1.0000 -0.1073654538
N   N1        1.0  0.74333  0.89115  0.39199  1.0000 -0.3508792186
N   N2        1.0  0.93944  0.82075  0.29957  1.0000 -0.0567484742
N   N3        1.0  0.02647  0.10885  0.60801  1.0000 -0.3508792186
N   N4        1.0  0.05976  0.17925  0.70043  1.0000 -0.0567484742
N   N5        1.0  0.86468  0.39199  0.10885  1.0000 -0.3508792186
N   N6        1.0  0.76099  0.29957  0.17925  1.0000 -0.0567484742
N   N7        1.0  0.36552  0.60801  0.89115  1.0000 -0.3508792186
N   N8        1.0  0.23981  0.70043  0.82075  1.0000 -0.0567484742
O   O1        1.0  0.30616  0.96558  0.52110  1.0000 -0.8410341406
O   O2        1.0  0.57727  0.55894  0.10772  1.0000 -0.5594881439
O   O3        1.0  0.82538  0.56457  0.19207  1.0000 -0.5419343972
O   O4        1.0  0.79284  0.03442  0.47890  1.0000 -0.8410341406
O   O5        1.0  0.24393  0.44106  0.89228  1.0000 -0.5594881439
O   O6        1.0  0.58202  0.43543  0.80793  1.0000 -0.5419343972
O   O7        1.0  0.17274  0.52110  0.03442  1.0000 -0.8227955961
O   O8        1.0  0.31501  0.10772  0.44106  1.0000 -0.5736476147
O   O9        1.0  0.98255  0.19207  0.43543  1.0000 -0.5419343972
O   O10       1.0  0.72826  0.47890  0.96558  1.0000 -0.8137976789
O   O11       1.0  0.86379  0.89228  0.55894  1.0000 -0.5736476147
O   O12       1.0  0.61005  0.80793  0.56457  1.0000 -0.5419343972
