# DDEC6 charges by PACMAN v1.1 (https://github.com/mtap-research/PACMAN-charge/)
data_2013[Cu][nbo]3[ASR]6
_chemical_formula_sum              "Cu6 B30 H48 C54 O24"
_cell_length_a       16.9323
_cell_length_b       16.9323
_cell_length_c       16.9323
_cell_angle_alpha    67.017
_cell_angle_beta     67.017
_cell_angle_gamma    67.017

_symmetry_space_group_name_H-M    "P 1"
_symmetry_Int_Tables_number       1

loop_
  _symmetry_equiv_pos_as_xyz
  'x, y, z'

loop_
  _atom_site_type_symbol
  _atom_site_label
  _atom_site_symmetry_multiplicity
  _atom_site_fract_x
  _atom_site_fract_y
  _atom_site_fract_z
  _atom_site_occupancy
  _atom_site_charge
Cu  Cu1       1.0  0.42536  0.99471  0.99471  1.0000 0.8996532817
Cu  Cu2       1.0  0.99471  0.99471  0.42536  1.0000 0.8996532817
Cu  Cu3       1.0  0.99471  0.42536  0.99471  1.0000 0.8996532817
Cu  Cu4       1.0  0.00529  0.57464  0.00529  1.0000 0.8996532817
Cu  Cu5       1.0  0.00529  0.00529  0.57464  1.0000 0.8996532817
Cu  Cu6       1.0  0.57464  0.00529  0.00529  1.0000 0.8996532817
B   B1        1.0  0.50655  0.50655  0.89890  1.0000 -0.0846635889
B   B2        1.0  0.50655  0.89890  0.50655  1.0000 -0.0886516098
B   B3        1.0  0.89890  0.50655  0.50655  1.0000 -0.0886516098
B   B4        1.0  0.49345  0.49345  0.10110  1.0000 -0.0886516098
B   B5        1.0  0.10110  0.49345  0.49345  1.0000 -0.0886516098
B   B6        1.0  0.49345  0.10110  0.49345  1.0000 -0.0886516098
B   B7        1.0  0.40950  0.56020  0.96750  1.0000 -0.0886516098
B   B8        1.0  0.56020  0.96750  0.40950  1.0000 -0.0886516098
B   B9        1.0  0.96750  0.40950  0.56020  1.0000 -0.0886516098
B   B10       1.0  0.43980  0.59050  0.03250  1.0000 -0.0886516098
B   B11       1.0  0.03250  0.43980  0.59050  1.0000 -0.0886516098
B   B12       1.0  0.59050  0.03250  0.43980  1.0000 -0.0886516098
B   B13       1.0  0.59050  0.43980  0.03250  1.0000 -0.0886516098
B   B14       1.0  0.43980  0.03250  0.59050  1.0000 -0.0886516098
B   B15       1.0  0.03250  0.59050  0.43980  1.0000 -0.0886516098
B   B16       1.0  0.56020  0.40950  0.96750  1.0000 -0.0886516098
B   B17       1.0  0.96750  0.56020  0.40950  1.0000 -0.0886516098
B   B18       1.0  0.40950  0.96750  0.56020  1.0000 -0.0886516098
B   B19       1.0  0.40330  0.49470  0.07100  1.0000 -0.0886516098
B   B20       1.0  0.49470  0.07100  0.40330  1.0000 -0.0886516098
B   B21       1.0  0.07100  0.40330  0.49470  1.0000 -0.0886516098
B   B22       1.0  0.50530  0.59670  0.92900  1.0000 -0.0886516098
B   B23       1.0  0.92900  0.50530  0.59670  1.0000 -0.0886516098
B   B24       1.0  0.59670  0.92900  0.50530  1.0000 -0.0886516098
B   B25       1.0  0.59670  0.50530  0.92900  1.0000 -0.0886516098
B   B26       1.0  0.50530  0.92900  0.59670  1.0000 -0.0886516098
B   B27       1.0  0.92900  0.59670  0.50530  1.0000 -0.0886516098
B   B28       1.0  0.49470  0.40330  0.07100  1.0000 -0.0886516098
B   B29       1.0  0.07100  0.49470  0.40330  1.0000 -0.0886516098
B   B30       1.0  0.40330  0.07100  0.49470  1.0000 -0.0886516098
H   H1        1.0  0.49450  0.28150  0.98180  1.0000 0.301303765
H   H2        1.0  0.28150  0.98180  0.49450  1.0000 0.301303765
H   H3        1.0  0.98180  0.49450  0.28150  1.0000 0.301303765
H   H4        1.0  0.71850  0.50550  0.01820  1.0000 0.301303765
H   H5        1.0  0.01820  0.71850  0.50550  1.0000 0.301303765
H   H6        1.0  0.50550  0.01820  0.71850  1.0000 0.301303765
H   H7        1.0  0.50550  0.71850  0.01820  1.0000 0.301303765
H   H8        1.0  0.71850  0.01820  0.50550  1.0000 0.301303765
H   H9        1.0  0.01820  0.50550  0.71850  1.0000 0.301303765
H   H10       1.0  0.28150  0.49450  0.98180  1.0000 0.301303765
H   H11       1.0  0.98180  0.28150  0.49450  1.0000 0.301303765
H   H12       1.0  0.49450  0.98180  0.28150  1.0000 0.301303765
H   H13       1.0  0.26765  0.26765  0.97020  1.0000 0.183628375
H   H14       1.0  0.26765  0.97020  0.26765  1.0000 0.183628375
H   H15       1.0  0.97020  0.26765  0.26765  1.0000 0.183628375
H   H16       1.0  0.73235  0.73235  0.02980  1.0000 0.183628375
H   H17       1.0  0.02980  0.73235  0.73235  1.0000 0.183628375
H   H18       1.0  0.73235  0.02980  0.73235  1.0000 0.183628375
H   H19       1.0  0.51085  0.51085  0.82970  1.0000 -0.1413776975
H   H20       1.0  0.51085  0.82970  0.51085  1.0000 -0.1413776975
H   H21       1.0  0.82970  0.51085  0.51085  1.0000 -0.1503879767
H   H22       1.0  0.48915  0.48915  0.17030  1.0000 -0.1413776975
H   H23       1.0  0.17030  0.48915  0.48915  1.0000 -0.1503879767
H   H24       1.0  0.48915  0.17030  0.48915  1.0000 -0.1503879767
H   H25       1.0  0.34790  0.60120  0.94490  1.0000 -0.1667783748
H   H26       1.0  0.60120  0.94490  0.34790  1.0000 -0.1597248275
H   H27       1.0  0.94490  0.34790  0.60120  1.0000 -0.1597248275
H   H28       1.0  0.39880  0.65210  0.05510  1.0000 -0.1667783748
H   H29       1.0  0.05510  0.39880  0.65210  1.0000 -0.1667783748
H   H30       1.0  0.65210  0.05510  0.39880  1.0000 -0.1667783748
H   H31       1.0  0.65210  0.39880  0.05510  1.0000 -0.1667783748
H   H32       1.0  0.39880  0.05510  0.65210  1.0000 -0.1667783748
H   H33       1.0  0.05510  0.65210  0.39880  1.0000 -0.1667783748
H   H34       1.0  0.60120  0.34790  0.94490  1.0000 -0.1597248275
H   H35       1.0  0.94490  0.60120  0.34790  1.0000 -0.1597248275
H   H36       1.0  0.34790  0.94490  0.60120  1.0000 -0.1667783748
H   H37       1.0  0.33710  0.49010  0.12080  1.0000 -0.1413776975
H   H38       1.0  0.49010  0.12080  0.33710  1.0000 -0.1413776975
H   H39       1.0  0.12080  0.33710  0.49010  1.0000 -0.1413776975
H   H40       1.0  0.50990  0.66290  0.87920  1.0000 -0.1413776975
H   H41       1.0  0.87920  0.50990  0.66290  1.0000 -0.1413776975
H   H42       1.0  0.66290  0.87920  0.50990  1.0000 -0.1413776975
H   H43       1.0  0.66290  0.50990  0.87920  1.0000 -0.1413776975
H   H44       1.0  0.50990  0.87920  0.66290  1.0000 -0.1413776975
H   H45       1.0  0.87920  0.66290  0.50990  1.0000 -0.1413776975
H   H46       1.0  0.49010  0.33710  0.12080  1.0000 -0.1413776975
H   H47       1.0  0.12080  0.49010  0.33710  1.0000 -0.1413776975
H   H48       1.0  0.33710  0.12080  0.49010  1.0000 -0.1413776975
C   C1        1.0  0.42979  0.16449  0.97869  1.0000 0.6383146702
C   C2        1.0  0.16449  0.97869  0.42979  1.0000 0.6383146702
C   C3        1.0  0.97869  0.42979  0.16449  1.0000 0.6383146702
C   C4        1.0  0.83551  0.57021  0.02131  1.0000 0.6383146702
C   C5        1.0  0.02131  0.83551  0.57021  1.0000 0.6383146702
C   C6        1.0  0.57021  0.02131  0.83551  1.0000 0.6383146702
C   C7        1.0  0.57021  0.83551  0.02131  1.0000 0.6383146702
C   C8        1.0  0.83551  0.02131  0.57021  1.0000 0.6383146702
C   C9        1.0  0.02131  0.57021  0.83551  1.0000 0.6383146702
C   C10       1.0  0.16449  0.42979  0.97869  1.0000 0.6383146702
C   C11       1.0  0.97869  0.16449  0.42979  1.0000 0.6383146702
C   C12       1.0  0.42979  0.97869  0.16449  1.0000 0.6383146702
C   C13       1.0  0.38856  0.26106  0.97396  1.0000 0.0482574048
C   C14       1.0  0.26106  0.97396  0.38856  1.0000 0.0482574048
C   C15       1.0  0.97396  0.38856  0.26106  1.0000 0.0482574048
C   C16       1.0  0.73894  0.61144  0.02604  1.0000 0.0482574048
C   C17       1.0  0.02604  0.73894  0.61144  1.0000 0.0482574048
C   C18       1.0  0.61144  0.02604  0.73894  1.0000 0.0482574048
C   C19       1.0  0.61144  0.73894  0.02604  1.0000 0.0482574048
C   C20       1.0  0.73894  0.02604  0.61144  1.0000 0.0482574048
C   C21       1.0  0.02604  0.61144  0.73894  1.0000 0.0482574048
C   C22       1.0  0.26106  0.38856  0.97396  1.0000 0.0482574048
C   C23       1.0  0.97396  0.26106  0.38856  1.0000 0.0482574048
C   C24       1.0  0.38856  0.97396  0.26106  1.0000 0.0482574048
C   C25       1.0  0.43438  0.30958  0.97958  1.0000 -0.1503879767
C   C26       1.0  0.30958  0.97958  0.43438  1.0000 -0.1503879767
C   C27       1.0  0.97958  0.43438  0.30958  1.0000 -0.1597248275
C   C28       1.0  0.69042  0.56562  0.02042  1.0000 -0.1597248275
C   C29       1.0  0.02042  0.69042  0.56562  1.0000 -0.1597248275
C   C30       1.0  0.56562  0.02042  0.69042  1.0000 -0.1503879767
C   C31       1.0  0.56562  0.69042  0.02042  1.0000 -0.1597248275
C   C32       1.0  0.69042  0.02042  0.56562  1.0000 -0.1597248275
C   C33       1.0  0.02042  0.56562  0.69042  1.0000 -0.1597248275
C   C34       1.0  0.30958  0.43438  0.97958  1.0000 -0.1503879767
C   C35       1.0  0.97958  0.30958  0.43438  1.0000 -0.1597248275
C   C36       1.0  0.43438  0.97958  0.30958  1.0000 -0.1503879767
C   C37       1.0  0.39655  0.39655  0.98210  1.0000 0.1186688837
C   C38       1.0  0.39655  0.98210  0.39655  1.0000 0.1186688837
C   C39       1.0  0.98210  0.39655  0.39655  1.0000 0.1186688837
C   C40       1.0  0.60345  0.60345  0.01790  1.0000 0.1186688837
C   C41       1.0  0.01790  0.60345  0.60345  1.0000 0.1186688837
C   C42       1.0  0.60345  0.01790  0.60345  1.0000 0.1186688837
C   C43       1.0  0.30061  0.30061  0.97241  1.0000 0.0482574048
C   C44       1.0  0.30061  0.97241  0.30061  1.0000 0.0482574048
C   C45       1.0  0.97241  0.30061  0.30061  1.0000 0.0482574048
C   C46       1.0  0.69939  0.69939  0.02759  1.0000 0.0482574048
C   C47       1.0  0.02759  0.69939  0.69939  1.0000 0.0482574048
C   C48       1.0  0.69939  0.02759  0.69939  1.0000 0.0482574048
C   C49       1.0  0.44765  0.44765  0.99120  1.0000 0.0919510695
C   C50       1.0  0.44765  0.99120  0.44765  1.0000 0.08396114
C   C51       1.0  0.99120  0.44765  0.44765  1.0000 0.0919510695
C   C52       1.0  0.55235  0.55235  0.00880  1.0000 0.0919510695
C   C53       1.0  0.00880  0.55235  0.55235  1.0000 0.08396114
C   C54       1.0  0.55235  0.00880  0.55235  1.0000 0.0919510695
O   O1        1.0  0.38248  0.12318  0.97728  1.0000 -0.4572149616
O   O2        1.0  0.12318  0.97728  0.38248  1.0000 -0.4572149616
O   O3        1.0  0.97728  0.38248  0.12318  1.0000 -0.4572149616
O   O4        1.0  0.87682  0.61752  0.02272  1.0000 -0.4572149616
O   O5        1.0  0.02272  0.87682  0.61752  1.0000 -0.4572149616
O   O6        1.0  0.61752  0.02272  0.87682  1.0000 -0.4472302775
O   O7        1.0  0.61752  0.87682  0.02272  1.0000 -0.4572149616
O   O8        1.0  0.87682  0.02272  0.61752  1.0000 -0.4472302775
O   O9        1.0  0.02272  0.61752  0.87682  1.0000 -0.4572149616
O   O10       1.0  0.12318  0.38248  0.97728  1.0000 -0.4572149616
O   O11       1.0  0.97728  0.12318  0.38248  1.0000 -0.4572149616
O   O12       1.0  0.38248  0.97728  0.12318  1.0000 -0.4572149616
O   O13       1.0  0.50867  0.13267  0.98557  1.0000 -0.4472302775
O   O14       1.0  0.13267  0.98557  0.50867  1.0000 -0.4472302775
O   O15       1.0  0.98557  0.50867  0.13267  1.0000 -0.444125567
O   O16       1.0  0.86733  0.49133  0.01443  1.0000 -0.4472302775
O   O17       1.0  0.01443  0.86733  0.49133  1.0000 -0.4472302775
O   O18       1.0  0.49133  0.01443  0.86733  1.0000 -0.444125567
O   O19       1.0  0.49133  0.86733  0.01443  1.0000 -0.444125567
O   O20       1.0  0.86733  0.01443  0.49133  1.0000 -0.4472302775
O   O21       1.0  0.01443  0.49133  0.86733  1.0000 -0.4472302775
O   O22       1.0  0.13267  0.50867  0.98557  1.0000 -0.4472302775
O   O23       1.0  0.98557  0.13267  0.50867  1.0000 -0.4472302775
O   O24       1.0  0.50867  0.98557  0.13267  1.0000 -0.444125567
