# DDEC6 charges by PACMAN v1.1 (https://github.com/mtap-research/PACMAN-charge/)
data_2013[Cu][ubt]3[ASR]1
_chemical_formula_sum              "Cu24 H120 C216 N12 O120"
_cell_length_a       28.3499
_cell_length_b       28.3499
_cell_length_c       28.3499
_cell_angle_alpha    60
_cell_angle_beta     60
_cell_angle_gamma    60

_symmetry_space_group_name_H-M    "P 1"
_symmetry_Int_Tables_number       1

loop_
  _symmetry_equiv_pos_as_xyz
  'x, y, z'

loop_
  _atom_site_type_symbol
  _atom_site_label
  _atom_site_symmetry_multiplicity
  _atom_site_fract_x
  _atom_site_fract_y
  _atom_site_fract_z
  _atom_site_occupancy
  _atom_site_charge
Cu  Cu1       1.0  0.50000  0.78166  0.21834  1.0000 0.8428912513
Cu  Cu2       1.0  0.50000  0.78166  0.50000  1.0000 0.8428912513
Cu  Cu3       1.0  0.78166  0.50000  0.50000  1.0000 0.8428912513
Cu  Cu4       1.0  0.78166  0.50000  0.21834  1.0000 0.8428912513
Cu  Cu5       1.0  0.50000  0.21834  0.78166  1.0000 0.8428912513
Cu  Cu6       1.0  0.50000  0.21834  0.50000  1.0000 0.8428912513
Cu  Cu7       1.0  0.21834  0.50000  0.50000  1.0000 0.8428912513
Cu  Cu8       1.0  0.21834  0.50000  0.78166  1.0000 0.8428912513
Cu  Cu9       1.0  0.78166  0.21834  0.50000  1.0000 0.8428912513
Cu  Cu10      1.0  0.50000  0.50000  0.21834  1.0000 0.8428912513
Cu  Cu11      1.0  0.21834  0.78166  0.50000  1.0000 0.8428912513
Cu  Cu12      1.0  0.50000  0.50000  0.78166  1.0000 0.8428912513
Cu  Cu13      1.0  0.50000  0.87444  0.12556  1.0000 0.7567168824
Cu  Cu14      1.0  0.50000  0.87444  0.50000  1.0000 0.7567168824
Cu  Cu15      1.0  0.87444  0.50000  0.50000  1.0000 0.7567168824
Cu  Cu16      1.0  0.87444  0.50000  0.12556  1.0000 0.7567168824
Cu  Cu17      1.0  0.50000  0.12556  0.87444  1.0000 0.7567168824
Cu  Cu18      1.0  0.50000  0.12556  0.50000  1.0000 0.7567168824
Cu  Cu19      1.0  0.12556  0.50000  0.50000  1.0000 0.7567168824
Cu  Cu20      1.0  0.12556  0.50000  0.87444  1.0000 0.7567168824
Cu  Cu21      1.0  0.87444  0.12556  0.50000  1.0000 0.7567168824
Cu  Cu22      1.0  0.50000  0.50000  0.12556  1.0000 0.7567168824
Cu  Cu23      1.0  0.12556  0.87444  0.50000  1.0000 0.7567168824
Cu  Cu24      1.0  0.50000  0.50000  0.87444  1.0000 0.7567168824
H   H1        1.0  0.31660  0.97240  0.17740  1.0000 0.1379259789
H   H2        1.0  0.46640  0.82260  0.68340  1.0000 0.1379259789
H   H3        1.0  0.97240  0.31660  0.53360  1.0000 0.1379259789
H   H4        1.0  0.82260  0.46640  0.02760  1.0000 0.1379259789
H   H5        1.0  0.53360  0.17740  0.97240  1.0000 0.1379259789
H   H6        1.0  0.68340  0.02760  0.46640  1.0000 0.1379259789
H   H7        1.0  0.17740  0.53360  0.31660  1.0000 0.1379259789
H   H8        1.0  0.02760  0.68340  0.82260  1.0000 0.1379259789
H   H9        1.0  0.17740  0.31660  0.97240  1.0000 0.1379259789
H   H10       1.0  0.46640  0.02760  0.82260  1.0000 0.1379259789
H   H11       1.0  0.31660  0.17740  0.53360  1.0000 0.1379259789
H   H12       1.0  0.02760  0.46640  0.68340  1.0000 0.1379259789
H   H13       1.0  0.53360  0.97240  0.31660  1.0000 0.1340506309
H   H14       1.0  0.82260  0.68340  0.46640  1.0000 0.1379259789
H   H15       1.0  0.97240  0.53360  0.17740  1.0000 0.1379259789
H   H16       1.0  0.68340  0.82260  0.02760  1.0000 0.1379259789
H   H17       1.0  0.97240  0.17740  0.31660  1.0000 0.1379259789
H   H18       1.0  0.82260  0.02760  0.68340  1.0000 0.1379259789
H   H19       1.0  0.46640  0.68340  0.02760  1.0000 0.1379259789
H   H20       1.0  0.02760  0.82260  0.46640  1.0000 0.1379259789
H   H21       1.0  0.68340  0.46640  0.82260  1.0000 0.1379259789
H   H22       1.0  0.53360  0.31660  0.17740  1.0000 0.1379259789
H   H23       1.0  0.17740  0.97240  0.53360  1.0000 0.1379259789
H   H24       1.0  0.31660  0.53360  0.97240  1.0000 0.1379259789
H   H25       1.0  0.68340  0.02760  0.82260  1.0000 0.1379259789
H   H26       1.0  0.53360  0.17740  0.31660  1.0000 0.1379259789
H   H27       1.0  0.02760  0.68340  0.46640  1.0000 0.1379259789
H   H28       1.0  0.17740  0.53360  0.97240  1.0000 0.1379259789
H   H29       1.0  0.46640  0.82260  0.02760  1.0000 0.1379259789
H   H30       1.0  0.31660  0.97240  0.53360  1.0000 0.1379259789
H   H31       1.0  0.82260  0.46640  0.68340  1.0000 0.1379259789
H   H32       1.0  0.97240  0.31660  0.17740  1.0000 0.1379259789
H   H33       1.0  0.82260  0.68340  0.02760  1.0000 0.1379259789
H   H34       1.0  0.53360  0.97240  0.17740  1.0000 0.1340506309
H   H35       1.0  0.68340  0.82260  0.46640  1.0000 0.1379259789
H   H36       1.0  0.97240  0.53360  0.31660  1.0000 0.1379259789
H   H37       1.0  0.46640  0.02760  0.68340  1.0000 0.1379259789
H   H38       1.0  0.17740  0.31660  0.53360  1.0000 0.1379259789
H   H39       1.0  0.02760  0.46640  0.82260  1.0000 0.1379259789
H   H40       1.0  0.31660  0.17740  0.97240  1.0000 0.1379259789
H   H41       1.0  0.02760  0.82260  0.68340  1.0000 0.1379259789
H   H42       1.0  0.17740  0.97240  0.31660  1.0000 0.1379259789
H   H43       1.0  0.53360  0.31660  0.97240  1.0000 0.1379259789
H   H44       1.0  0.97240  0.17740  0.53360  1.0000 0.1379259789
H   H45       1.0  0.31660  0.53360  0.17740  1.0000 0.1379259789
H   H46       1.0  0.46640  0.68340  0.82260  1.0000 0.1379259789
H   H47       1.0  0.82260  0.02760  0.46640  1.0000 0.1379259789
H   H48       1.0  0.68340  0.46640  0.02760  1.0000 0.1379259789
H   H49       1.0  0.32300  0.83680  0.32300  1.0000 0.1379259789
H   H50       1.0  0.48280  0.67700  0.67700  1.0000 0.1379259789
H   H51       1.0  0.83680  0.32300  0.51720  1.0000 0.1379259789
H   H52       1.0  0.67700  0.48280  0.16320  1.0000 0.1379259789
H   H53       1.0  0.51720  0.32300  0.83680  1.0000 0.1379259789
H   H54       1.0  0.67700  0.16320  0.48280  1.0000 0.1379259789
H   H55       1.0  0.32300  0.51720  0.32300  1.0000 0.1379259789
H   H56       1.0  0.16320  0.67700  0.67700  1.0000 0.1379259789
H   H57       1.0  0.32300  0.32300  0.83680  1.0000 0.1379259789
H   H58       1.0  0.48280  0.16320  0.67700  1.0000 0.1379259789
H   H59       1.0  0.32300  0.32300  0.51720  1.0000 0.1379259789
H   H60       1.0  0.16320  0.48280  0.67700  1.0000 0.1379259789
H   H61       1.0  0.51720  0.83680  0.32300  1.0000 0.1379259789
H   H62       1.0  0.67700  0.67700  0.48280  1.0000 0.1379259789
H   H63       1.0  0.83680  0.51720  0.32300  1.0000 0.1379259789
H   H64       1.0  0.67700  0.67700  0.16320  1.0000 0.1379259789
H   H65       1.0  0.83680  0.32300  0.32300  1.0000 0.1379259789
H   H66       1.0  0.67700  0.16320  0.67700  1.0000 0.1379259789
H   H67       1.0  0.48280  0.67700  0.16320  1.0000 0.1379259789
H   H68       1.0  0.16320  0.67700  0.48280  1.0000 0.1379259789
H   H69       1.0  0.67700  0.48280  0.67700  1.0000 0.1379259789
H   H70       1.0  0.51720  0.32300  0.32300  1.0000 0.1379259789
H   H71       1.0  0.32300  0.83680  0.51720  1.0000 0.1379259789
H   H72       1.0  0.32300  0.51720  0.83680  1.0000 0.1379259789
H   H73       1.0  0.43280  0.96120  0.03880  1.0000 0.1340506309
H   H74       1.0  0.43280  0.96120  0.56720  1.0000 0.1340506309
H   H75       1.0  0.96120  0.43280  0.56720  1.0000 0.1340506309
H   H76       1.0  0.96120  0.43280  0.03880  1.0000 0.1340506309
H   H77       1.0  0.56720  0.03880  0.96120  1.0000 0.1340506309
H   H78       1.0  0.56720  0.03880  0.43280  1.0000 0.1340506309
H   H79       1.0  0.03880  0.56720  0.43280  1.0000 0.1340506309
H   H80       1.0  0.03880  0.56720  0.96120  1.0000 0.1340506309
H   H81       1.0  0.03880  0.43280  0.96120  1.0000 0.1340506309
H   H82       1.0  0.43280  0.03880  0.96120  1.0000 0.1340506309
H   H83       1.0  0.43280  0.03880  0.56720  1.0000 0.1340506309
H   H84       1.0  0.03880  0.43280  0.56720  1.0000 0.1340506309
H   H85       1.0  0.56720  0.96120  0.43280  1.0000 0.1340506309
H   H86       1.0  0.96120  0.56720  0.43280  1.0000 0.1340506309
H   H87       1.0  0.96120  0.56720  0.03880  1.0000 0.1340506309
H   H88       1.0  0.56720  0.96120  0.03880  1.0000 0.1340506309
H   H89       1.0  0.96120  0.03880  0.43280  1.0000 0.1340506309
H   H90       1.0  0.96120  0.03880  0.56720  1.0000 0.1340506309
H   H91       1.0  0.43280  0.56720  0.03880  1.0000 0.1340506309
H   H92       1.0  0.03880  0.96120  0.43280  1.0000 0.1340506309
H   H93       1.0  0.56720  0.43280  0.96120  1.0000 0.1340506309
H   H94       1.0  0.56720  0.43280  0.03880  1.0000 0.1340506309
H   H95       1.0  0.03880  0.96120  0.56720  1.0000 0.1340506309
H   H96       1.0  0.43280  0.56720  0.96120  1.0000 0.1340506309
H   H97       1.0  0.20960  0.05900  0.21120  1.0000 0.3534506909
H   H98       1.0  0.47980  0.78880  0.79040  1.0000 0.3560814044
H   H99       1.0  0.05900  0.20960  0.52020  1.0000 0.3560814044
H   H100      1.0  0.78880  0.47980  0.94100  1.0000 0.3560814044
H   H101      1.0  0.52020  0.21120  0.05900  1.0000 0.3560814044
H   H102      1.0  0.79040  0.94100  0.47980  1.0000 0.3560814044
H   H103      1.0  0.21120  0.52020  0.20960  1.0000 0.3560814044
H   H104      1.0  0.94100  0.79040  0.78880  1.0000 0.3560814044
H   H105      1.0  0.21120  0.20960  0.05900  1.0000 0.3560814044
H   H106      1.0  0.47980  0.94100  0.78880  1.0000 0.3560814044
H   H107      1.0  0.20960  0.21120  0.52020  1.0000 0.3560814044
H   H108      1.0  0.94100  0.47980  0.79040  1.0000 0.3560814044
H   H109      1.0  0.52020  0.05900  0.20960  1.0000 0.3534506909
H   H110      1.0  0.78880  0.79040  0.47980  1.0000 0.3560814044
H   H111      1.0  0.05900  0.52020  0.21120  1.0000 0.3560814044
H   H112      1.0  0.79040  0.78880  0.94100  1.0000 0.3560814044
H   H113      1.0  0.05900  0.21120  0.20960  1.0000 0.3560814044
H   H114      1.0  0.78880  0.94100  0.79040  1.0000 0.3560814044
H   H115      1.0  0.47980  0.79040  0.94100  1.0000 0.3560814044
H   H116      1.0  0.94100  0.78880  0.47980  1.0000 0.3560814044
H   H117      1.0  0.79040  0.47980  0.78880  1.0000 0.3560814044
H   H118      1.0  0.52020  0.20960  0.21120  1.0000 0.3534506909
H   H119      1.0  0.21120  0.05900  0.52020  1.0000 0.3560814044
H   H120      1.0  0.20960  0.52020  0.05900  1.0000 0.3560814044
C   C1        1.0  0.39334  0.87322  0.21684  1.0000 0.5741912899
C   C2        1.0  0.48340  0.78316  0.60666  1.0000 0.5741912899
C   C3        1.0  0.87322  0.39334  0.51660  1.0000 0.5741912899
C   C4        1.0  0.78316  0.48340  0.12678  1.0000 0.5741912899
C   C5        1.0  0.51660  0.21684  0.87322  1.0000 0.5741912899
C   C6        1.0  0.60666  0.12678  0.48340  1.0000 0.5741912899
C   C7        1.0  0.21684  0.51660  0.39334  1.0000 0.5741912899
C   C8        1.0  0.12678  0.60666  0.78316  1.0000 0.5741912899
C   C9        1.0  0.21684  0.39334  0.87322  1.0000 0.5741912899
C   C10       1.0  0.48340  0.12678  0.78316  1.0000 0.5741912899
C   C11       1.0  0.39334  0.21684  0.51660  1.0000 0.5741912899
C   C12       1.0  0.12678  0.48340  0.60666  1.0000 0.5741912899
C   C13       1.0  0.51660  0.87322  0.39334  1.0000 0.5741912899
C   C14       1.0  0.78316  0.60666  0.48340  1.0000 0.5741912899
C   C15       1.0  0.87322  0.51660  0.21684  1.0000 0.5741912899
C   C16       1.0  0.60666  0.78316  0.12678  1.0000 0.5741912899
C   C17       1.0  0.87322  0.21684  0.39334  1.0000 0.5741912899
C   C18       1.0  0.78316  0.12678  0.60666  1.0000 0.5741912899
C   C19       1.0  0.48340  0.60666  0.12678  1.0000 0.5741912899
C   C20       1.0  0.12678  0.78316  0.48340  1.0000 0.5741912899
C   C21       1.0  0.60666  0.48340  0.78316  1.0000 0.5741912899
C   C22       1.0  0.51660  0.39334  0.21684  1.0000 0.5741912899
C   C23       1.0  0.21684  0.87322  0.51660  1.0000 0.5741912899
C   C24       1.0  0.39334  0.51660  0.87322  1.0000 0.5741912899
C   C25       1.0  0.60666  0.12678  0.78316  1.0000 0.5741912899
C   C26       1.0  0.51660  0.21684  0.39334  1.0000 0.5741912899
C   C27       1.0  0.12678  0.60666  0.48340  1.0000 0.5741912899
C   C28       1.0  0.21684  0.51660  0.87322  1.0000 0.5741912899
C   C29       1.0  0.48340  0.78316  0.12678  1.0000 0.5741912899
C   C30       1.0  0.39334  0.87322  0.51660  1.0000 0.5741912899
C   C31       1.0  0.78316  0.48340  0.60666  1.0000 0.5741912899
C   C32       1.0  0.87322  0.39334  0.21684  1.0000 0.5741912899
C   C33       1.0  0.78316  0.60666  0.12678  1.0000 0.5741912899
C   C34       1.0  0.51660  0.87322  0.21684  1.0000 0.5741912899
C   C35       1.0  0.60666  0.78316  0.48340  1.0000 0.5741912899
C   C36       1.0  0.87322  0.51660  0.39334  1.0000 0.5741912899
C   C37       1.0  0.48340  0.12678  0.60666  1.0000 0.5741912899
C   C38       1.0  0.21684  0.39334  0.51660  1.0000 0.5741912899
C   C39       1.0  0.12678  0.48340  0.78316  1.0000 0.5741912899
C   C40       1.0  0.39334  0.21684  0.87322  1.0000 0.5741912899
C   C41       1.0  0.12678  0.78316  0.60666  1.0000 0.5741912899
C   C42       1.0  0.21684  0.87322  0.39334  1.0000 0.5741912899
C   C43       1.0  0.51660  0.39334  0.87322  1.0000 0.5741912899
C   C44       1.0  0.87322  0.21684  0.51660  1.0000 0.5741912899
C   C45       1.0  0.39334  0.51660  0.21684  1.0000 0.5741912899
C   C46       1.0  0.48340  0.60666  0.78316  1.0000 0.5741912899
C   C47       1.0  0.78316  0.12678  0.48340  1.0000 0.5741912899
C   C48       1.0  0.60666  0.48340  0.12678  1.0000 0.5741912899
C   C49       1.0  0.33018  0.90180  0.24516  1.0000 -0.0055642826
C   C50       1.0  0.47714  0.75484  0.66982  1.0000 -0.0055642826
C   C51       1.0  0.90180  0.33018  0.52286  1.0000 -0.0055642826
C   C52       1.0  0.75484  0.47714  0.09820  1.0000 -0.0055642826
C   C53       1.0  0.52286  0.24516  0.90180  1.0000 -0.0055642826
C   C54       1.0  0.66982  0.09820  0.47714  1.0000 -0.0055642826
C   C55       1.0  0.24516  0.52286  0.33018  1.0000 -0.0055642826
C   C56       1.0  0.09820  0.66982  0.75484  1.0000 -0.0055642826
C   C57       1.0  0.24516  0.33018  0.90180  1.0000 -0.0055642826
C   C58       1.0  0.47714  0.09820  0.75484  1.0000 -0.0055642826
C   C59       1.0  0.33018  0.24516  0.52286  1.0000 -0.0055642826
C   C60       1.0  0.09820  0.47714  0.66982  1.0000 -0.0055642826
C   C61       1.0  0.52286  0.90180  0.33018  1.0000 -0.0055642826
C   C62       1.0  0.75484  0.66982  0.47714  1.0000 -0.0055642826
C   C63       1.0  0.90180  0.52286  0.24516  1.0000 -0.0044528687
C   C64       1.0  0.66982  0.75484  0.09820  1.0000 -0.0055642826
C   C65       1.0  0.90180  0.24516  0.33018  1.0000 -0.0055642826
C   C66       1.0  0.75484  0.09820  0.66982  1.0000 -0.0044528687
C   C67       1.0  0.47714  0.66982  0.09820  1.0000 -0.0055642826
C   C68       1.0  0.09820  0.75484  0.47714  1.0000 -0.0055642826
C   C69       1.0  0.66982  0.47714  0.75484  1.0000 -0.0044528687
C   C70       1.0  0.52286  0.33018  0.24516  1.0000 -0.0055642826
C   C71       1.0  0.24516  0.90180  0.52286  1.0000 -0.0055642826
C   C72       1.0  0.33018  0.52286  0.90180  1.0000 -0.0055642826
C   C73       1.0  0.66982  0.09820  0.75484  1.0000 -0.0055642826
C   C74       1.0  0.52286  0.24516  0.33018  1.0000 -0.0055642826
C   C75       1.0  0.09820  0.66982  0.47714  1.0000 -0.0055642826
C   C76       1.0  0.24516  0.52286  0.90180  1.0000 -0.0055642826
C   C77       1.0  0.47714  0.75484  0.09820  1.0000 -0.0055642826
C   C78       1.0  0.33018  0.90180  0.52286  1.0000 -0.0044528687
C   C79       1.0  0.75484  0.47714  0.66982  1.0000 -0.0044528687
C   C80       1.0  0.90180  0.33018  0.24516  1.0000 -0.0055642826
C   C81       1.0  0.75484  0.66982  0.09820  1.0000 -0.0055642826
C   C82       1.0  0.52286  0.90180  0.24516  1.0000 -0.0055642826
C   C83       1.0  0.66982  0.75484  0.47714  1.0000 -0.0055642826
C   C84       1.0  0.90180  0.52286  0.33018  1.0000 -0.0044528687
C   C85       1.0  0.47714  0.09820  0.66982  1.0000 -0.0044528687
C   C86       1.0  0.24516  0.33018  0.52286  1.0000 -0.0055642826
C   C87       1.0  0.09820  0.47714  0.75484  1.0000 -0.0055642826
C   C88       1.0  0.33018  0.24516  0.90180  1.0000 -0.0055642826
C   C89       1.0  0.09820  0.75484  0.66982  1.0000 -0.0055642826
C   C90       1.0  0.24516  0.90180  0.33018  1.0000 -0.0055642826
C   C91       1.0  0.52286  0.33018  0.90180  1.0000 -0.0055642826
C   C92       1.0  0.90180  0.24516  0.52286  1.0000 -0.0055642826
C   C93       1.0  0.33018  0.52286  0.24516  1.0000 -0.0055642826
C   C94       1.0  0.47714  0.66982  0.75484  1.0000 -0.0055642826
C   C95       1.0  0.75484  0.09820  0.47714  1.0000 -0.0055642826
C   C96       1.0  0.66982  0.47714  0.09820  1.0000 -0.0055642826
C   C97       1.0  0.29883  0.95409  0.21597  1.0000 -0.1923919755
C   C98       1.0  0.46889  0.78403  0.70117  1.0000 -0.1923919755
C   C99       1.0  0.95409  0.29883  0.53111  1.0000 -0.1923919755
C   C100      1.0  0.78403  0.46889  0.04591  1.0000 -0.1956581059
C   C101      1.0  0.53111  0.21597  0.95409  1.0000 -0.1923919755
C   C102      1.0  0.70117  0.04591  0.46889  1.0000 -0.1923919755
C   C103      1.0  0.21597  0.53111  0.29883  1.0000 -0.1956581059
C   C104      1.0  0.04591  0.70117  0.78403  1.0000 -0.1956581059
C   C105      1.0  0.21597  0.29883  0.95409  1.0000 -0.1923919755
C   C106      1.0  0.46889  0.04591  0.78403  1.0000 -0.1923919755
C   C107      1.0  0.29883  0.21597  0.53111  1.0000 -0.1923919755
C   C108      1.0  0.04591  0.46889  0.70117  1.0000 -0.1923919755
C   C109      1.0  0.53111  0.95409  0.29883  1.0000 -0.1923919755
C   C110      1.0  0.78403  0.70117  0.46889  1.0000 -0.1923919755
C   C111      1.0  0.95409  0.53111  0.21597  1.0000 -0.1956581059
C   C112      1.0  0.70117  0.78403  0.04591  1.0000 -0.1956581059
C   C113      1.0  0.95409  0.21597  0.29883  1.0000 -0.1923919755
C   C114      1.0  0.78403  0.04591  0.70117  1.0000 -0.1923919755
C   C115      1.0  0.46889  0.70117  0.04591  1.0000 -0.1923919755
C   C116      1.0  0.04591  0.78403  0.46889  1.0000 -0.1923919755
C   C117      1.0  0.70117  0.46889  0.78403  1.0000 -0.1923919755
C   C118      1.0  0.53111  0.29883  0.21597  1.0000 -0.1923919755
C   C119      1.0  0.21597  0.95409  0.53111  1.0000 -0.1923919755
C   C120      1.0  0.29883  0.53111  0.95409  1.0000 -0.1923919755
C   C121      1.0  0.70117  0.04591  0.78403  1.0000 -0.1923919755
C   C122      1.0  0.53111  0.21597  0.29883  1.0000 -0.1956581059
C   C123      1.0  0.04591  0.70117  0.46889  1.0000 -0.1923919755
C   C124      1.0  0.21597  0.53111  0.95409  1.0000 -0.1923919755
C   C125      1.0  0.46889  0.78403  0.04591  1.0000 -0.1956581059
C   C126      1.0  0.29883  0.95409  0.53111  1.0000 -0.1923919755
C   C127      1.0  0.78403  0.46889  0.70117  1.0000 -0.1956581059
C   C128      1.0  0.95409  0.29883  0.21597  1.0000 -0.1923919755
C   C129      1.0  0.78403  0.70117  0.04591  1.0000 -0.1956581059
C   C130      1.0  0.53111  0.95409  0.21597  1.0000 -0.1923919755
C   C131      1.0  0.70117  0.78403  0.46889  1.0000 -0.1923919755
C   C132      1.0  0.95409  0.53111  0.29883  1.0000 -0.1956581059
C   C133      1.0  0.46889  0.04591  0.70117  1.0000 -0.1956581059
C   C134      1.0  0.21597  0.29883  0.53111  1.0000 -0.1956581059
C   C135      1.0  0.04591  0.46889  0.78403  1.0000 -0.1923919755
C   C136      1.0  0.29883  0.21597  0.95409  1.0000 -0.1956581059
C   C137      1.0  0.04591  0.78403  0.70117  1.0000 -0.1956581059
C   C138      1.0  0.21597  0.95409  0.29883  1.0000 -0.1923919755
C   C139      1.0  0.53111  0.29883  0.95409  1.0000 -0.1923919755
C   C140      1.0  0.95409  0.21597  0.53111  1.0000 -0.1956581059
C   C141      1.0  0.29883  0.53111  0.21597  1.0000 -0.1956581059
C   C142      1.0  0.46889  0.70117  0.78403  1.0000 -0.1923919755
C   C143      1.0  0.78403  0.04591  0.46889  1.0000 -0.1923919755
C   C144      1.0  0.70117  0.46889  0.04591  1.0000 -0.1956581059
C   C145      1.0  0.24230  0.97974  0.24230  1.0000 0.2336962556
C   C146      1.0  0.46434  0.75770  0.75770  1.0000 0.2336962556
C   C147      1.0  0.97974  0.24230  0.53566  1.0000 0.2336962556
C   C148      1.0  0.75770  0.46434  0.02026  1.0000 0.2336962556
C   C149      1.0  0.53566  0.24230  0.97974  1.0000 0.2336962556
C   C150      1.0  0.75770  0.02026  0.46434  1.0000 0.2336962556
C   C151      1.0  0.24230  0.53566  0.24230  1.0000 0.2336962556
C   C152      1.0  0.02026  0.75770  0.75770  1.0000 0.2336962556
C   C153      1.0  0.24230  0.24230  0.97974  1.0000 0.2336962556
C   C154      1.0  0.46434  0.02026  0.75770  1.0000 0.2336962556
C   C155      1.0  0.24230  0.24230  0.53566  1.0000 0.2336962556
C   C156      1.0  0.02026  0.46434  0.75770  1.0000 0.2354186329
C   C157      1.0  0.53566  0.97974  0.24230  1.0000 0.2336962556
C   C158      1.0  0.75770  0.75770  0.46434  1.0000 0.2336962556
C   C159      1.0  0.97974  0.53566  0.24230  1.0000 0.2336962556
C   C160      1.0  0.75770  0.75770  0.02026  1.0000 0.2336962556
C   C161      1.0  0.97974  0.24230  0.24230  1.0000 0.2336962556
C   C162      1.0  0.75770  0.02026  0.75770  1.0000 0.2336962556
C   C163      1.0  0.46434  0.75770  0.02026  1.0000 0.2336962556
C   C164      1.0  0.02026  0.75770  0.46434  1.0000 0.2336962556
C   C165      1.0  0.75770  0.46434  0.75770  1.0000 0.2336962556
C   C166      1.0  0.53566  0.24230  0.24230  1.0000 0.2336962556
C   C167      1.0  0.24230  0.97974  0.53566  1.0000 0.2336962556
C   C168      1.0  0.24230  0.53566  0.97974  1.0000 0.2336962556
C   C169      1.0  0.30304  0.87354  0.30304  1.0000 -0.117584002
C   C170      1.0  0.47962  0.69696  0.69696  1.0000 -0.117584002
C   C171      1.0  0.87354  0.30304  0.52038  1.0000 -0.117584002
C   C172      1.0  0.69696  0.47962  0.12646  1.0000 -0.117584002
C   C173      1.0  0.52038  0.30304  0.87354  1.0000 -0.117584002
C   C174      1.0  0.69696  0.12646  0.47962  1.0000 -0.117584002
C   C175      1.0  0.30304  0.52038  0.30304  1.0000 -0.117584002
C   C176      1.0  0.12646  0.69696  0.69696  1.0000 -0.117584002
C   C177      1.0  0.30304  0.30304  0.87354  1.0000 -0.117584002
C   C178      1.0  0.47962  0.12646  0.69696  1.0000 -0.117584002
C   C179      1.0  0.30304  0.30304  0.52038  1.0000 -0.117584002
C   C180      1.0  0.12646  0.47962  0.69696  1.0000 -0.117584002
C   C181      1.0  0.52038  0.87354  0.30304  1.0000 -0.117584002
C   C182      1.0  0.69696  0.69696  0.47962  1.0000 -0.117584002
C   C183      1.0  0.87354  0.52038  0.30304  1.0000 -0.117584002
C   C184      1.0  0.69696  0.69696  0.12646  1.0000 -0.117584002
C   C185      1.0  0.87354  0.30304  0.30304  1.0000 -0.117584002
C   C186      1.0  0.69696  0.12646  0.69696  1.0000 -0.117584002
C   C187      1.0  0.47962  0.69696  0.12646  1.0000 -0.117584002
C   C188      1.0  0.12646  0.69696  0.47962  1.0000 -0.117584002
C   C189      1.0  0.69696  0.47962  0.69696  1.0000 -0.117584002
C   C190      1.0  0.52038  0.30304  0.30304  1.0000 -0.117584002
C   C191      1.0  0.30304  0.87354  0.52038  1.0000 -0.117584002
C   C192      1.0  0.30304  0.52038  0.87354  1.0000 -0.117584002
C   C193      1.0  0.46173  0.97659  0.02341  1.0000 0.01194194
C   C194      1.0  0.46173  0.97659  0.53827  1.0000 0.01194194
C   C195      1.0  0.97659  0.46173  0.53827  1.0000 0.01194194
C   C196      1.0  0.97659  0.46173  0.02341  1.0000 0.01194194
C   C197      1.0  0.53827  0.02341  0.97659  1.0000 0.01194194
C   C198      1.0  0.53827  0.02341  0.46173  1.0000 0.01194194
C   C199      1.0  0.02341  0.53827  0.46173  1.0000 0.01194194
C   C200      1.0  0.02341  0.53827  0.97659  1.0000 0.01194194
C   C201      1.0  0.02341  0.46173  0.97659  1.0000 0.01194194
C   C202      1.0  0.46173  0.02341  0.97659  1.0000 0.01194194
C   C203      1.0  0.46173  0.02341  0.53827  1.0000 0.01194194
C   C204      1.0  0.02341  0.46173  0.53827  1.0000 0.01194194
C   C205      1.0  0.53827  0.97659  0.46173  1.0000 0.01194194
C   C206      1.0  0.97659  0.53827  0.46173  1.0000 0.01194194
C   C207      1.0  0.97659  0.53827  0.02341  1.0000 0.01194194
C   C208      1.0  0.53827  0.97659  0.02341  1.0000 0.01194194
C   C209      1.0  0.97659  0.02341  0.46173  1.0000 0.01194194
C   C210      1.0  0.97659  0.02341  0.53827  1.0000 0.01194194
C   C211      1.0  0.46173  0.53827  0.02341  1.0000 0.01194194
C   C212      1.0  0.02341  0.97659  0.46173  1.0000 0.01194194
C   C213      1.0  0.53827  0.46173  0.97659  1.0000 0.01194194
C   C214      1.0  0.53827  0.46173  0.02341  1.0000 0.01194194
C   C215      1.0  0.02341  0.97659  0.53827  1.0000 0.01194194
C   C216      1.0  0.46173  0.53827  0.97659  1.0000 0.01194194
N   N1        1.0  0.50000  0.95088  0.04912  1.0000 -0.1923919755
N   N2        1.0  0.50000  0.95088  0.50000  1.0000 -0.1923919755
N   N3        1.0  0.95088  0.50000  0.50000  1.0000 -0.1923919755
N   N4        1.0  0.95088  0.50000  0.04912  1.0000 -0.1923919755
N   N5        1.0  0.50000  0.04912  0.95088  1.0000 -0.1923919755
N   N6        1.0  0.50000  0.04912  0.50000  1.0000 -0.1923919755
N   N7        1.0  0.04912  0.50000  0.50000  1.0000 -0.1923919755
N   N8        1.0  0.04912  0.50000  0.95088  1.0000 -0.1923919755
N   N9        1.0  0.95088  0.04912  0.50000  1.0000 -0.1923919755
N   N10       1.0  0.50000  0.50000  0.04912  1.0000 -0.1923919755
N   N11       1.0  0.04912  0.95088  0.50000  1.0000 -0.1923919755
N   N12       1.0  0.50000  0.50000  0.95088  1.0000 -0.1923919755
O   O1        1.0  0.41722  0.82388  0.24530  1.0000 -0.49446322
O   O2        1.0  0.48640  0.75470  0.58278  1.0000 -0.496019823
O   O3        1.0  0.82388  0.41722  0.51360  1.0000 -0.496019823
O   O4        1.0  0.75470  0.48640  0.17612  1.0000 -0.496019823
O   O5        1.0  0.51360  0.24530  0.82388  1.0000 -0.49446322
O   O6        1.0  0.58278  0.17612  0.48640  1.0000 -0.496019823
O   O7        1.0  0.24530  0.51360  0.41722  1.0000 -0.496019823
O   O8        1.0  0.17612  0.58278  0.75470  1.0000 -0.496019823
O   O9        1.0  0.24530  0.41722  0.82388  1.0000 -0.496019823
O   O10       1.0  0.48640  0.17612  0.75470  1.0000 -0.496019823
O   O11       1.0  0.41722  0.24530  0.51360  1.0000 -0.496019823
O   O12       1.0  0.17612  0.48640  0.58278  1.0000 -0.496019823
O   O13       1.0  0.51360  0.82388  0.41722  1.0000 -0.496019823
O   O14       1.0  0.75470  0.58278  0.48640  1.0000 -0.496019823
O   O15       1.0  0.82388  0.51360  0.24530  1.0000 -0.496019823
O   O16       1.0  0.58278  0.75470  0.17612  1.0000 -0.496019823
O   O17       1.0  0.82388  0.24530  0.41722  1.0000 -0.496019823
O   O18       1.0  0.75470  0.17612  0.58278  1.0000 -0.496019823
O   O19       1.0  0.48640  0.58278  0.17612  1.0000 -0.496019823
O   O20       1.0  0.17612  0.75470  0.48640  1.0000 -0.49446322
O   O21       1.0  0.58278  0.48640  0.75470  1.0000 -0.496019823
O   O22       1.0  0.51360  0.41722  0.24530  1.0000 -0.496019823
O   O23       1.0  0.24530  0.82388  0.51360  1.0000 -0.496019823
O   O24       1.0  0.41722  0.51360  0.82388  1.0000 -0.496019823
O   O25       1.0  0.58278  0.17612  0.75470  1.0000 -0.496019823
O   O26       1.0  0.51360  0.24530  0.41722  1.0000 -0.496019823
O   O27       1.0  0.17612  0.58278  0.48640  1.0000 -0.496019823
O   O28       1.0  0.24530  0.51360  0.82388  1.0000 -0.496019823
O   O29       1.0  0.48640  0.75470  0.17612  1.0000 -0.496019823
O   O30       1.0  0.41722  0.82388  0.51360  1.0000 -0.496019823
O   O31       1.0  0.75470  0.48640  0.58278  1.0000 -0.496019823
O   O32       1.0  0.82388  0.41722  0.24530  1.0000 -0.496019823
O   O33       1.0  0.75470  0.58278  0.17612  1.0000 -0.496019823
O   O34       1.0  0.51360  0.82388  0.24530  1.0000 -0.49446322
O   O35       1.0  0.58278  0.75470  0.48640  1.0000 -0.496019823
O   O36       1.0  0.82388  0.51360  0.41722  1.0000 -0.49446322
O   O37       1.0  0.48640  0.17612  0.58278  1.0000 -0.496019823
O   O38       1.0  0.24530  0.41722  0.51360  1.0000 -0.496019823
O   O39       1.0  0.17612  0.48640  0.75470  1.0000 -0.496019823
O   O40       1.0  0.41722  0.24530  0.82388  1.0000 -0.496019823
O   O41       1.0  0.17612  0.75470  0.58278  1.0000 -0.496019823
O   O42       1.0  0.24530  0.82388  0.41722  1.0000 -0.496019823
O   O43       1.0  0.51360  0.41722  0.82388  1.0000 -0.496019823
O   O44       1.0  0.82388  0.24530  0.51360  1.0000 -0.496019823
O   O45       1.0  0.41722  0.51360  0.24530  1.0000 -0.496019823
O   O46       1.0  0.48640  0.58278  0.75470  1.0000 -0.496019823
O   O47       1.0  0.75470  0.17612  0.48640  1.0000 -0.496019823
O   O48       1.0  0.58278  0.48640  0.17612  1.0000 -0.496019823
O   O49       1.0  0.41697  0.90209  0.16657  1.0000 -0.5125801338
O   O50       1.0  0.48563  0.83343  0.58303  1.0000 -0.5125801338
O   O51       1.0  0.90209  0.41697  0.51437  1.0000 -0.5125801338
O   O52       1.0  0.83343  0.48563  0.09791  1.0000 -0.5125801338
O   O53       1.0  0.51437  0.16657  0.90209  1.0000 -0.5125801338
O   O54       1.0  0.58303  0.09791  0.48563  1.0000 -0.5125801338
O   O55       1.0  0.16657  0.51437  0.41697  1.0000 -0.5125801338
O   O56       1.0  0.09791  0.58303  0.83343  1.0000 -0.5125801338
O   O57       1.0  0.16657  0.41697  0.90209  1.0000 -0.5125801338
O   O58       1.0  0.48563  0.09791  0.83343  1.0000 -0.5125801338
O   O59       1.0  0.41697  0.16657  0.51437  1.0000 -0.5125801338
O   O60       1.0  0.09791  0.48563  0.58303  1.0000 -0.5125801338
O   O61       1.0  0.51437  0.90209  0.41697  1.0000 -0.5125801338
O   O62       1.0  0.83343  0.58303  0.48563  1.0000 -0.5125801338
O   O63       1.0  0.90209  0.51437  0.16657  1.0000 -0.5125801338
O   O64       1.0  0.58303  0.83343  0.09791  1.0000 -0.5125801338
O   O65       1.0  0.90209  0.16657  0.41697  1.0000 -0.5125801338
O   O66       1.0  0.83343  0.09791  0.58303  1.0000 -0.5125801338
O   O67       1.0  0.48563  0.58303  0.09791  1.0000 -0.5125801338
O   O68       1.0  0.09791  0.83343  0.48563  1.0000 -0.5125801338
O   O69       1.0  0.58303  0.48563  0.83343  1.0000 -0.5125801338
O   O70       1.0  0.51437  0.41697  0.16657  1.0000 -0.5125801338
O   O71       1.0  0.16657  0.90209  0.51437  1.0000 -0.5125801338
O   O72       1.0  0.41697  0.51437  0.90209  1.0000 -0.5125801338
O   O73       1.0  0.58303  0.09791  0.83343  1.0000 -0.5125801338
O   O74       1.0  0.51437  0.16657  0.41697  1.0000 -0.5125801338
O   O75       1.0  0.09791  0.58303  0.48563  1.0000 -0.5125801338
O   O76       1.0  0.16657  0.51437  0.90209  1.0000 -0.5125801338
O   O77       1.0  0.48563  0.83343  0.09791  1.0000 -0.5125801338
O   O78       1.0  0.41697  0.90209  0.51437  1.0000 -0.5125801338
O   O79       1.0  0.83343  0.48563  0.58303  1.0000 -0.5125801338
O   O80       1.0  0.90209  0.41697  0.16657  1.0000 -0.5125801338
O   O81       1.0  0.83343  0.58303  0.09791  1.0000 -0.5125801338
O   O82       1.0  0.51437  0.90209  0.16657  1.0000 -0.5125801338
O   O83       1.0  0.58303  0.83343  0.48563  1.0000 -0.5125801338
O   O84       1.0  0.90209  0.51437  0.41697  1.0000 -0.5125801338
O   O85       1.0  0.48563  0.09791  0.58303  1.0000 -0.5125801338
O   O86       1.0  0.16657  0.41697  0.51437  1.0000 -0.5125801338
O   O87       1.0  0.09791  0.48563  0.83343  1.0000 -0.5125801338
O   O88       1.0  0.41697  0.16657  0.90209  1.0000 -0.5125801338
O   O89       1.0  0.09791  0.83343  0.58303  1.0000 -0.5125801338
O   O90       1.0  0.16657  0.90209  0.41697  1.0000 -0.5125801338
O   O91       1.0  0.51437  0.41697  0.90209  1.0000 -0.5125801338
O   O92       1.0  0.90209  0.16657  0.51437  1.0000 -0.5125801338
O   O93       1.0  0.41697  0.51437  0.16657  1.0000 -0.5125801338
O   O94       1.0  0.48563  0.58303  0.83343  1.0000 -0.5125801338
O   O95       1.0  0.83343  0.09791  0.48563  1.0000 -0.5125801338
O   O96       1.0  0.58303  0.48563  0.09791  1.0000 -0.5125801338
O   O97       1.0  0.20957  0.03093  0.20957  1.0000 -0.4685973212
O   O98       1.0  0.45007  0.79043  0.79043  1.0000 -0.4685973212
O   O99       1.0  0.03093  0.20957  0.54993  1.0000 -0.4685973212
O   O100      1.0  0.79043  0.45007  0.96907  1.0000 -0.4685973212
O   O101      1.0  0.54993  0.20957  0.03093  1.0000 -0.4685973212
O   O102      1.0  0.79043  0.96907  0.45007  1.0000 -0.4685973212
O   O103      1.0  0.20957  0.54993  0.20957  1.0000 -0.4685973212
O   O104      1.0  0.96907  0.79043  0.79043  1.0000 -0.4685973212
O   O105      1.0  0.20957  0.20957  0.03093  1.0000 -0.4685973212
O   O106      1.0  0.45007  0.96907  0.79043  1.0000 -0.4685973212
O   O107      1.0  0.20957  0.20957  0.54993  1.0000 -0.4685973212
O   O108      1.0  0.96907  0.45007  0.79043  1.0000 -0.4685973212
O   O109      1.0  0.54993  0.03093  0.20957  1.0000 -0.4685973212
O   O110      1.0  0.79043  0.79043  0.45007  1.0000 -0.4685973212
O   O111      1.0  0.03093  0.54993  0.20957  1.0000 -0.4685973212
O   O112      1.0  0.79043  0.79043  0.96907  1.0000 -0.4685973212
O   O113      1.0  0.03093  0.20957  0.20957  1.0000 -0.4685973212
O   O114      1.0  0.79043  0.96907  0.79043  1.0000 -0.4685973212
O   O115      1.0  0.45007  0.79043  0.96907  1.0000 -0.4685973212
O   O116      1.0  0.96907  0.79043  0.45007  1.0000 -0.4685973212
O   O117      1.0  0.79043  0.45007  0.79043  1.0000 -0.4685973212
O   O118      1.0  0.54993  0.20957  0.20957  1.0000 -0.4685973212
O   O119      1.0  0.20957  0.03093  0.54993  1.0000 -0.4685973212
O   O120      1.0  0.20957  0.54993  0.03093  1.0000 -0.4685973212
