# DDEC6 charges by PACMAN v1.1 (https://github.com/mtap-research/PACMAN-charge/)
data_2013[Zn][lon]3[ASR]3
_chemical_formula_sum              "Zn2 H24 C18 N8 O6"
_cell_length_a       9.2522
_cell_length_b       9.2556
_cell_length_c       9.4781
_cell_angle_alpha    90
_cell_angle_beta     118.419
_cell_angle_gamma    90

_symmetry_space_group_name_H-M    "P 1"
_symmetry_Int_Tables_number       1

loop_
  _symmetry_equiv_pos_as_xyz
  'x, y, z'

loop_
  _atom_site_type_symbol
  _atom_site_label
  _atom_site_symmetry_multiplicity
  _atom_site_fract_x
  _atom_site_fract_y
  _atom_site_fract_z
  _atom_site_occupancy
  _atom_site_charge
Zn  Zn1       1.0  0.72111  0.37321  0.13664  1.0000 0.7115200032
Zn  Zn2       1.0  0.27889  0.87321  0.86336  1.0000 0.7115200032
H   H1        1.0  0.90250  0.28180  0.02990  1.0000 0.2930931766
H   H2        1.0  0.09750  0.78180  0.97010  1.0000 0.2930931766
H   H3        1.0  0.99470  0.39600  0.14960  1.0000 0.2993349452
H   H4        1.0  0.00530  0.89600  0.85040  1.0000 0.2993349452
H   H5        1.0  0.99770  0.09850  0.63870  1.0000 0.0906835031
H   H6        1.0  0.00230  0.59850  0.36130  1.0000 0.0906835031
H   H7        1.0  0.54270  0.07330  0.10180  1.0000 0.0982665885
H   H8        1.0  0.45730  0.57330  0.89820  1.0000 0.0982665885
H   H9        1.0  0.07800  0.38750  0.67450  1.0000 0.2717499901
H   H10       1.0  0.92200  0.88750  0.32550  1.0000 0.2717499901
H   H11       1.0  0.43630  0.37040  0.76010  1.0000 0.1319103725
H   H12       1.0  0.56370  0.87040  0.23990  1.0000 0.1319103725
H   H13       1.0  0.74360  0.46170  0.84780  1.0000 0.0906835031
H   H14       1.0  0.25640  0.96170  0.15220  1.0000 0.0906835031
H   H15       1.0  0.86710  0.57580  0.97460  1.0000 0.0906835031
H   H16       1.0  0.13290  0.07580  0.02540  1.0000 0.0906835031
H   H17       1.0  0.19390  0.24510  0.52080  1.0000 0.1214460004
H   H18       1.0  0.80610  0.74510  0.47920  1.0000 0.1214460004
H   H19       1.0  0.18350  0.07390  0.53740  1.0000 0.1319103725
H   H20       1.0  0.81650  0.57390  0.46260  1.0000 0.1319103725
H   H21       1.0  0.08840  0.46800  0.94600  1.0000 0.1319103725
H   H22       1.0  0.91160  0.96800  0.05400  1.0000 0.1319103725
H   H23       1.0  0.95350  0.54270  0.78480  1.0000 0.1319103725
H   H24       1.0  0.04650  0.04270  0.21520  1.0000 0.1319103725
C   C1        1.0  0.88280  0.19470  0.41290  1.0000 0.5538187493
C   C2        1.0  0.11720  0.69470  0.58710  1.0000 0.5538187493
C   C3        1.0  0.01750  0.18560  0.58780  1.0000 0.0120594781
C   C4        1.0  0.98250  0.68560  0.41220  1.0000 0.0120594781
C   C5        1.0  0.49390  0.12190  0.00140  1.0000 0.1374182198
C   C6        1.0  0.50610  0.62190  0.99860  1.0000 0.1374182198
C   C7        1.0  0.32640  0.17380  0.75160  1.0000 0.1916641463
C   C8        1.0  0.67360  0.67380  0.24840  1.0000 0.1916641463
C   C9        1.0  0.43530  0.28470  0.81490  1.0000 -0.1418298539
C   C10       1.0  0.56470  0.78470  0.18510  1.0000 -0.1418298539
C   C11       1.0  0.85830  0.47630  0.93290  1.0000 0.0005810703
C   C12       1.0  0.14170  0.97630  0.06710  1.0000 0.0005810703
C   C13       1.0  0.18290  0.16770  0.58720  1.0000 -0.3013877403
C   C14       1.0  0.81710  0.66770  0.41280  1.0000 -0.3013877403
C   C15       1.0  0.95210  0.32120  0.76980  1.0000 0.5145868529
C   C16       1.0  0.04790  0.82120  0.23020  1.0000 0.5145868529
C   C17       1.0  0.97330  0.46110  0.85940  1.0000 -0.3613144439
C   C18       1.0  0.02670  0.96110  0.14060  1.0000 -0.3613144439
N   N1        1.0  0.89470  0.37320  0.06380  1.0000 -0.5317601394
N   N2        1.0  0.10530  0.87320  0.93620  1.0000 -0.5317601394
N   N3        1.0  0.36490  0.07140  0.86810  1.0000 -0.3522976767
N   N4        1.0  0.63510  0.57140  0.13190  1.0000 -0.3522976767
N   N5        1.0  0.02310  0.31190  0.67960  1.0000 -0.3613144439
N   N6        1.0  0.97690  0.81190  0.32040  1.0000 -0.3613144439
N   N7        1.0  0.54550  0.25090  0.97470  1.0000 -0.3088062685
N   N8        1.0  0.45450  0.75090  0.02530  1.0000 -0.3088062685
O   O1        1.0  0.83260  0.32230  0.36310  1.0000 -0.5461537372
O   O2        1.0  0.16740  0.82230  0.63690  1.0000 -0.5461537372
O   O3        1.0  0.83720  0.08580  0.32990  1.0000 -0.5589494835
O   O4        1.0  0.16280  0.58580  0.67010  1.0000 -0.5589494835
O   O5        1.0  0.87400  0.21990  0.78880  1.0000 -0.5414174329
O   O6        1.0  0.12600  0.71990  0.21120  1.0000 -0.5414174329
