# DDEC6 charges by PACMAN v1.1 (https://github.com/mtap-research/PACMAN-charge/)
data_2013[Zn][ths]3[ASR]6
_chemical_formula_sum              "Zn24 H192 C288 I48 N96"
_cell_length_a       32.866
_cell_length_b       14.853
_cell_length_c       34.85
_cell_angle_alpha    90
_cell_angle_beta     105.848
_cell_angle_gamma    90

_symmetry_space_group_name_H-M    "P 1"
_symmetry_Int_Tables_number       1

loop_
  _symmetry_equiv_pos_as_xyz
  'x, y, z'

loop_
  _atom_site_type_symbol
  _atom_site_label
  _atom_site_symmetry_multiplicity
  _atom_site_fract_x
  _atom_site_fract_y
  _atom_site_fract_z
  _atom_site_occupancy
  _atom_site_charge
Zn  Zn1       1.0  0.69395  0.23272  0.13076  1.0000 0.4592944872
Zn  Zn2       1.0  0.32853  0.20601  0.84901  1.0000 0.4592944872
Zn  Zn3       1.0  0.01882  0.68580  0.91882  1.0000 0.4461209468
Zn  Zn4       1.0  0.82516  0.44604  0.88042  1.0000 0.4461209468
Zn  Zn5       1.0  0.50966  0.95961  0.91602  1.0000 0.4393466008
Zn  Zn6       1.0  0.69230  0.75978  0.63191  1.0000 0.4592944872
Zn  Zn7       1.0  0.19891  0.41576  0.12953  1.0000 0.4592944872
Zn  Zn8       1.0  0.32257  0.73119  0.38048  1.0000 0.4592944872
Zn  Zn9       1.0  0.51869  0.49467  0.41287  1.0000 0.4592944872
Zn  Zn10      1.0  0.01048  0.22407  0.41229  1.0000 0.4592944872
Zn  Zn11      1.0  0.18017  0.94824  0.63746  1.0000 0.4727809918
Zn  Zn12      1.0  0.82483  0.96500  0.34425  1.0000 0.4592944872
Zn  Zn13      1.0  0.30605  0.73272  0.86924  1.0000 0.4592944872
Zn  Zn14      1.0  0.67147  0.70601  0.15099  1.0000 0.4592944872
Zn  Zn15      1.0  0.98118  0.18580  0.08118  1.0000 0.4461209468
Zn  Zn16      1.0  0.17484  0.94604  0.11958  1.0000 0.4393466008
Zn  Zn17      1.0  0.49034  0.45961  0.08398  1.0000 0.4393466008
Zn  Zn18      1.0  0.30770  0.25978  0.36809  1.0000 0.4592944872
Zn  Zn19      1.0  0.80109  0.91576  0.87047  1.0000 0.4592944872
Zn  Zn20      1.0  0.67743  0.23119  0.61952  1.0000 0.4592944872
Zn  Zn21      1.0  0.48131  0.99467  0.58713  1.0000 0.4592944872
Zn  Zn22      1.0  0.98952  0.72407  0.58771  1.0000 0.4592944872
Zn  Zn23      1.0  0.81983  0.44824  0.36254  1.0000 0.4727809918
Zn  Zn24      1.0  0.17517  0.46500  0.65575  1.0000 0.4592944872
H   H1        1.0  0.66890  0.41410  0.10000  1.0000 0.1089066108
H   H2        1.0  0.62130  0.48890  0.04700  1.0000 0.1388144274
H   H3        1.0  0.56140  0.25490  0.01500  1.0000 0.1187325817
H   H4        1.0  0.62020  0.18110  0.06240  1.0000 0.1089066108
H   H5        1.0  0.46720  0.78490  0.89350  1.0000 0.1011277749
H   H6        1.0  0.46870  0.63760  0.90800  1.0000 0.1388144274
H   H7        1.0  0.57690  0.67750  0.99090  1.0000 0.1388144274
H   H8        1.0  0.56780  0.83510  0.97410  1.0000 0.1011277749
H   H9        1.0  0.41020  0.15850  0.90920  1.0000 0.1011277749
H   H10       1.0  0.47620  0.23350  0.94090  1.0000 0.13271581
H   H11       1.0  0.42040  0.46890  0.90190  1.0000 0.13271581
H   H12       1.0  0.36020  0.39040  0.86880  1.0000 0.1011277749
H   H13       1.0  0.27140  0.31370  0.88520  1.0000 0.1089066108
H   H14       1.0  0.22700  0.43680  0.87210  1.0000 0.1388144274
H   H15       1.0  0.25210  0.46710  0.76550  1.0000 0.13271581
H   H16       1.0  0.29860  0.34410  0.78170  1.0000 0.1089066108
H   H17       1.0  0.06950  0.79460  0.87330  1.0000 0.1089066108
H   H18       1.0  0.11350  0.76500  0.83380  1.0000 0.13271581
H   H19       1.0  0.11290  0.49920  0.85780  1.0000 0.1388144274
H   H20       1.0  0.06440  0.53020  0.89320  1.0000 0.1187325817
H   H21       1.0  0.23320  0.78950  0.67650  1.0000 0.1011277749
H   H22       1.0  0.23650  0.68380  0.72770  1.0000 0.1388144274
H   H23       1.0  0.13730  0.82110  0.75180  1.0000 0.1388144274
H   H24       1.0  0.13830  0.91410  0.70020  1.0000 0.1089066108
H   H25       1.0  0.06990  0.81300  0.98350  1.0000 0.1089066108
H   H26       1.0  0.07350  0.96610  0.99900  1.0000 0.1388144274
H   H27       1.0  0.98760  0.01500  0.89470  1.0000 0.1388144274
H   H28       1.0  0.99130  0.85780  0.88140  1.0000 0.1011277749
H   H29       1.0  0.11670  0.46130  0.06950  1.0000 0.1089066108
H   H30       1.0  0.06250  0.39540  0.02410  1.0000 0.13271581
H   H31       1.0  0.12650  0.15950  0.04860  1.0000 0.13271581
H   H32       1.0  0.17530  0.23170  0.09420  1.0000 0.1187325817
H   H33       1.0  0.85650  0.25650  0.88430  1.0000 0.1011277749
H   H34       1.0  0.91910  0.17500  0.90870  1.0000 0.1388144274
H   H35       1.0  0.98080  0.41550  0.93590  1.0000 0.1388144274
H   H36       1.0  0.91770  0.48300  0.90460  1.0000 0.1089066108
H   H37       1.0  0.76010  0.33630  0.90430  1.0000 0.1011277749
H   H38       1.0  0.71250  0.21890  0.88120  1.0000 0.13271581
H   H39       1.0  0.74960  0.21430  0.78060  1.0000 0.1388144274
H   H40       1.0  0.79450  0.34080  0.80470  1.0000 0.1011277749
H   H41       1.0  0.54190  0.87670  0.84920  1.0000 0.1089066108
H   H42       1.0  0.59580  0.89620  0.81990  1.0000 0.1388144274
H   H43       1.0  0.62100  0.12940  0.87880  1.0000 0.1388144274
H   H44       1.0  0.57720  0.09380  0.91400  1.0000 0.1089066108
H   H45       1.0  0.74860  0.89250  0.69400  1.0000 0.1089066108
H   H46       1.0  0.74540  0.97260  0.74810  1.0000 0.13271581
H   H47       1.0  0.62310  0.89180  0.72940  1.0000 0.1388144274
H   H48       1.0  0.62890  0.81930  0.67180  1.0000 0.1089066108
H   H49       1.0  0.25410  0.29330  0.19150  1.0000 0.1011277749
H   H50       1.0  0.24840  0.20280  0.24560  1.0000 0.1388144274
H   H51       1.0  0.12980  0.29200  0.22870  1.0000 0.1388144274
H   H52       1.0  0.13970  0.38700  0.17790  1.0000 0.1089066108
H   H53       1.0  0.26030  0.84420  0.40480  1.0000 0.1011277749
H   H54       1.0  0.21740  0.97000  0.38260  1.0000 0.1388144274
H   H55       1.0  0.25080  0.96400  0.27940  1.0000 0.1388144274
H   H56       1.0  0.29350  0.84070  0.30400  1.0000 0.1089066108
H   H57       1.0  0.06290  0.33280  0.36580  1.0000 0.1089066108
H   H58       1.0  0.11230  0.30320  0.33240  1.0000 0.1388144274
H   H59       1.0  0.11130  0.04360  0.36060  1.0000 0.13271581
H   H60       1.0  0.05920  0.07170  0.39270  1.0000 0.1089066108
H   H61       1.0  0.41780  0.69670  0.41140  1.0000 0.1089066108
H   H62       1.0  0.47930  0.77490  0.43860  1.0000 0.13271581
H   H63       1.0  0.41220  0.00340  0.42330  1.0000 0.13271581
H   H64       1.0  0.35240  0.92310  0.39590  1.0000 0.1011277749
H   H65       1.0  0.66667  0.94920  0.60860  1.0000 0.1089066108
H   H66       1.0  0.61500  0.03040  0.55650  1.0000 0.13271581
H   H67       1.0  0.56930  0.78870  0.51070  1.0000 0.13271581
H   H68       1.0  0.61900  0.71840  0.56300  1.0000 0.1089066108
H   H69       1.0  0.46660  0.33460  0.39610  1.0000 0.0913467212
H   H70       1.0  0.46690  0.17840  0.41430  1.0000 0.1388144274
H   H71       1.0  0.57880  0.21780  0.49360  1.0000 0.1388144274
H   H72       1.0  0.57360  0.36930  0.47700  1.0000 0.1089066108
H   H73       1.0  0.06420  0.34880  0.47730  1.0000 0.1089066108
H   H74       1.0  0.06880  0.49770  0.49220  1.0000 0.1388144274
H   H75       1.0  0.97520  0.55040  0.39280  1.0000 0.1388144274
H   H76       1.0  0.97290  0.39820  0.37890  1.0000 0.1089066108
H   H77       1.0  0.10470  0.99200  0.57140  1.0000 0.1089066108
H   H78       1.0  0.05780  0.93100  0.51740  1.0000 0.13271581
H   H79       1.0  0.11350  0.68670  0.55230  1.0000 0.1388144274
H   H80       1.0  0.16120  0.76050  0.60210  1.0000 0.1089066108
H   H81       1.0  0.84680  0.78760  0.38360  1.0000 0.1011277749
H   H82       1.0  0.90940  0.70960  0.41560  1.0000 0.1388144274
H   H83       1.0  0.97060  0.94640  0.43690  1.0000 0.1388144274
H   H84       1.0  0.90850  0.01660  0.40080  1.0000 0.1089066108
H   H85       1.0  0.80390  0.81270  0.28350  1.0000 0.1089066108
H   H86       1.0  0.76140  0.68700  0.26960  1.0000 0.1388144274
H   H87       1.0  0.71720  0.74490  0.36400  1.0000 0.1388144274
H   H88       1.0  0.75840  0.87400  0.37310  1.0000 0.1089066108
H   H89       1.0  0.64350  0.26860  0.18260  1.0000 0.1011277749
H   H90       1.0  0.63980  0.35550  0.23940  1.0000 0.1388144274
H   H91       1.0  0.74700  0.47490  0.23290  1.0000 0.1388144274
H   H92       1.0  0.74680  0.38370  0.18000  1.0000 0.1089066108
H   H93       1.0  0.56030  0.63660  0.37720  1.0000 0.1187325817
H   H94       1.0  0.61140  0.65660  0.34560  1.0000 0.13271581
H   H95       1.0  0.62000  0.38620  0.33700  1.0000 0.1388144274
H   H96       1.0  0.56630  0.37360  0.36740  1.0000 0.1089066108
H   H97       1.0  0.33110  0.91410  0.90000  1.0000 0.1011277749
H   H98       1.0  0.37870  0.98890  0.95300  1.0000 0.1388144274
H   H99       1.0  0.43860  0.75490  0.98500  1.0000 0.1187325817
H   H100      1.0  0.37980  0.68110  0.93760  1.0000 0.1089066108
H   H101      1.0  0.53280  0.28490  0.10650  1.0000 0.1011277749
H   H102      1.0  0.53130  0.13760  0.09200  1.0000 0.1388144274
H   H103      1.0  0.42310  0.17750  0.00910  1.0000 0.1388144274
H   H104      1.0  0.43220  0.33510  0.02590  1.0000 0.1011277749
H   H105      1.0  0.58980  0.65850  0.09080  1.0000 0.1011277749
H   H106      1.0  0.52380  0.73350  0.05910  1.0000 0.13271581
H   H107      1.0  0.57960  0.96890  0.09810  1.0000 0.13271581
H   H108      1.0  0.63980  0.89040  0.13120  1.0000 0.1011277749
H   H109      1.0  0.72860  0.81370  0.11480  1.0000 0.1089066108
H   H110      1.0  0.77300  0.93680  0.12790  1.0000 0.1388144274
H   H111      1.0  0.74790  0.96710  0.23450  1.0000 0.13271581
H   H112      1.0  0.70140  0.84410  0.21830  1.0000 0.1089066108
H   H113      1.0  0.93050  0.29460  0.12670  1.0000 0.1089066108
H   H114      1.0  0.88650  0.26500  0.16620  1.0000 0.13271581
H   H115      1.0  0.88710  0.99920  0.14220  1.0000 0.1388144274
H   H116      1.0  0.93560  0.03020  0.10680  1.0000 0.1187325817
H   H117      1.0  0.76680  0.28950  0.32350  1.0000 0.1011277749
H   H118      1.0  0.76350  0.18380  0.27230  1.0000 0.1388144274
H   H119      1.0  0.86270  0.32110  0.24820  1.0000 0.1388144274
H   H120      1.0  0.86170  0.41410  0.29980  1.0000 0.1089066108
H   H121      1.0  0.93010  0.31300  0.01650  1.0000 0.1089066108
H   H122      1.0  0.92650  0.46610  0.00100  1.0000 0.1388144274
H   H123      1.0  0.01240  0.51500  0.10530  1.0000 0.1388144274
H   H124      1.0  0.00870  0.35780  0.11860  1.0000 0.1011277749
H   H125      1.0  0.88330  0.96130  0.93050  1.0000 0.1089066108
H   H126      1.0  0.93750  0.89540  0.97590  1.0000 0.13271581
H   H127      1.0  0.87350  0.65950  0.95140  1.0000 0.1388144274
H   H128      1.0  0.82470  0.73170  0.90580  1.0000 0.1187325817
H   H129      1.0  0.14350  0.75650  0.11570  1.0000 0.1011277749
H   H130      1.0  0.08090  0.67500  0.09130  1.0000 0.1388144274
H   H131      1.0  0.01920  0.91550  0.06410  1.0000 0.1388144274
H   H132      1.0  0.08230  0.98300  0.09540  1.0000 0.1089066108
H   H133      1.0  0.23990  0.83630  0.09570  1.0000 0.1011277749
H   H134      1.0  0.28750  0.71890  0.11880  1.0000 0.13271581
H   H135      1.0  0.25040  0.71430  0.21940  1.0000 0.1388144274
H   H136      1.0  0.20550  0.84080  0.19530  1.0000 0.1089066108
H   H137      1.0  0.45810  0.37670  0.15080  1.0000 0.1089066108
H   H138      1.0  0.40420  0.39620  0.18010  1.0000 0.1388144274
H   H139      1.0  0.37900  0.62940  0.12120  1.0000 0.13271581
H   H140      1.0  0.42280  0.59380  0.08600  1.0000 0.1089066108
H   H141      1.0  0.25140  0.39250  0.30600  1.0000 0.1089066108
H   H142      1.0  0.25460  0.47260  0.25190  1.0000 0.13271581
H   H143      1.0  0.37690  0.39180  0.27060  1.0000 0.1388144274
H   H144      1.0  0.37110  0.31930  0.32820  1.0000 0.1089066108
H   H145      1.0  0.74590  0.79330  0.80850  1.0000 0.1011277749
H   H146      1.0  0.75160  0.70280  0.75440  1.0000 0.1388144274
H   H147      1.0  0.87020  0.79200  0.77130  1.0000 0.1388144274
H   H148      1.0  0.86030  0.88700  0.82210  1.0000 0.1089066108
H   H149      1.0  0.73970  0.34420  0.59520  1.0000 0.1011277749
H   H150      1.0  0.78260  0.47000  0.61740  1.0000 0.1388144274
H   H151      1.0  0.74920  0.46400  0.72060  1.0000 0.1388144274
H   H152      1.0  0.70650  0.34070  0.69600  1.0000 0.1089066108
H   H153      1.0  0.93710  0.83280  0.63420  1.0000 0.1089066108
H   H154      1.0  0.88770  0.80320  0.66760  1.0000 0.1388144274
H   H155      1.0  0.88870  0.54360  0.63940  1.0000 0.13271581
H   H156      1.0  0.94080  0.57170  0.60730  1.0000 0.1089066108
H   H157      1.0  0.58220  0.19670  0.58860  1.0000 0.1089066108
H   H158      1.0  0.52070  0.27490  0.56140  1.0000 0.13271581
H   H159      1.0  0.58780  0.50340  0.57670  1.0000 0.13271581
H   H160      1.0  0.64760  0.42310  0.60410  1.0000 0.1011277749
H   H161      1.0  0.33333  0.44920  0.39140  1.0000 0.1089066108
H   H162      1.0  0.38500  0.53040  0.44350  1.0000 0.13271581
H   H163      1.0  0.43070  0.28870  0.48930  1.0000 0.13271581
H   H164      1.0  0.38100  0.21840  0.43700  1.0000 0.1089066108
H   H165      1.0  0.53340  0.83460  0.60390  1.0000 0.0913467212
H   H166      1.0  0.53310  0.67840  0.58570  1.0000 0.1388144274
H   H167      1.0  0.42120  0.71780  0.50640  1.0000 0.1388144274
H   H168      1.0  0.42640  0.86930  0.52300  1.0000 0.1089066108
H   H169      1.0  0.93580  0.84880  0.52270  1.0000 0.1089066108
H   H170      1.0  0.93120  0.99770  0.50780  1.0000 0.1388144274
H   H171      1.0  0.02480  0.05040  0.60720  1.0000 0.1388144274
H   H172      1.0  0.02710  0.89820  0.62110  1.0000 0.1089066108
H   H173      1.0  0.89530  0.49200  0.42860  1.0000 0.1089066108
H   H174      1.0  0.94220  0.43100  0.48260  1.0000 0.13271581
H   H175      1.0  0.88650  0.18670  0.44770  1.0000 0.1388144274
H   H176      1.0  0.83880  0.26050  0.39790  1.0000 0.1089066108
H   H177      1.0  0.15320  0.28760  0.61640  1.0000 0.1011277749
H   H178      1.0  0.09060  0.20960  0.58440  1.0000 0.1388144274
H   H179      1.0  0.02940  0.44640  0.56310  1.0000 0.1388144274
H   H180      1.0  0.09150  0.51660  0.59920  1.0000 0.1089066108
H   H181      1.0  0.19610  0.31270  0.71650  1.0000 0.1089066108
H   H182      1.0  0.23860  0.18700  0.73040  1.0000 0.1388144274
H   H183      1.0  0.28280  0.24490  0.63600  1.0000 0.1388144274
H   H184      1.0  0.24160  0.37400  0.62690  1.0000 0.1089066108
H   H185      1.0  0.35650  0.76860  0.81740  1.0000 0.1011277749
H   H186      1.0  0.36020  0.85550  0.76060  1.0000 0.1388144274
H   H187      1.0  0.25300  0.97490  0.76710  1.0000 0.1388144274
H   H188      1.0  0.25320  0.88370  0.82000  1.0000 0.1089066108
H   H189      1.0  0.43970  0.13660  0.62280  1.0000 0.1187325817
H   H190      1.0  0.38860  0.15660  0.65440  1.0000 0.13271581
H   H191      1.0  0.38000  0.88620  0.66300  1.0000 0.1388144274
H   H192      1.0  0.43370  0.87360  0.63260  1.0000 0.1089066108
C   C1        1.0  0.64800  0.37920  0.08180  1.0000 0.1187325817
C   C2        1.0  0.61890  0.42580  0.05020  1.0000 -0.1395462048
C   C3        1.0  0.58800  0.37810  0.02510  1.0000 0.0416459806
C   C4        1.0  0.58470  0.28840  0.03040  1.0000 -0.1310974518
C   C5        1.0  0.61870  0.24500  0.06110  1.0000 0.0513478301
C   C6        1.0  0.55630  0.42080  0.99290  1.0000 0.3791691653
C   C7        1.0  0.52740  0.54190  0.95530  1.0000 0.3602503629
C   C8        1.0  0.49310  0.41050  0.94480  1.0000 0.3866294217
C   C9        1.0  0.49080  0.76360  0.91390  1.0000 0.0610299175
C   C10       1.0  0.49180  0.67490  0.92120  1.0000 -0.1577590923
C   C11       1.0  0.52560  0.63930  0.94730  1.0000 0.0801487397
C   C12       1.0  0.55400  0.69750  0.96950  1.0000 -0.1711933683
C   C13       1.0  0.54790  0.79320  0.95900  1.0000 0.1011277749
C   C14       1.0  0.41260  0.22200  0.90720  1.0000 0.1089066108
C   C15       1.0  0.45210  0.26760  0.92720  1.0000 -0.1395462048
C   C16       1.0  0.45430  0.35520  0.92610  1.0000 0.0610299175
C   C17       1.0  0.41930  0.40520  0.90360  1.0000 -0.1490571212
C   C18       1.0  0.38380  0.35790  0.88450  1.0000 0.0801487397
C   C19       1.0  0.26740  0.34510  0.86070  1.0000 0.0801487397
C   C20       1.0  0.24100  0.41740  0.85300  1.0000 -0.1395462048
C   C21       1.0  0.23500  0.46160  0.81780  1.0000 0.0801487397
C   C22       1.0  0.25610  0.43590  0.79000  1.0000 -0.1310974518
C   C23       1.0  0.28310  0.36280  0.79960  1.0000 0.0513478301
C   C24       1.0  0.20650  0.54370  0.81000  1.0000 0.3702771258
C   C25       1.0  0.15210  0.61930  0.82080  1.0000 0.3602503629
C   C26       1.0  0.18490  0.67400  0.77750  1.0000 0.3702771258
C   C27       1.0  0.07690  0.73420  0.86930  1.0000 0.0513478301
C   C28       1.0  0.10440  0.71610  0.84700  1.0000 -0.1310974518
C   C29       1.0  0.11920  0.63330  0.84250  1.0000 0.0801487397
C   C30       1.0  0.10380  0.55910  0.86020  1.0000 -0.1490571212
C   C31       1.0  0.07490  0.57910  0.88120  1.0000 0.0708994523
C   C32       1.0  0.21390  0.79520  0.69220  1.0000 0.1011277749
C   C33       1.0  0.21620  0.73090  0.72280  1.0000 -0.1577590923
C   C34       1.0  0.18700  0.73990  0.74570  1.0000 0.0708994523
C   C35       1.0  0.15720  0.81220  0.73690  1.0000 -0.1490571212
C   C36       1.0  0.15870  0.86720  0.70650  1.0000 0.0708994523
C   C37       1.0  0.05250  0.85390  0.96520  1.0000 0.0801487397
C   C38       1.0  0.05510  0.94550  0.97450  1.0000 -0.1490571212
C   C39       1.0  0.03100  0.00520  0.94790  1.0000 0.0708994523
C   C40       1.0  0.00540  0.97560  0.91340  1.0000 -0.1490571212
C   C41       1.0  0.00670  0.88000  0.90680  1.0000 0.0801487397
C   C42       1.0  0.03120  0.10340  0.95840  1.0000 0.3791691653
C   C43       1.0  0.05490  0.22370  0.99630  1.0000 0.3602503629
C   C44       1.0  0.99480  0.23450  0.94840  1.0000 0.3506172258
C   C45       1.0  0.11810  0.39820  0.06540  1.0000 0.0708994523
C   C46       1.0  0.08630  0.36030  0.03750  1.0000 -0.1577590923
C   C47       1.0  0.08820  0.26870  0.02830  1.0000 0.0708994523
C   C48       1.0  0.12350  0.22230  0.05210  1.0000 -0.1310974518
C   C49       1.0  0.15190  0.26560  0.07910  1.0000 0.0513478301
C   C50       1.0  0.88250  0.28770  0.89450  1.0000 0.0801487397
C   C51       1.0  0.91940  0.23890  0.90970  1.0000 -0.1490571212
C   C52       1.0  0.95680  0.28580  0.92660  1.0000 0.0708994523
C   C53       1.0  0.95610  0.38060  0.92510  1.0000 -0.1711933683
C   C54       1.0  0.91820  0.41940  0.90730  1.0000 0.0801487397
C   C55       1.0  0.75780  0.31120  0.87870  1.0000 0.0801487397
C   C56       1.0  0.72990  0.24050  0.86550  1.0000 -0.1310974518
C   C57       1.0  0.72800  0.20290  0.82960  1.0000 0.0610299175
C   C58       1.0  0.75140  0.23890  0.80620  1.0000 -0.1395462048
C   C59       1.0  0.77870  0.31420  0.82090  1.0000 0.1011277749
C   C60       1.0  0.69950  0.12370  0.81560  1.0000 0.3791691653
C   C61       1.0  0.64490  0.03860  0.82270  1.0000 0.3702771258
C   C62       1.0  0.67890  0.00470  0.77600  1.0000 0.3791691653
C   C63       1.0  0.56000  0.92730  0.85680  1.0000 0.0708994523
C   C64       1.0  0.59070  0.94010  0.83790  1.0000 -0.1490571212
C   C65       1.0  0.61440  0.01910  0.84540  1.0000 0.0610299175
C   C66       1.0  0.60620  0.07390  0.87330  1.0000 -0.1395462048
C   C67       1.0  0.57930  0.05470  0.89300  1.0000 0.0513478301
C   C68       1.0  0.72310  0.89050  0.70170  1.0000 0.0708994523
C   C69       1.0  0.72130  0.94040  0.73310  1.0000 -0.1490571212
C   C70       1.0  0.68380  0.94380  0.74290  1.0000 0.0610299175
C   C71       1.0  0.64860  0.89340  0.72160  1.0000 -0.1310974518
C   C72       1.0  0.65320  0.84670  0.68900  1.0000 0.0513478301
C   C73       1.0  0.22840  0.29170  0.19890  1.0000 0.1011277749
C   C74       1.0  0.22500  0.23820  0.23130  1.0000 -0.1395462048
C   C75       1.0  0.18810  0.23740  0.24220  1.0000 0.0610299175
C   C76       1.0  0.15580  0.29130  0.22180  1.0000 -0.1310974518
C   C77       1.0  0.16110  0.34550  0.19070  1.0000 0.0913467212
C   C78       1.0  0.18410  0.18110  0.27650  1.0000 0.3791691653
C   C79       1.0  0.20190  0.06170  0.31510  1.0000 0.3702771258
C   C80       1.0  0.14800  0.14900  0.32170  1.0000 0.3506172258
C   C81       1.0  0.25890  0.86950  0.37950  1.0000 0.1089066108
C   C82       1.0  0.23290  0.94380  0.36610  1.0000 -0.1577590923
C   C83       1.0  0.22960  0.97950  0.32830  1.0000 0.0708994523
C   C84       1.0  0.25250  0.94090  0.30520  1.0000 -0.1395462048
C   C85       1.0  0.27780  0.86850  0.31990  1.0000 0.0416459806
C   C86       1.0  0.07240  0.27270  0.36490  1.0000 0.0708994523
C   C87       1.0  0.10170  0.25490  0.34480  1.0000 -0.1490571212
C   C88       1.0  0.11640  0.16930  0.34190  1.0000 0.0513478301
C   C89       1.0  0.10090  0.10320  0.36090  1.0000 -0.1310974518
C   C90       1.0  0.07040  0.12010  0.38090  1.0000 0.0801487397
C   C91       1.0  0.41650  0.76050  0.41310  1.0000 0.0513478301
C   C92       1.0  0.45320  0.80630  0.42960  1.0000 -0.1490571212
C   C93       1.0  0.45200  0.90040  0.43290  1.0000 0.0416459806
C   C94       1.0  0.41430  0.94010  0.42060  1.0000 -0.1310974518
C   C95       1.0  0.37840  0.89140  0.40410  1.0000 0.0801487397
C   C96       1.0  0.49040  0.95060  0.45270  1.0000 0.3702771258
C   C97       1.0  0.55330  0.96230  0.49920  1.0000 0.3791691653
C   C98       1.0  0.52340  0.08700  0.46420  1.0000 0.3702771258
C   C99       1.0  0.64660  0.91740  0.58830  1.0000 0.1011277749
C   C100      1.0  0.61520  0.96650  0.55750  1.0000 -0.1217985819
C   C101      1.0  0.58620  0.91730  0.53040  1.0000 0.0513478301
C   C102      1.0  0.58820  0.82340  0.53080  1.0000 -0.1490571212
C   C103      1.0  0.61870  0.78220  0.56130  1.0000 0.0913467212
C   C104      1.0  0.49010  0.31110  0.41590  1.0000 0.0913467212
C   C105      1.0  0.49000  0.21620  0.42690  1.0000 -0.1490571212
C   C106      1.0  0.52370  0.18280  0.45540  1.0000 0.0610299175
C   C107      1.0  0.55510  0.23920  0.47350  1.0000 -0.1490571212
C   C108      1.0  0.55220  0.32980  0.46230  1.0000 0.0708994523
C   C109      1.0  0.04570  0.39010  0.46030  1.0000 0.0513478301
C   C110      1.0  0.04800  0.47830  0.46900  1.0000 -0.1577590923
C   C111      1.0  0.02170  0.54330  0.44570  1.0000 0.0708994523
C   C112      1.0  0.99340  0.51030  0.41080  1.0000 -0.1577590923
C   C113      1.0  0.99210  0.41930  0.40280  1.0000 0.0801487397
C   C114      1.0  0.02140  0.64000  0.45620  1.0000 0.3506172258
C   C115      1.0  0.04740  0.75630  0.49440  1.0000 0.3439895105
C   C116      1.0  0.98600  0.76930  0.44790  1.0000 0.3602503629
C   C117      1.0  0.10650  0.92920  0.56680  1.0000 0.1011277749
C   C118      1.0  0.07830  0.89370  0.53470  1.0000 -0.1882756474
C   C119      1.0  0.07980  0.79790  0.52710  1.0000 0.0801487397
C   C120      1.0  0.11140  0.75010  0.55480  1.0000 -0.1490571212
C   C121      1.0  0.13880  0.79340  0.58480  1.0000 0.0513478301
C   C122      1.0  0.87270  0.81960  0.39300  1.0000 0.1011277749
C   C123      1.0  0.90990  0.77320  0.41300  1.0000 -0.1395462048
C   C124      1.0  0.94610  0.81810  0.42820  1.0000 0.0708994523
C   C125      1.0  0.94600  0.91210  0.42500  1.0000 -0.1577590923
C   C126      1.0  0.90900  0.95300  0.40380  1.0000 0.0708994523
C   C127      1.0  0.78520  0.79950  0.29930  1.0000 0.0513478301
C   C128      1.0  0.76040  0.72440  0.29150  1.0000 -0.1395462048
C   C129      1.0  0.73400  0.70120  0.31480  1.0000 0.0801487397
C   C130      1.0  0.73400  0.75810  0.34640  1.0000 -0.1577590923
C   C131      1.0  0.75900  0.83460  0.35180  1.0000 0.0913467212
C   C132      1.0  0.70730  0.61940  0.30690  1.0000 0.3602503629
C   C133      1.0  0.68920  0.49010  0.27350  1.0000 0.3702771258
C   C134      1.0  0.65320  0.53800  0.31600  1.0000 0.3506172258
C   C135      1.0  0.66560  0.30970  0.19410  1.0000 0.1011277749
C   C136      1.0  0.66250  0.36340  0.22780  1.0000 -0.1395462048
C   C137      1.0  0.69350  0.42610  0.24220  1.0000 0.0610299175
C   C138      1.0  0.72500  0.43220  0.22400  1.0000 -0.1395462048
C   C139      1.0  0.72490  0.37700  0.19290  1.0000 0.0708994523
C   C140      1.0  0.57330  0.58450  0.37000  1.0000 0.0610299175
C   C141      1.0  0.60310  0.59720  0.35020  1.0000 -0.1310974518
C   C142      1.0  0.62150  0.52430  0.33660  1.0000 0.0513478301
C   C143      1.0  0.60800  0.43890  0.34490  1.0000 -0.1395462048
C   C144      1.0  0.57690  0.43210  0.36470  1.0000 0.0708994523
C   C145      1.0  0.35200  0.87920  0.91820  1.0000 0.1187325817
C   C146      1.0  0.38110  0.92580  0.94980  1.0000 -0.1395462048
C   C147      1.0  0.41200  0.87810  0.97490  1.0000 0.0416459806
C   C148      1.0  0.41530  0.78840  0.96960  1.0000 -0.1395462048
C   C149      1.0  0.38130  0.74500  0.93890  1.0000 0.0513478301
C   C150      1.0  0.44370  0.92080  0.00710  1.0000 0.3791691653
C   C151      1.0  0.47260  0.04190  0.04470  1.0000 0.3602503629
C   C152      1.0  0.50690  0.91050  0.05520  1.0000 0.3866294217
C   C153      1.0  0.50920  0.26360  0.08610  1.0000 0.0610299175
C   C154      1.0  0.50820  0.17490  0.07880  1.0000 -0.1577590923
C   C155      1.0  0.47440  0.13930  0.05270  1.0000 0.0801487397
C   C156      1.0  0.44600  0.19750  0.03050  1.0000 -0.1711933683
C   C157      1.0  0.45210  0.29320  0.04100  1.0000 0.0913467212
C   C158      1.0  0.58740  0.72200  0.09280  1.0000 0.1089066108
C   C159      1.0  0.54790  0.76760  0.07280  1.0000 -0.1395462048
C   C160      1.0  0.54570  0.85520  0.07390  1.0000 0.0610299175
C   C161      1.0  0.58070  0.90520  0.09640  1.0000 -0.1490571212
C   C162      1.0  0.61620  0.85790  0.11550  1.0000 0.0801487397
C   C163      1.0  0.73260  0.84510  0.13930  1.0000 0.0801487397
C   C164      1.0  0.75900  0.91740  0.14700  1.0000 -0.1395462048
C   C165      1.0  0.76500  0.96160  0.18220  1.0000 0.0801487397
C   C166      1.0  0.74390  0.93590  0.21000  1.0000 -0.1310974518
C   C167      1.0  0.71690  0.86280  0.20040  1.0000 0.0513478301
C   C168      1.0  0.79350  0.04370  0.19000  1.0000 0.3702771258
C   C169      1.0  0.84790  0.11930  0.17920  1.0000 0.3602503629
C   C170      1.0  0.81510  0.17400  0.22250  1.0000 0.3702771258
C   C171      1.0  0.92310  0.23420  0.13070  1.0000 0.0513478301
C   C172      1.0  0.89560  0.21610  0.15300  1.0000 -0.1310974518
C   C173      1.0  0.88080  0.13330  0.15750  1.0000 0.0801487397
C   C174      1.0  0.89620  0.05910  0.13980  1.0000 -0.1490571212
C   C175      1.0  0.92510  0.07910  0.11880  1.0000 0.0708994523
C   C176      1.0  0.78610  0.29520  0.30780  1.0000 0.1011277749
C   C177      1.0  0.78380  0.23090  0.27720  1.0000 -0.1577590923
C   C178      1.0  0.81300  0.23990  0.25430  1.0000 0.0708994523
C   C179      1.0  0.84280  0.31220  0.26310  1.0000 -0.1490571212
C   C180      1.0  0.84130  0.36720  0.29350  1.0000 0.0708994523
C   C181      1.0  0.94750  0.35390  0.03480  1.0000 0.0801487397
C   C182      1.0  0.94490  0.44550  0.02550  1.0000 -0.1490571212
C   C183      1.0  0.96900  0.50520  0.05210  1.0000 0.0708994523
C   C184      1.0  0.99460  0.47560  0.08660  1.0000 -0.1490571212
C   C185      1.0  0.99330  0.38000  0.09320  1.0000 0.0801487397
C   C186      1.0  0.96880  0.60340  0.04160  1.0000 0.3791691653
C   C187      1.0  0.94510  0.72370  0.00370  1.0000 0.3506172258
C   C188      1.0  0.00520  0.73450  0.05160  1.0000 0.3506172258
C   C189      1.0  0.88190  0.89820  0.93460  1.0000 0.0708994523
C   C190      1.0  0.91370  0.86030  0.96250  1.0000 -0.1577590923
C   C191      1.0  0.91180  0.76870  0.97170  1.0000 0.0708994523
C   C192      1.0  0.87650  0.72230  0.94790  1.0000 -0.1310974518
C   C193      1.0  0.84810  0.76560  0.92090  1.0000 0.0513478301
C   C194      1.0  0.11750  0.78770  0.10550  1.0000 0.0801487397
C   C195      1.0  0.08060  0.73890  0.09030  1.0000 -0.1490571212
C   C196      1.0  0.04320  0.78580  0.07340  1.0000 0.0708994523
C   C197      1.0  0.04390  0.88060  0.07490  1.0000 -0.1711933683
C   C198      1.0  0.08180  0.91940  0.09270  1.0000 0.0801487397
C   C199      1.0  0.24220  0.81120  0.12130  1.0000 0.0801487397
C   C200      1.0  0.27010  0.74050  0.13450  1.0000 -0.1310974518
C   C201      1.0  0.27200  0.70290  0.17040  1.0000 0.0610299175
C   C202      1.0  0.24860  0.73890  0.19380  1.0000 -0.1395462048
C   C203      1.0  0.22130  0.81420  0.17910  1.0000 0.1011277749
C   C204      1.0  0.30050  0.62370  0.18440  1.0000 0.3791691653
C   C205      1.0  0.35510  0.53860  0.17730  1.0000 0.3702771258
C   C206      1.0  0.32110  0.50470  0.22400  1.0000 0.3791691653
C   C207      1.0  0.44000  0.42730  0.14320  1.0000 0.0708994523
C   C208      1.0  0.40930  0.44010  0.16210  1.0000 -0.1490571212
C   C209      1.0  0.38560  0.51910  0.15460  1.0000 0.0610299175
C   C210      1.0  0.39380  0.57390  0.12670  1.0000 -0.1395462048
C   C211      1.0  0.42070  0.55470  0.10700  1.0000 0.0513478301
C   C212      1.0  0.27690  0.39050  0.29830  1.0000 0.0708994523
C   C213      1.0  0.27870  0.44040  0.26690  1.0000 -0.1490571212
C   C214      1.0  0.31620  0.44380  0.25710  1.0000 0.0610299175
C   C215      1.0  0.35140  0.39340  0.27840  1.0000 -0.1310974518
C   C216      1.0  0.34680  0.34670  0.31100  1.0000 0.0513478301
C   C217      1.0  0.77160  0.79170  0.80110  1.0000 0.1011277749
C   C218      1.0  0.77500  0.73820  0.76870  1.0000 -0.1395462048
C   C219      1.0  0.81190  0.73740  0.75780  1.0000 0.0610299175
C   C220      1.0  0.84420  0.79130  0.77820  1.0000 -0.1310974518
C   C221      1.0  0.83890  0.84550  0.80930  1.0000 0.0913467212
C   C222      1.0  0.81590  0.68110  0.72350  1.0000 0.3791691653
C   C223      1.0  0.79810  0.56170  0.68490  1.0000 0.3702771258
C   C224      1.0  0.85200  0.64900  0.67830  1.0000 0.3506172258
C   C225      1.0  0.74110  0.36950  0.62050  1.0000 0.1089066108
C   C226      1.0  0.76710  0.44380  0.63390  1.0000 -0.1577590923
C   C227      1.0  0.77040  0.47950  0.67170  1.0000 0.0801487397
C   C228      1.0  0.74750  0.44090  0.69480  1.0000 -0.1395462048
C   C229      1.0  0.72220  0.36850  0.68010  1.0000 0.0416459806
C   C230      1.0  0.92760  0.77270  0.63510  1.0000 0.0708994523
C   C231      1.0  0.89830  0.75490  0.65520  1.0000 -0.1490571212
C   C232      1.0  0.88360  0.66930  0.65810  1.0000 0.0513478301
C   C233      1.0  0.89910  0.60320  0.63910  1.0000 -0.1310974518
C   C234      1.0  0.92960  0.62010  0.61910  1.0000 0.0801487397
C   C235      1.0  0.58350  0.26050  0.58690  1.0000 0.0513478301
C   C236      1.0  0.54680  0.30630  0.57040  1.0000 -0.1490571212
C   C237      1.0  0.54800  0.40040  0.56710  1.0000 0.0416459806
C   C238      1.0  0.58570  0.44010  0.57940  1.0000 -0.1310974518
C   C239      1.0  0.62160  0.39140  0.59590  1.0000 0.0801487397
C   C240      1.0  0.50960  0.45060  0.54730  1.0000 0.3702771258
C   C241      1.0  0.44670  0.46230  0.50080  1.0000 0.3791691653
C   C242      1.0  0.47660  0.58700  0.53580  1.0000 0.3702771258
C   C243      1.0  0.35340  0.41740  0.41170  1.0000 0.1011277749
C   C244      1.0  0.38480  0.46650  0.44250  1.0000 -0.1217985819
C   C245      1.0  0.41380  0.41730  0.46960  1.0000 0.0513478301
C   C246      1.0  0.41180  0.32340  0.46920  1.0000 -0.1490571212
C   C247      1.0  0.38130  0.28220  0.43870  1.0000 0.0913467212
C   C248      1.0  0.50990  0.81110  0.58410  1.0000 0.0913467212
C   C249      1.0  0.51000  0.71620  0.57310  1.0000 -0.1490571212
C   C250      1.0  0.47630  0.68280  0.54460  1.0000 0.0610299175
C   C251      1.0  0.44490  0.73920  0.52650  1.0000 -0.1490571212
C   C252      1.0  0.44780  0.82980  0.53770  1.0000 0.0708994523
C   C253      1.0  0.95430  0.89010  0.53970  1.0000 0.0513478301
C   C254      1.0  0.95200  0.97830  0.53100  1.0000 -0.1577590923
C   C255      1.0  0.97830  0.04330  0.55430  1.0000 0.0708994523
C   C256      1.0  0.00660  0.01030  0.58920  1.0000 -0.1577590923
C   C257      1.0  0.00790  0.91930  0.59720  1.0000 0.0801487397
C   C258      1.0  0.97860  0.14000  0.54380  1.0000 0.3506172258
C   C259      1.0  0.95260  0.25630  0.50560  1.0000 0.3439895105
C   C260      1.0  0.01400  0.26930  0.55210  1.0000 0.3602503629
C   C261      1.0  0.89350  0.42920  0.43320  1.0000 0.1011277749
C   C262      1.0  0.92170  0.39370  0.46530  1.0000 -0.1882756474
C   C263      1.0  0.92020  0.29790  0.47290  1.0000 0.0801487397
C   C264      1.0  0.88860  0.25010  0.44520  1.0000 -0.1490571212
C   C265      1.0  0.86120  0.29340  0.41520  1.0000 0.0513478301
C   C266      1.0  0.12730  0.31960  0.60700  1.0000 0.1011277749
C   C267      1.0  0.09010  0.27320  0.58700  1.0000 -0.1395462048
C   C268      1.0  0.05390  0.31810  0.57180  1.0000 0.0708994523
C   C269      1.0  0.05400  0.41210  0.57500  1.0000 -0.1577590923
C   C270      1.0  0.09100  0.45300  0.59620  1.0000 0.0801487397
C   C271      1.0  0.21480  0.29950  0.70070  1.0000 0.0513478301
C   C272      1.0  0.23960  0.22440  0.70850  1.0000 -0.1395462048
C   C273      1.0  0.26600  0.20120  0.68520  1.0000 0.0801487397
C   C274      1.0  0.26600  0.25810  0.65360  1.0000 -0.1577590923
C   C275      1.0  0.24100  0.33460  0.64820  1.0000 0.0913467212
C   C276      1.0  0.29270  0.11940  0.69310  1.0000 0.3602503629
C   C277      1.0  0.31080  0.99010  0.72650  1.0000 0.3702771258
C   C278      1.0  0.34680  0.03800  0.68400  1.0000 0.3506172258
C   C279      1.0  0.33440  0.80970  0.80590  1.0000 0.1011277749
C   C280      1.0  0.33750  0.86340  0.77220  1.0000 -0.1395462048
C   C281      1.0  0.30650  0.92610  0.75780  1.0000 0.0610299175
C   C282      1.0  0.27500  0.93220  0.77600  1.0000 -0.1395462048
C   C283      1.0  0.27510  0.87700  0.80710  1.0000 0.0708994523
C   C284      1.0  0.42670  0.08450  0.63000  1.0000 0.0610299175
C   C285      1.0  0.39690  0.09720  0.64980  1.0000 -0.1310974518
C   C286      1.0  0.37850  0.02430  0.66340  1.0000 0.0513478301
C   C287      1.0  0.39200  0.93890  0.65510  1.0000 -0.1395462048
C   C288      1.0  0.42310  0.93210  0.63530  1.0000 0.0708994523
I   I1        1.0  0.66090  0.08630  0.14429  1.0000 -0.4404441337
I   I2        1.0  0.76281  0.24806  0.11194  1.0000 -0.4404441337
I   I3        1.0  0.35764  0.17458  0.79030  1.0000 -0.4111139683
I   I4        1.0  0.29307  0.10061  0.88698  1.0000 -0.4502159706
I   I5        1.0  0.04369  0.59412  0.98232  1.0000 -0.4283451769
I   I6        1.0  0.94407  0.67161  0.87322  1.0000 -0.4283451769
I   I7        1.0  0.81973  0.48281  0.95051  1.0000 -0.4502159706
I   I8        1.0  0.82131  0.56467  0.82974  1.0000 -0.4111139683
I   I9        1.0  0.43738  0.97840  0.86741  1.0000 -0.4283451769
I   I10       1.0  0.53599  0.05284  0.97919  1.0000 -0.4192229095
I   I11       1.0  0.65893  0.61262  0.64456  1.0000 -0.4502159706
I   I12       1.0  0.76203  0.76962  0.61502  1.0000 -0.4502159706
I   I13       1.0  0.26967  0.39054  0.11566  1.0000 -0.4502159706
I   I14       1.0  0.17115  0.56703  0.14200  1.0000 -0.4404441337
I   I15       1.0  0.30836  0.67411  0.44474  1.0000 -0.4502159706
I   I16       1.0  0.32474  0.62375  0.32633  1.0000 -0.4192229095
I   I17       1.0  0.44595  0.52382  0.36551  1.0000 -0.4192229095
I   I18       1.0  0.54785  0.60093  0.47195  1.0000 -0.4502159706
I   I19       1.0  0.03576  0.12165  0.47268  1.0000 -0.4404441337
I   I20       1.0  0.94067  0.19418  0.36039  1.0000 -0.4283451769
I   I21       1.0  0.14322  0.08714  0.65439  1.0000 -0.4502159706
I   I22       1.0  0.24666  0.95414  0.61499  1.0000 -0.4283451769
I   I23       1.0  0.86054  0.98745  0.28888  1.0000 -0.4111139683
I   I24       1.0  0.78833  0.08447  0.37523  1.0000 -0.4283451769
I   I25       1.0  0.33910  0.58630  0.85571  1.0000 -0.4404441337
I   I26       1.0  0.23719  0.74806  0.88806  1.0000 -0.4404441337
I   I27       1.0  0.64236  0.67458  0.20970  1.0000 -0.4111139683
I   I28       1.0  0.70693  0.60061  0.11302  1.0000 -0.4502159706
I   I29       1.0  0.95631  0.09412  0.01768  1.0000 -0.4283451769
I   I30       1.0  0.05593  0.17161  0.12678  1.0000 -0.4283451769
I   I31       1.0  0.18027  0.98281  0.04949  1.0000 -0.4502159706
I   I32       1.0  0.17869  0.06467  0.17026  1.0000 -0.4111139683
I   I33       1.0  0.56262  0.47840  0.13259  1.0000 -0.4283451769
I   I34       1.0  0.46401  0.55284  0.02081  1.0000 -0.4192229095
I   I35       1.0  0.34107  0.11262  0.35544  1.0000 -0.4502159706
I   I36       1.0  0.23797  0.26962  0.38498  1.0000 -0.4502159706
I   I37       1.0  0.73033  0.89054  0.88434  1.0000 -0.4502159706
I   I38       1.0  0.82885  0.06703  0.85800  1.0000 -0.4404441337
I   I39       1.0  0.69164  0.17411  0.55526  1.0000 -0.4502159706
I   I40       1.0  0.67526  0.12375  0.67367  1.0000 -0.4192229095
I   I41       1.0  0.55405  0.02382  0.63449  1.0000 -0.4192229095
I   I42       1.0  0.45215  0.10093  0.52805  1.0000 -0.4502159706
I   I43       1.0  0.96424  0.62165  0.52732  1.0000 -0.4404441337
I   I44       1.0  0.05933  0.69418  0.63961  1.0000 -0.4283451769
I   I45       1.0  0.85678  0.58714  0.34561  1.0000 -0.4502159706
I   I46       1.0  0.75334  0.45414  0.38501  1.0000 -0.4283451769
I   I47       1.0  0.13946  0.48745  0.71112  1.0000 -0.4111139683
I   I48       1.0  0.21167  0.58447  0.62477  1.0000 -0.4283451769
N   N1        1.0  0.64820  0.29540  0.08760  1.0000 -0.1882756474
N   N2        1.0  0.55950  0.50920  0.98650  1.0000 -0.3987487774
N   N3        1.0  0.49400  0.49570  0.93360  1.0000 -0.3912676761
N   N4        1.0  0.52290  0.36750  0.97370  1.0000 -0.4192229095
N   N5        1.0  0.51810  0.82330  0.93120  1.0000 -0.1805428865
N   N6        1.0  0.38050  0.26940  0.88660  1.0000 -0.1711933683
N   N7        1.0  0.28770  0.31750  0.83470  1.0000 -0.1882756474
N   N8        1.0  0.17560  0.54720  0.82850  1.0000 -0.3814454484
N   N9        1.0  0.15320  0.68410  0.79410  1.0000 -0.3987487774
N   N10       1.0  0.21280  0.60540  0.78380  1.0000 -0.3912676761
N   N11       1.0  0.06020  0.66290  0.88610  1.0000 -0.1882756474
N   N12       1.0  0.18660  0.86200  0.68420  1.0000 -0.2006911482
N   N13       1.0  0.02700  0.82210  0.93250  1.0000 -0.1882756474
N   N14       1.0  0.06060  0.13640  0.98800  1.0000 -0.3726105313
N   N15       1.0  0.02350  0.27500  0.97650  1.0000 -0.3726105313
N   N16       1.0  0.99740  0.14660  0.93620  1.0000 -0.3987487774
N   N17       1.0  0.15150  0.35440  0.08770  1.0000 -0.1805428865
N   N18       1.0  0.88260  0.37640  0.89370  1.0000 -0.1805428865
N   N19       1.0  0.78180  0.34560  0.85630  1.0000 -0.1882756474
N   N20       1.0  0.67090  0.10840  0.83550  1.0000 -0.3912676761
N   N21       1.0  0.64800  0.98600  0.79330  1.0000 -0.3912676761
N   N22       1.0  0.70590  0.07160  0.78660  1.0000 -0.3726105313
N   N23       1.0  0.55400  0.98110  0.88510  1.0000 -0.1805428865
N   N24       1.0  0.69190  0.83780  0.68000  1.0000 -0.2006911482
N   N25       1.0  0.19610  0.33870  0.17920  1.0000 -0.1805428865
N   N26       1.0  0.20950  0.11040  0.28600  1.0000 -0.3726105313
N   N27       1.0  0.17120  0.07520  0.33300  1.0000 -0.3912676761
N   N28       1.0  0.15250  0.20340  0.29150  1.0000 -0.3987487774
N   N29       1.0  0.28070  0.83530  0.35800  1.0000 -0.1882756474
N   N30       1.0  0.05630  0.20650  0.38370  1.0000 -0.1805428865
N   N31       1.0  0.37760  0.80240  0.39870  1.0000 -0.1882756474
N   N32       1.0  0.52010  0.90980  0.47950  1.0000 -0.3912676761
N   N33       1.0  0.55560  0.05130  0.49380  1.0000 -0.3912676761
N   N34       1.0  0.48970  0.03960  0.44350  1.0000 -0.3912676761
N   N35       1.0  0.64690  0.82810  0.58760  1.0000 -0.1805428865
N   N36       1.0  0.52180  0.36500  0.43260  1.0000 -0.2006911482
N   N37       1.0  0.01650  0.35990  0.42680  1.0000 -0.1882756474
N   N38       1.0  0.05270  0.67090  0.48580  1.0000 -0.3912676761
N   N39       1.0  0.01460  0.81020  0.47700  1.0000 -0.3814454484
N   N40       1.0  0.98760  0.68290  0.43600  1.0000 -0.3814454484
N   N41       1.0  0.13510  0.88570  0.59120  1.0000 -0.1882756474
N   N42       1.0  0.87370  0.90620  0.38730  1.0000 -0.1711933683
N   N43       1.0  0.78320  0.85530  0.32950  1.0000 -0.1882756474
N   N44       1.0  0.71730  0.55850  0.28250  1.0000 -0.3912676761
N   N45       1.0  0.65860  0.47470  0.29160  1.0000 -0.3912676761
N   N46       1.0  0.67600  0.61360  0.32380  1.0000 -0.3814454484
N   N47       1.0  0.69630  0.31560  0.17970  1.0000 -0.1805428865
N   N48       1.0  0.56030  0.50200  0.38050  1.0000 -0.2006911482
N   N49       1.0  0.35180  0.79540  0.91240  1.0000 -0.1882756474
N   N50       1.0  0.44050  0.00920  0.01350  1.0000 -0.3987487774
N   N51       1.0  0.50600  0.99570  0.06640  1.0000 -0.3912676761
N   N52       1.0  0.47710  0.86750  0.02630  1.0000 -0.4192229095
N   N53       1.0  0.48190  0.32330  0.06880  1.0000 -0.1805428865
N   N54       1.0  0.61950  0.76940  0.11340  1.0000 -0.1711933683
N   N55       1.0  0.71230  0.81750  0.16530  1.0000 -0.1882756474
N   N56       1.0  0.82440  0.04720  0.17150  1.0000 -0.3814454484
N   N57       1.0  0.84680  0.18410  0.20590  1.0000 -0.3987487774
N   N58       1.0  0.78720  0.10540  0.21620  1.0000 -0.3912676761
N   N59       1.0  0.93980  0.16290  0.11390  1.0000 -0.1882756474
N   N60       1.0  0.81340  0.36200  0.31580  1.0000 -0.2006911482
N   N61       1.0  0.97300  0.32210  0.06750  1.0000 -0.1882756474
N   N62       1.0  0.93940  0.63640  0.01200  1.0000 -0.3726105313
N   N63       1.0  0.97650  0.77500  0.02350  1.0000 -0.3726105313
N   N64       1.0  0.00260  0.64660  0.06380  1.0000 -0.3987487774
N   N65       1.0  0.84850  0.85440  0.91230  1.0000 -0.1805428865
N   N66       1.0  0.11740  0.87640  0.10630  1.0000 -0.1805428865
N   N67       1.0  0.21820  0.84560  0.14370  1.0000 -0.1882756474
N   N68       1.0  0.32910  0.60840  0.16450  1.0000 -0.3912676761
N   N69       1.0  0.35200  0.48600  0.20670  1.0000 -0.3912676761
N   N70       1.0  0.29410  0.57160  0.21340  1.0000 -0.3726105313
N   N71       1.0  0.44600  0.48110  0.11490  1.0000 -0.1805428865
N   N72       1.0  0.30810  0.33780  0.32000  1.0000 -0.2006911482
N   N73       1.0  0.80390  0.83870  0.82080  1.0000 -0.1805428865
N   N74       1.0  0.79050  0.61040  0.71400  1.0000 -0.3726105313
N   N75       1.0  0.82880  0.57520  0.66700  1.0000 -0.3912676761
N   N76       1.0  0.84750  0.70340  0.70850  1.0000 -0.3987487774
N   N77       1.0  0.71930  0.33530  0.64200  1.0000 -0.1882756474
N   N78       1.0  0.94370  0.70650  0.61630  1.0000 -0.1805428865
N   N79       1.0  0.62240  0.30240  0.60130  1.0000 -0.1805428865
N   N80       1.0  0.47990  0.40980  0.52050  1.0000 -0.3912676761
N   N81       1.0  0.44440  0.55130  0.50620  1.0000 -0.3912676761
N   N82       1.0  0.51030  0.53960  0.55650  1.0000 -0.3912676761
N   N83       1.0  0.35310  0.32810  0.41240  1.0000 -0.1805428865
N   N84       1.0  0.47820  0.86500  0.56740  1.0000 -0.2006911482
N   N85       1.0  0.98350  0.85990  0.57320  1.0000 -0.1882756474
N   N86       1.0  0.94730  0.17090  0.51420  1.0000 -0.3912676761
N   N87       1.0  0.98540  0.31020  0.52300  1.0000 -0.3814454484
N   N88       1.0  0.01240  0.18290  0.56400  1.0000 -0.3814454484
N   N89       1.0  0.86490  0.38570  0.40880  1.0000 -0.1882756474
N   N90       1.0  0.12630  0.40620  0.61270  1.0000 -0.1711933683
N   N91       1.0  0.21680  0.35530  0.67050  1.0000 -0.1882756474
N   N92       1.0  0.28270  0.05850  0.71750  1.0000 -0.3912676761
N   N93       1.0  0.34140  0.97470  0.70840  1.0000 -0.3912676761
N   N94       1.0  0.32400  0.11360  0.67620  1.0000 -0.3814454484
N   N95       1.0  0.30370  0.81560  0.82030  1.0000 -0.1805428865
N   N96       1.0  0.43970  0.00200  0.61950  1.0000 -0.2006911482
