# DDEC6 charges by PACMAN v1.1 (https://github.com/mtap-research/PACMAN-charge/)
data_2013[Cu][zzz]3[ASR]1
_chemical_formula_sum              "Cu16 H56 C112 S16 O96"
_cell_length_a       24.1267
_cell_length_b       24.1267
_cell_length_c       11.3077
_cell_angle_alpha    90
_cell_angle_beta     90
_cell_angle_gamma    90

_symmetry_space_group_name_H-M    "P 1"
_symmetry_Int_Tables_number       1

loop_
  _symmetry_equiv_pos_as_xyz
  'x, y, z'

loop_
  _atom_site_type_symbol
  _atom_site_label
  _atom_site_symmetry_multiplicity
  _atom_site_fract_x
  _atom_site_fract_y
  _atom_site_fract_z
  _atom_site_occupancy
  _atom_site_charge
Cu  Cu1       1.0  0.25850  0.71246  0.10150  1.0000 1.0306116147
Cu  Cu2       1.0  0.74150  0.28754  0.10150  1.0000 1.0306116147
Cu  Cu3       1.0  0.21246  0.24150  0.10150  1.0000 1.0306116147
Cu  Cu4       1.0  0.78754  0.75850  0.10150  1.0000 1.0306116147
Cu  Cu5       1.0  0.24150  0.78754  0.89850  1.0000 1.0306116147
Cu  Cu6       1.0  0.75850  0.21246  0.89850  1.0000 1.0306116147
Cu  Cu7       1.0  0.28754  0.25850  0.89850  1.0000 1.0306116147
Cu  Cu8       1.0  0.71246  0.74150  0.89850  1.0000 1.0306116147
Cu  Cu9       1.0  0.29413  0.84865  0.14732  1.0000 1.0362579925
Cu  Cu10      1.0  0.70587  0.15135  0.14732  1.0000 1.0362579925
Cu  Cu11      1.0  0.34865  0.20587  0.14732  1.0000 1.0362579925
Cu  Cu12      1.0  0.65135  0.79413  0.14732  1.0000 1.0362579925
Cu  Cu13      1.0  0.20587  0.65135  0.85268  1.0000 1.0362579925
Cu  Cu14      1.0  0.79413  0.34865  0.85268  1.0000 1.0362579925
Cu  Cu15      1.0  0.15135  0.29413  0.85268  1.0000 1.0362579925
Cu  Cu16      1.0  0.84865  0.70587  0.85268  1.0000 1.0362579925
H   H1        1.0  0.21720  0.79610  0.10480  1.0000 0.4225288136
H   H2        1.0  0.78280  0.20390  0.10480  1.0000 0.4225288136
H   H3        1.0  0.29610  0.28280  0.10480  1.0000 0.4225288136
H   H4        1.0  0.70390  0.71720  0.10480  1.0000 0.4225288136
H   H5        1.0  0.28280  0.70390  0.89520  1.0000 0.4225288136
H   H6        1.0  0.71720  0.29610  0.89520  1.0000 0.4225288136
H   H7        1.0  0.20390  0.21720  0.89520  1.0000 0.4225288136
H   H8        1.0  0.79610  0.78280  0.89520  1.0000 0.4225288136
H   H9        1.0  0.28560  0.66530  0.45090  1.0000 0.1573799355
H   H10       1.0  0.71440  0.33470  0.45090  1.0000 0.1573799355
H   H11       1.0  0.16530  0.21440  0.45090  1.0000 0.1573799355
H   H12       1.0  0.83470  0.78560  0.45090  1.0000 0.1573799355
H   H13       1.0  0.21440  0.83470  0.54910  1.0000 0.1573799355
H   H14       1.0  0.78560  0.16530  0.54910  1.0000 0.1573799355
H   H15       1.0  0.33470  0.28560  0.54910  1.0000 0.1573799355
H   H16       1.0  0.66530  0.71440  0.54910  1.0000 0.1573799355
H   H17       1.0  0.39220  0.78860  0.65990  1.0000 0.1500530941
H   H18       1.0  0.60780  0.21140  0.65990  1.0000 0.1500530941
H   H19       1.0  0.28860  0.10780  0.65990  1.0000 0.1500530941
H   H20       1.0  0.71140  0.89220  0.65990  1.0000 0.1500530941
H   H21       1.0  0.10780  0.71140  0.34010  1.0000 0.1500530941
H   H22       1.0  0.89220  0.28860  0.34010  1.0000 0.1500530941
H   H23       1.0  0.21140  0.39220  0.34010  1.0000 0.1500530941
H   H24       1.0  0.78860  0.60780  0.34010  1.0000 0.1500530941
H   H25       1.0  0.35870  0.81340  0.47520  1.0000 0.1392201288
H   H26       1.0  0.64130  0.18660  0.47520  1.0000 0.1392201288
H   H27       1.0  0.31340  0.14130  0.47520  1.0000 0.1392201288
H   H28       1.0  0.68660  0.85870  0.47520  1.0000 0.1392201288
H   H29       1.0  0.14130  0.68660  0.52480  1.0000 0.1392201288
H   H30       1.0  0.85870  0.31340  0.52480  1.0000 0.1392201288
H   H31       1.0  0.18660  0.35870  0.52480  1.0000 0.1392201288
H   H32       1.0  0.81340  0.64130  0.52480  1.0000 0.1392201288
H   H33       1.0  0.49560  0.77940  0.01600  1.0000 0.1573799355
H   H34       1.0  0.50440  0.22060  0.01600  1.0000 0.1573799355
H   H35       1.0  0.27940  0.00440  0.01600  1.0000 0.1573799355
H   H36       1.0  0.72060  0.99560  0.01600  1.0000 0.1573799355
H   H37       1.0  0.00440  0.72060  0.98400  1.0000 0.1573799355
H   H38       1.0  0.99560  0.27940  0.98400  1.0000 0.1573799355
H   H39       1.0  0.22060  0.49560  0.98400  1.0000 0.1573799355
H   H40       1.0  0.77940  0.50440  0.98400  1.0000 0.1573799355
H   H41       1.0  0.56080  0.70140  0.73640  1.0000 0.1500530941
H   H42       1.0  0.43920  0.29860  0.73640  1.0000 0.1500530941
H   H43       1.0  0.20140  0.93920  0.73640  1.0000 0.1500530941
H   H44       1.0  0.79860  0.06080  0.73640  1.0000 0.1500530941
H   H45       1.0  0.93920  0.79860  0.26360  1.0000 0.1500530941
H   H46       1.0  0.06080  0.20140  0.26360  1.0000 0.1500530941
H   H47       1.0  0.29860  0.56080  0.26360  1.0000 0.1500530941
H   H48       1.0  0.70140  0.43920  0.26360  1.0000 0.1500530941
H   H49       1.0  0.47330  0.68010  0.67150  1.0000 0.1573799355
H   H50       1.0  0.52670  0.31990  0.67150  1.0000 0.1573799355
H   H51       1.0  0.18010  0.02670  0.67150  1.0000 0.1573799355
H   H52       1.0  0.81990  0.97330  0.67150  1.0000 0.1573799355
H   H53       1.0  0.02670  0.81990  0.32850  1.0000 0.1573799355
H   H54       1.0  0.97330  0.18010  0.32850  1.0000 0.1573799355
H   H55       1.0  0.31990  0.47330  0.32850  1.0000 0.1573799355
H   H56       1.0  0.68010  0.52670  0.32850  1.0000 0.1573799355
C   C1        1.0  0.31937  0.74113  0.44390  1.0000 -0.0169845736
C   C2        1.0  0.68063  0.25887  0.44390  1.0000 -0.0169845736
C   C3        1.0  0.24113  0.18063  0.44390  1.0000 -0.0169845736
C   C4        1.0  0.75887  0.81937  0.44390  1.0000 -0.0169845736
C   C5        1.0  0.18063  0.75887  0.55610  1.0000 -0.0169845736
C   C6        1.0  0.81937  0.24113  0.55610  1.0000 -0.0169845736
C   C7        1.0  0.25887  0.31937  0.55610  1.0000 -0.0169845736
C   C8        1.0  0.74113  0.68063  0.55610  1.0000 -0.0169845736
C   C9        1.0  0.30782  0.69013  0.49230  1.0000 -0.0709101381
C   C10       1.0  0.69218  0.30987  0.49230  1.0000 -0.0709101381
C   C11       1.0  0.19013  0.19218  0.49230  1.0000 -0.0709101381
C   C12       1.0  0.80987  0.80782  0.49230  1.0000 -0.0709101381
C   C13       1.0  0.19218  0.80987  0.50770  1.0000 -0.0709101381
C   C14       1.0  0.80782  0.19013  0.50770  1.0000 -0.0709101381
C   C15       1.0  0.30987  0.30782  0.50770  1.0000 -0.0709101381
C   C16       1.0  0.69013  0.69218  0.50770  1.0000 -0.0709101381
C   C17       1.0  0.32869  0.67530  0.60160  1.0000 -0.1724300124
C   C18       1.0  0.67131  0.32470  0.60160  1.0000 -0.1724300124
C   C19       1.0  0.17530  0.17131  0.60160  1.0000 -0.1724300124
C   C20       1.0  0.82470  0.82869  0.60160  1.0000 -0.1724300124
C   C21       1.0  0.17131  0.82470  0.39840  1.0000 -0.1724300124
C   C22       1.0  0.82869  0.17530  0.39840  1.0000 -0.1724300124
C   C23       1.0  0.32470  0.32869  0.39840  1.0000 -0.1724300124
C   C24       1.0  0.67530  0.67131  0.39840  1.0000 -0.1724300124
C   C25       1.0  0.36095  0.71270  0.66150  1.0000 0.2389277928
C   C26       1.0  0.63905  0.28730  0.66150  1.0000 0.2389277928
C   C27       1.0  0.21270  0.13905  0.66150  1.0000 0.2389277928
C   C28       1.0  0.78730  0.86095  0.66150  1.0000 0.2389277928
C   C29       1.0  0.13905  0.78730  0.33850  1.0000 0.2389277928
C   C30       1.0  0.86095  0.21270  0.33850  1.0000 0.2389277928
C   C31       1.0  0.28730  0.36095  0.33850  1.0000 0.2389277928
C   C32       1.0  0.71270  0.63905  0.33850  1.0000 0.2389277928
C   C33       1.0  0.37120  0.76340  0.61650  1.0000 -0.1724300124
C   C34       1.0  0.62880  0.23660  0.61650  1.0000 -0.1724300124
C   C35       1.0  0.26340  0.12880  0.61650  1.0000 -0.1724300124
C   C36       1.0  0.73660  0.87120  0.61650  1.0000 -0.1724300124
C   C37       1.0  0.12880  0.73660  0.38350  1.0000 -0.1724300124
C   C38       1.0  0.87120  0.26340  0.38350  1.0000 -0.1724300124
C   C39       1.0  0.23660  0.37120  0.38350  1.0000 -0.1724300124
C   C40       1.0  0.76340  0.62880  0.38350  1.0000 -0.1724300124
C   C41       1.0  0.35100  0.77850  0.50640  1.0000 -0.0504488619
C   C42       1.0  0.64900  0.22150  0.50640  1.0000 -0.0504488619
C   C43       1.0  0.27850  0.14900  0.50640  1.0000 -0.0504488619
C   C44       1.0  0.72150  0.85100  0.50640  1.0000 -0.0504488619
C   C45       1.0  0.14900  0.72150  0.49360  1.0000 -0.0504488619
C   C46       1.0  0.85100  0.27850  0.49360  1.0000 -0.0504488619
C   C47       1.0  0.22150  0.35100  0.49360  1.0000 -0.0504488619
C   C48       1.0  0.77850  0.64900  0.49360  1.0000 -0.0504488619
C   C49       1.0  0.43249  0.71580  0.80590  1.0000 0.2389277928
C   C50       1.0  0.56751  0.28420  0.80590  1.0000 0.2389277928
C   C51       1.0  0.21580  0.06751  0.80590  1.0000 0.2389277928
C   C52       1.0  0.78420  0.93249  0.80590  1.0000 0.2389277928
C   C53       1.0  0.06751  0.78420  0.19410  1.0000 0.2389277928
C   C54       1.0  0.93249  0.21580  0.19410  1.0000 0.2389277928
C   C55       1.0  0.28420  0.43249  0.19410  1.0000 0.2389277928
C   C56       1.0  0.71580  0.56751  0.19410  1.0000 0.2389277928
C   C57       1.0  0.43848  0.74618  0.90670  1.0000 -0.1609421987
C   C58       1.0  0.56152  0.25382  0.90670  1.0000 -0.1609421987
C   C59       1.0  0.24618  0.06152  0.90670  1.0000 -0.1609421987
C   C60       1.0  0.75382  0.93848  0.90670  1.0000 -0.1609421987
C   C61       1.0  0.06152  0.75382  0.09330  1.0000 -0.1609421987
C   C62       1.0  0.93848  0.24618  0.09330  1.0000 -0.1609421987
C   C63       1.0  0.25382  0.43848  0.09330  1.0000 -0.1609421987
C   C64       1.0  0.74618  0.56152  0.09330  1.0000 -0.1609421987
C   C65       1.0  0.49128  0.75922  0.94650  1.0000 -0.0571452724
C   C66       1.0  0.50872  0.24078  0.94650  1.0000 -0.0571452724
C   C67       1.0  0.25922  0.00872  0.94650  1.0000 -0.0571452724
C   C68       1.0  0.74078  0.99128  0.94650  1.0000 -0.0571452724
C   C69       1.0  0.00872  0.74078  0.05350  1.0000 -0.0571452724
C   C70       1.0  0.99128  0.25922  0.05350  1.0000 -0.0571452724
C   C71       1.0  0.24078  0.49128  0.05350  1.0000 -0.0571452724
C   C72       1.0  0.75922  0.50872  0.05350  1.0000 -0.0571452724
C   C73       1.0  0.53792  0.74230  0.88340  1.0000 -0.0109940413
C   C74       1.0  0.46208  0.25770  0.88340  1.0000 -0.0109940413
C   C75       1.0  0.24230  0.96208  0.88340  1.0000 -0.0109940413
C   C76       1.0  0.75770  0.03792  0.88340  1.0000 -0.0109940413
C   C77       1.0  0.96208  0.75770  0.11660  1.0000 -0.0109940413
C   C78       1.0  0.03792  0.24230  0.11660  1.0000 -0.0109940413
C   C79       1.0  0.25770  0.53792  0.11660  1.0000 -0.0109940413
C   C80       1.0  0.74230  0.46208  0.11660  1.0000 -0.0109940413
C   C81       1.0  0.53017  0.71270  0.78020  1.0000 -0.0504488619
C   C82       1.0  0.46983  0.28730  0.78020  1.0000 -0.0504488619
C   C83       1.0  0.21270  0.96983  0.78020  1.0000 -0.0504488619
C   C84       1.0  0.78730  0.03017  0.78020  1.0000 -0.0504488619
C   C85       1.0  0.96983  0.78730  0.21980  1.0000 -0.0504488619
C   C86       1.0  0.03017  0.21270  0.21980  1.0000 -0.0504488619
C   C87       1.0  0.28730  0.53017  0.21980  1.0000 -0.0504488619
C   C88       1.0  0.71270  0.46983  0.21980  1.0000 -0.0504488619
C   C89       1.0  0.47790  0.69980  0.74150  1.0000 -0.1609421987
C   C90       1.0  0.52210  0.30020  0.74150  1.0000 -0.1609421987
C   C91       1.0  0.19980  0.02210  0.74150  1.0000 -0.1609421987
C   C92       1.0  0.80020  0.97790  0.74150  1.0000 -0.1609421987
C   C93       1.0  0.02210  0.80020  0.25850  1.0000 -0.1609421987
C   C94       1.0  0.97790  0.19980  0.25850  1.0000 -0.1609421987
C   C95       1.0  0.30020  0.47790  0.25850  1.0000 -0.1609421987
C   C96       1.0  0.69980  0.52210  0.25850  1.0000 -0.1609421987
C   C97       1.0  0.29816  0.75639  0.32190  1.0000 0.6127861245
C   C98       1.0  0.70184  0.24361  0.32190  1.0000 0.6127861245
C   C99       1.0  0.25639  0.20184  0.32190  1.0000 0.6127861245
C   C100      1.0  0.74361  0.79816  0.32190  1.0000 0.6127861245
C   C101      1.0  0.20184  0.74361  0.67810  1.0000 0.6127861245
C   C102      1.0  0.79816  0.25639  0.67810  1.0000 0.6127861245
C   C103      1.0  0.24361  0.29816  0.67810  1.0000 0.6127861245
C   C104      1.0  0.75639  0.70184  0.67810  1.0000 0.6127861245
C   C105      1.0  0.59490  0.75408  0.93030  1.0000 0.6127861245
C   C106      1.0  0.40510  0.24592  0.93030  1.0000 0.6127861245
C   C107      1.0  0.25408  0.90510  0.93030  1.0000 0.6127861245
C   C108      1.0  0.74592  0.09490  0.93030  1.0000 0.6127861245
C   C109      1.0  0.90510  0.74592  0.06970  1.0000 0.6127861245
C   C110      1.0  0.09490  0.25408  0.06970  1.0000 0.6127861245
C   C111      1.0  0.24592  0.59490  0.06970  1.0000 0.6127861245
C   C112      1.0  0.75408  0.40510  0.06970  1.0000 0.6127861245
S   S1        1.0  0.31456  0.60846  0.66016  1.0000 1.2034052862
S   S2        1.0  0.68544  0.39154  0.66016  1.0000 1.2034052862
S   S3        1.0  0.10846  0.18544  0.66016  1.0000 1.2034052862
S   S4        1.0  0.89154  0.81456  0.66016  1.0000 1.2034052862
S   S5        1.0  0.18544  0.89154  0.33984  1.0000 1.2034052862
S   S6        1.0  0.81456  0.10846  0.33984  1.0000 1.2034052862
S   S7        1.0  0.39154  0.31456  0.33984  1.0000 1.2034052862
S   S8        1.0  0.60846  0.68544  0.33984  1.0000 1.2034052862
S   S9        1.0  0.37974  0.76978  0.98420  1.0000 1.2132057501
S   S10       1.0  0.62026  0.23022  0.98420  1.0000 1.2132057501
S   S11       1.0  0.26978  0.12026  0.98420  1.0000 1.2132057501
S   S12       1.0  0.73022  0.87974  0.98420  1.0000 1.2132057501
S   S13       1.0  0.12026  0.73022  0.01580  1.0000 1.2132057501
S   S14       1.0  0.87974  0.26978  0.01580  1.0000 1.2132057501
S   S15       1.0  0.23022  0.37974  0.01580  1.0000 1.2132057501
S   S16       1.0  0.76978  0.62026  0.01580  1.0000 1.2132057501
O   O1        1.0  0.31115  0.80293  0.28400  1.0000 -0.5340749221
O   O2        1.0  0.68885  0.19707  0.28400  1.0000 -0.5340749221
O   O3        1.0  0.30293  0.18885  0.28400  1.0000 -0.5340749221
O   O4        1.0  0.69707  0.81115  0.28400  1.0000 -0.5340749221
O   O5        1.0  0.18885  0.69707  0.71600  1.0000 -0.5340749221
O   O6        1.0  0.81115  0.30293  0.71600  1.0000 -0.5340749221
O   O7        1.0  0.19707  0.31115  0.71600  1.0000 -0.5340749221
O   O8        1.0  0.80293  0.68885  0.71600  1.0000 -0.5340749221
O   O9        1.0  0.27079  0.71950  0.26780  1.0000 -0.5132843452
O   O10       1.0  0.72921  0.28050  0.26780  1.0000 -0.5132843452
O   O11       1.0  0.21950  0.22921  0.26780  1.0000 -0.5132843452
O   O12       1.0  0.78050  0.77079  0.26780  1.0000 -0.5132843452
O   O13       1.0  0.22921  0.78050  0.73220  1.0000 -0.5132843452
O   O14       1.0  0.77079  0.21950  0.73220  1.0000 -0.5132843452
O   O15       1.0  0.28050  0.27079  0.73220  1.0000 -0.5132843452
O   O16       1.0  0.71950  0.72921  0.73220  1.0000 -0.5132843452
O   O17       1.0  0.63395  0.73147  0.87690  1.0000 -0.4990443187
O   O18       1.0  0.36605  0.26853  0.87690  1.0000 -0.4990443187
O   O19       1.0  0.23147  0.86605  0.87690  1.0000 -0.4990443187
O   O20       1.0  0.76853  0.13395  0.87690  1.0000 -0.4990443187
O   O21       1.0  0.86605  0.76853  0.12310  1.0000 -0.4990443187
O   O22       1.0  0.13395  0.23147  0.12310  1.0000 -0.4990443187
O   O23       1.0  0.26853  0.63395  0.12310  1.0000 -0.4990443187
O   O24       1.0  0.73147  0.36605  0.12310  1.0000 -0.4990443187
O   O25       1.0  0.59798  0.78538  0.01740  1.0000 -0.5192955332
O   O26       1.0  0.40202  0.21462  0.01740  1.0000 -0.5192955332
O   O27       1.0  0.28538  0.90202  0.01740  1.0000 -0.5192955332
O   O28       1.0  0.71462  0.09798  0.01740  1.0000 -0.5192955332
O   O29       1.0  0.90202  0.71462  0.98260  1.0000 -0.5192955332
O   O30       1.0  0.09798  0.28538  0.98260  1.0000 -0.5192955332
O   O31       1.0  0.21462  0.59798  0.98260  1.0000 -0.5192955332
O   O32       1.0  0.78538  0.40202  0.98260  1.0000 -0.5192955332
O   O33       1.0  0.27630  0.58321  0.57890  1.0000 -0.5671941536
O   O34       1.0  0.72370  0.41679  0.57890  1.0000 -0.5671941536
O   O35       1.0  0.08321  0.22370  0.57890  1.0000 -0.5671941536
O   O36       1.0  0.91679  0.77630  0.57890  1.0000 -0.5671941536
O   O37       1.0  0.22370  0.91679  0.42110  1.0000 -0.5671941536
O   O38       1.0  0.77630  0.08321  0.42110  1.0000 -0.5671941536
O   O39       1.0  0.41679  0.27630  0.42110  1.0000 -0.5671941536
O   O40       1.0  0.58321  0.72370  0.42110  1.0000 -0.5671941536
O   O41       1.0  0.29173  0.61639  0.77660  1.0000 -0.6108090179
O   O42       1.0  0.70827  0.38361  0.77660  1.0000 -0.6108090179
O   O43       1.0  0.11639  0.20827  0.77660  1.0000 -0.6108090179
O   O44       1.0  0.88361  0.79173  0.77660  1.0000 -0.6108090179
O   O45       1.0  0.20827  0.88361  0.22340  1.0000 -0.6108090179
O   O46       1.0  0.79173  0.11639  0.22340  1.0000 -0.6108090179
O   O47       1.0  0.38361  0.29173  0.22340  1.0000 -0.6108090179
O   O48       1.0  0.61639  0.70827  0.22340  1.0000 -0.6108090179
O   O49       1.0  0.36720  0.58050  0.66600  1.0000 -0.5382934706
O   O50       1.0  0.63280  0.41950  0.66600  1.0000 -0.5382934706
O   O51       1.0  0.08050  0.13280  0.66600  1.0000 -0.5382934706
O   O52       1.0  0.91950  0.86720  0.66600  1.0000 -0.5382934706
O   O53       1.0  0.13280  0.91950  0.33400  1.0000 -0.5382934706
O   O54       1.0  0.86720  0.08050  0.33400  1.0000 -0.5382934706
O   O55       1.0  0.41950  0.36720  0.33400  1.0000 -0.5382934706
O   O56       1.0  0.58050  0.63280  0.33400  1.0000 -0.5382934706
O   O57       1.0  0.35707  0.71971  0.04140  1.0000 -0.6108090179
O   O58       1.0  0.64293  0.28029  0.04140  1.0000 -0.6108090179
O   O59       1.0  0.21971  0.14293  0.04140  1.0000 -0.6108090179
O   O60       1.0  0.78029  0.85707  0.04140  1.0000 -0.6108090179
O   O61       1.0  0.14293  0.78029  0.95860  1.0000 -0.6108090179
O   O62       1.0  0.85707  0.21971  0.95860  1.0000 -0.6108090179
O   O63       1.0  0.28029  0.35707  0.95860  1.0000 -0.6108090179
O   O64       1.0  0.71971  0.64293  0.95860  1.0000 -0.6108090179
O   O65       1.0  0.39842  0.81161  0.06420  1.0000 -0.5671941536
O   O66       1.0  0.60158  0.18839  0.06420  1.0000 -0.5671941536
O   O67       1.0  0.31161  0.10158  0.06420  1.0000 -0.5671941536
O   O68       1.0  0.68839  0.89842  0.06420  1.0000 -0.5671941536
O   O69       1.0  0.10158  0.68839  0.93580  1.0000 -0.5671941536
O   O70       1.0  0.89842  0.31161  0.93580  1.0000 -0.5671941536
O   O71       1.0  0.18839  0.39842  0.93580  1.0000 -0.5671941536
O   O72       1.0  0.81161  0.60158  0.93580  1.0000 -0.5671941536
O   O73       1.0  0.34180  0.79199  0.89500  1.0000 -0.6261368589
O   O74       1.0  0.65820  0.20801  0.89500  1.0000 -0.6261368589
O   O75       1.0  0.29199  0.15820  0.89500  1.0000 -0.6261368589
O   O76       1.0  0.70801  0.84180  0.89500  1.0000 -0.6261368589
O   O77       1.0  0.15820  0.70801  0.10500  1.0000 -0.6261368589
O   O78       1.0  0.84180  0.29199  0.10500  1.0000 -0.6261368589
O   O79       1.0  0.20801  0.34180  0.10500  1.0000 -0.6261368589
O   O80       1.0  0.79199  0.65820  0.10500  1.0000 -0.6261368589
O   O81       1.0  0.24747  0.79234  0.07290  1.0000 -0.8275393368
O   O82       1.0  0.75253  0.20766  0.07290  1.0000 -0.8275393368
O   O83       1.0  0.29234  0.25253  0.07290  1.0000 -0.8275393368
O   O84       1.0  0.70766  0.74747  0.07290  1.0000 -0.8275393368
O   O85       1.0  0.25253  0.70766  0.92710  1.0000 -0.8275393368
O   O86       1.0  0.74747  0.29234  0.92710  1.0000 -0.8275393368
O   O87       1.0  0.20766  0.24747  0.92710  1.0000 -0.8275393368
O   O88       1.0  0.79234  0.75253  0.92710  1.0000 -0.8275393368
O   O89       1.0  0.37987  0.69732  0.77380  1.0000 -0.1835521152
O   O90       1.0  0.62013  0.30268  0.77380  1.0000 -0.1835521152
O   O91       1.0  0.19732  0.12013  0.77380  1.0000 -0.1835521152
O   O92       1.0  0.80268  0.87987  0.77380  1.0000 -0.1835521152
O   O93       1.0  0.12013  0.80268  0.22620  1.0000 -0.1835521152
O   O94       1.0  0.87987  0.19732  0.22620  1.0000 -0.1835521152
O   O95       1.0  0.30268  0.37987  0.22620  1.0000 -0.1835521152
O   O96       1.0  0.69732  0.62013  0.22620  1.0000 -0.1835521152
