# DDEC6 charges by PACMAN v1.1 (https://github.com/mtap-research/PACMAN-charge/)
data_2013[Gd][dia]3[ASR]1
_chemical_formula_sum              "Gd4 C16 O32"
_cell_length_a       9.659
_cell_length_b       11.718
_cell_length_c       14.3593
_cell_angle_alpha    90
_cell_angle_beta     122.407
_cell_angle_gamma    90

_symmetry_space_group_name_H-M    "P 1"
_symmetry_Int_Tables_number       1

loop_
  _symmetry_equiv_pos_as_xyz
  'x, y, z'

loop_
  _atom_site_type_symbol
  _atom_site_label
  _atom_site_symmetry_multiplicity
  _atom_site_fract_x
  _atom_site_fract_y
  _atom_site_fract_z
  _atom_site_occupancy
  _atom_site_charge
Gd  Gd1       1.0  0.11730  0.51480  0.33135  1.0000 1.9032485772
Gd  Gd2       1.0  0.88270  0.01480  0.16865  1.0000 1.9032485772
Gd  Gd3       1.0  0.88270  0.48520  0.66865  1.0000 1.9032485772
Gd  Gd4       1.0  0.11730  0.98520  0.83135  1.0000 1.9032485772
C   C1        1.0  0.09520  0.78920  0.29380  1.0000 0.5830480743
C   C2        1.0  0.90480  0.28920  0.20620  1.0000 0.5830480743
C   C3        1.0  0.90480  0.21080  0.70620  1.0000 0.5830480743
C   C4        1.0  0.09520  0.71080  0.79380  1.0000 0.5830480743
C   C5        1.0  0.91740  0.74540  0.21680  1.0000 0.5944875169
C   C6        1.0  0.08260  0.24540  0.28320  1.0000 0.5961415458
C   C7        1.0  0.08260  0.25460  0.78320  1.0000 0.5961415458
C   C8        1.0  0.91740  0.75460  0.71680  1.0000 0.5944875169
C   C9        1.0  0.51540  0.50050  0.45250  1.0000 0.5535525072
C   C10       1.0  0.48460  0.00050  0.04750  1.0000 0.5535525072
C   C11       1.0  0.48460  0.49950  0.54750  1.0000 0.5535525072
C   C12       1.0  0.51540  0.99950  0.95250  1.0000 0.5560992945
C   C13       1.0  0.99460  0.56600  0.49990  1.0000 0.5373053688
C   C14       1.0  0.00540  0.06600  0.00010  1.0000 0.5373053688
C   C15       1.0  0.00540  0.43400  0.50010  1.0000 0.5373053688
C   C16       1.0  0.99460  0.93400  0.99990  1.0000 0.5373053688
O   O1        1.0  0.20420  0.71430  0.34390  1.0000 -0.5386193108
O   O2        1.0  0.79580  0.21430  0.15610  1.0000 -0.5386193108
O   O3        1.0  0.79580  0.28570  0.65610  1.0000 -0.5386193108
O   O4        1.0  0.20420  0.78570  0.84390  1.0000 -0.5386193108
O   O5        1.0  0.11630  0.89470  0.29900  1.0000 -0.519954015
O   O6        1.0  0.88370  0.39470  0.20100  1.0000 -0.519954015
O   O7        1.0  0.88370  0.10530  0.70100  1.0000 -0.519954015
O   O8        1.0  0.11630  0.60530  0.79900  1.0000 -0.519954015
O   O9        1.0  0.89760  0.63950  0.20600  1.0000 -0.5307689171
O   O10       1.0  0.10240  0.13950  0.29400  1.0000 -0.5307689171
O   O11       1.0  0.10240  0.36050  0.79400  1.0000 -0.5307689171
O   O12       1.0  0.89760  0.86050  0.70600  1.0000 -0.5307689171
O   O13       1.0  0.80680  0.81910  0.17230  1.0000 -0.5469937932
O   O14       1.0  0.19320  0.31910  0.32770  1.0000 -0.5469937932
O   O15       1.0  0.19320  0.18090  0.82770  1.0000 -0.5469937932
O   O16       1.0  0.80680  0.68090  0.67230  1.0000 -0.5469937932
O   O17       1.0  0.39050  0.51250  0.35710  1.0000 -0.5121169806
O   O18       1.0  0.60950  0.01250  0.14290  1.0000 -0.5121169806
O   O19       1.0  0.60950  0.48750  0.64290  1.0000 -0.5121169806
O   O20       1.0  0.39050  0.98750  0.85710  1.0000 -0.5121169806
O   O21       1.0  0.65890  0.48820  0.47750  1.0000 -0.5121169806
O   O22       1.0  0.34110  0.98820  0.02250  1.0000 -0.5121169806
O   O23       1.0  0.34110  0.51180  0.52250  1.0000 -0.5121169806
O   O24       1.0  0.65890  0.01180  0.97750  1.0000 -0.519954015
O   O25       1.0  0.01820  0.61800  0.43370  1.0000 -0.5121169806
O   O26       1.0  0.98180  0.11800  0.06630  1.0000 -0.5121169806
O   O27       1.0  0.98180  0.38200  0.56630  1.0000 -0.5121169806
O   O28       1.0  0.01820  0.88200  0.93370  1.0000 -0.5121169806
O   O29       1.0  0.96380  0.61000  0.56580  1.0000 -0.4984595191
O   O30       1.0  0.03620  0.11000  0.93420  1.0000 -0.4984595191
O   O31       1.0  0.03620  0.39000  0.43420  1.0000 -0.4984595191
O   O32       1.0  0.96380  0.89000  0.06580  1.0000 -0.4984595191
