# DDEC6 charges by PACMAN v1.1 (https://github.com/mtap-research/PACMAN-charge/)
data_2013[Zn][pts]3[ASR]2
_chemical_formula_sum              "Zn8 H36 C76 N28 O24"
_cell_length_a       10.814
_cell_length_b       10.814
_cell_length_c       25.41
_cell_angle_alpha    90
_cell_angle_beta     90
_cell_angle_gamma    90

_symmetry_space_group_name_H-M    "P 1"
_symmetry_Int_Tables_number       1

loop_
  _symmetry_equiv_pos_as_xyz
  'x, y, z'

loop_
  _atom_site_type_symbol
  _atom_site_label
  _atom_site_symmetry_multiplicity
  _atom_site_fract_x
  _atom_site_fract_y
  _atom_site_fract_z
  _atom_site_occupancy
  _atom_site_charge
Zn  Zn1       1.0  0.54341  0.54094  0.07925  1.0000 0.7250232591
Zn  Zn2       1.0  0.95906  0.04341  0.82925  1.0000 0.7250232591
Zn  Zn3       1.0  0.45659  0.45906  0.57925  1.0000 0.7250232591
Zn  Zn4       1.0  0.04094  0.95659  0.32925  1.0000 0.7250232591
Zn  Zn5       1.0  0.04341  0.95906  0.17075  1.0000 0.7250232591
Zn  Zn6       1.0  0.95659  0.04094  0.67075  1.0000 0.7250232591
Zn  Zn7       1.0  0.54094  0.54341  0.92075  1.0000 0.7250232591
Zn  Zn8       1.0  0.45906  0.45659  0.42075  1.0000 0.7250232591
H   H1        1.0  0.66800  0.68400  0.20830  1.0000 0.1306027814
H   H2        1.0  0.81600  0.16800  0.95830  1.0000 0.1306027814
H   H3        1.0  0.33200  0.31600  0.70830  1.0000 0.1306027814
H   H4        1.0  0.18400  0.83200  0.45830  1.0000 0.1306027814
H   H5        1.0  0.16800  0.81600  0.04170  1.0000 0.1306027814
H   H6        1.0  0.83200  0.18400  0.54170  1.0000 0.1306027814
H   H7        1.0  0.68400  0.66800  0.79170  1.0000 0.1306027814
H   H8        1.0  0.31600  0.33200  0.29170  1.0000 0.1306027814
H   H9        1.0  0.83860  0.79970  0.23030  1.0000 0.1368370976
H   H10       1.0  0.70030  0.33860  0.98030  1.0000 0.1368370976
H   H11       1.0  0.16140  0.20030  0.73030  1.0000 0.1368370976
H   H12       1.0  0.29970  0.66140  0.48030  1.0000 0.1368370976
H   H13       1.0  0.33860  0.70030  0.01970  1.0000 0.1368370976
H   H14       1.0  0.66140  0.29970  0.51970  1.0000 0.1368370976
H   H15       1.0  0.79970  0.83860  0.76970  1.0000 0.1368370976
H   H16       1.0  0.20030  0.16140  0.26970  1.0000 0.1368370976
H   H17       1.0  0.90660  0.85530  0.08170  1.0000 0.1306027814
H   H18       1.0  0.64470  0.40660  0.83170  1.0000 0.1306027814
H   H19       1.0  0.09340  0.14470  0.58170  1.0000 0.1306027814
H   H20       1.0  0.35530  0.59340  0.33170  1.0000 0.1306027814
H   H21       1.0  0.40660  0.64470  0.16830  1.0000 0.1306027814
H   H22       1.0  0.59340  0.35530  0.66830  1.0000 0.1306027814
H   H23       1.0  0.85530  0.90660  0.91830  1.0000 0.1306027814
H   H24       1.0  0.14470  0.09340  0.41830  1.0000 0.1306027814
H   H25       1.0  0.30420  0.26310  0.07790  1.0000 0.1368370976
H   H26       1.0  0.23690  0.80420  0.82790  1.0000 0.1368370976
H   H27       1.0  0.69580  0.73690  0.57790  1.0000 0.1368370976
H   H28       1.0  0.76310  0.19580  0.32790  1.0000 0.1368370976
H   H29       1.0  0.80420  0.23690  0.17210  1.0000 0.1368370976
H   H30       1.0  0.19580  0.76310  0.67210  1.0000 0.1368370976
H   H31       1.0  0.26310  0.30420  0.92210  1.0000 0.1368370976
H   H32       1.0  0.73690  0.69580  0.42210  1.0000 0.1368370976
H   H33       1.0  0.05600  0.05600  0.00000  1.0000 0.1123771115
H   H34       1.0  0.44400  0.55600  0.75000  1.0000 0.1123771115
H   H35       1.0  0.94400  0.94400  0.50000  1.0000 0.1123771115
H   H36       1.0  0.55600  0.44400  0.25000  1.0000 0.1123771115
C   C1        1.0  0.71710  0.71660  0.18163  1.0000 0.053537593
C   C2        1.0  0.78340  0.21710  0.93163  1.0000 0.053537593
C   C3        1.0  0.28290  0.28340  0.68163  1.0000 0.053537593
C   C4        1.0  0.21660  0.78290  0.43163  1.0000 0.053537593
C   C5        1.0  0.21710  0.78340  0.06837  1.0000 0.053537593
C   C6        1.0  0.78290  0.21660  0.56837  1.0000 0.053537593
C   C7        1.0  0.71660  0.71710  0.81837  1.0000 0.053537593
C   C8        1.0  0.28340  0.28290  0.31837  1.0000 0.053537593
C   C9        1.0  0.81880  0.78880  0.19499  1.0000 0.0206769321
C   C10       1.0  0.71120  0.31880  0.94499  1.0000 0.0206769321
C   C11       1.0  0.18120  0.21120  0.69499  1.0000 0.0206769321
C   C12       1.0  0.28880  0.68120  0.44499  1.0000 0.0206769321
C   C13       1.0  0.31880  0.71120  0.05501  1.0000 0.0206769321
C   C14       1.0  0.68120  0.28880  0.55501  1.0000 0.0206769321
C   C15       1.0  0.78880  0.81880  0.80501  1.0000 0.0206769321
C   C16       1.0  0.21120  0.18120  0.30501  1.0000 0.0206769321
C   C17       1.0  0.85910  0.82060  0.10840  1.0000 0.0258839584
C   C18       1.0  0.67940  0.35910  0.85840  1.0000 0.0258839584
C   C19       1.0  0.14090  0.17940  0.60840  1.0000 0.0258839584
C   C20       1.0  0.32060  0.64090  0.35840  1.0000 0.0258839584
C   C21       1.0  0.35910  0.67940  0.14160  1.0000 0.0258839584
C   C22       1.0  0.64090  0.32060  0.64160  1.0000 0.0258839584
C   C23       1.0  0.82060  0.85910  0.89160  1.0000 0.0258839584
C   C24       1.0  0.17940  0.14090  0.39160  1.0000 0.0258839584
C   C25       1.0  0.75840  0.74660  0.09534  1.0000 0.1163380292
C   C26       1.0  0.75340  0.25840  0.84534  1.0000 0.1163380292
C   C27       1.0  0.24160  0.25340  0.59534  1.0000 0.1163380292
C   C28       1.0  0.24660  0.74160  0.34534  1.0000 0.1163380292
C   C29       1.0  0.25840  0.75340  0.15466  1.0000 0.1163380292
C   C30       1.0  0.74160  0.24660  0.65466  1.0000 0.1163380292
C   C31       1.0  0.74660  0.75840  0.90466  1.0000 0.1163380292
C   C32       1.0  0.25340  0.24160  0.40466  1.0000 0.1163380292
C   C33       1.0  0.72820  0.72240  0.04066  1.0000 0.2347481295
C   C34       1.0  0.77760  0.22820  0.79066  1.0000 0.2347481295
C   C35       1.0  0.27180  0.27760  0.54066  1.0000 0.2347481295
C   C36       1.0  0.22240  0.77180  0.29066  1.0000 0.2347481295
C   C37       1.0  0.22820  0.77760  0.20934  1.0000 0.2347481295
C   C38       1.0  0.77180  0.22240  0.70934  1.0000 0.2347481295
C   C39       1.0  0.72240  0.72820  0.95934  1.0000 0.2347481295
C   C40       1.0  0.27760  0.27180  0.45934  1.0000 0.2347481295
C   C41       1.0  0.39620  0.39620  0.00000  1.0000 0.5780035152
C   C42       1.0  0.10380  0.89620  0.75000  1.0000 0.5780035152
C   C43       1.0  0.60380  0.60380  0.50000  1.0000 0.5780035152
C   C44       1.0  0.89620  0.10380  0.25000  1.0000 0.5780035152
C   C45       1.0  0.29830  0.29830  0.00000  1.0000 -0.0350225412
C   C46       1.0  0.20170  0.79830  0.75000  1.0000 -0.0350225412
C   C47       1.0  0.70170  0.70170  0.50000  1.0000 -0.0350225412
C   C48       1.0  0.79830  0.20170  0.25000  1.0000 -0.0350225412
C   C49       1.0  0.26480  0.24140  0.04669  1.0000 -0.1008924202
C   C50       1.0  0.25860  0.76480  0.79669  1.0000 -0.1008924202
C   C51       1.0  0.73520  0.75860  0.54669  1.0000 -0.1008924202
C   C52       1.0  0.74140  0.23520  0.29669  1.0000 -0.1008924202
C   C53       1.0  0.76480  0.25860  0.20331  1.0000 -0.1008924202
C   C54       1.0  0.23520  0.74140  0.70331  1.0000 -0.1008924202
C   C55       1.0  0.24140  0.26480  0.95331  1.0000 -0.1008924202
C   C56       1.0  0.75860  0.73520  0.45331  1.0000 -0.1008924202
C   C57       1.0  0.17270  0.15200  0.04707  1.0000 -0.0235717497
C   C58       1.0  0.34800  0.67270  0.79707  1.0000 -0.0235717497
C   C59       1.0  0.82730  0.84800  0.54707  1.0000 -0.0235717497
C   C60       1.0  0.65200  0.32730  0.29707  1.0000 -0.0235717497
C   C61       1.0  0.67270  0.34800  0.20293  1.0000 -0.0235717497
C   C62       1.0  0.32730  0.65200  0.70293  1.0000 -0.0235717497
C   C63       1.0  0.15200  0.17270  0.95293  1.0000 -0.0235717497
C   C64       1.0  0.84800  0.82730  0.45293  1.0000 -0.0235717497
C   C65       1.0  0.11680  0.11680  0.00000  1.0000 -0.1183790074
C   C66       1.0  0.38320  0.61680  0.75000  1.0000 -0.1183790074
C   C67       1.0  0.88320  0.88320  0.50000  1.0000 -0.1183790074
C   C68       1.0  0.61680  0.38320  0.25000  1.0000 -0.1183790074
C   C69       1.0  0.13360  0.09220  0.09768  1.0000 0.5485589995
C   C70       1.0  0.40780  0.63360  0.84768  1.0000 0.5485589995
C   C71       1.0  0.86640  0.90780  0.59768  1.0000 0.5485589995
C   C72       1.0  0.59220  0.36640  0.34768  1.0000 0.5485589995
C   C73       1.0  0.63360  0.40780  0.15232  1.0000 0.5485589995
C   C74       1.0  0.36640  0.59220  0.65232  1.0000 0.5485589995
C   C75       1.0  0.09220  0.13360  0.90232  1.0000 0.5485589995
C   C76       1.0  0.90780  0.86640  0.40232  1.0000 0.5485589995
N   N1        1.0  0.88860  0.84260  0.15828  1.0000 -0.1764195518
N   N2        1.0  0.65740  0.38860  0.90828  1.0000 -0.1764195518
N   N3        1.0  0.11140  0.15740  0.65828  1.0000 -0.1764195518
N   N4        1.0  0.34260  0.61140  0.40828  1.0000 -0.1764195518
N   N5        1.0  0.38860  0.65740  0.09172  1.0000 -0.1764195518
N   N6        1.0  0.61140  0.34260  0.59172  1.0000 -0.1764195518
N   N7        1.0  0.84260  0.88860  0.84172  1.0000 -0.1764195518
N   N8        1.0  0.15740  0.11140  0.34172  1.0000 -0.1764195518
N   N9        1.0  0.68810  0.69310  0.13179  1.0000 -0.2244977628
N   N10       1.0  0.80690  0.18810  0.88179  1.0000 -0.2244977628
N   N11       1.0  0.31190  0.30690  0.63179  1.0000 -0.2244977628
N   N12       1.0  0.19310  0.81190  0.38179  1.0000 -0.2244977628
N   N13       1.0  0.18810  0.80690  0.11821  1.0000 -0.2244977628
N   N14       1.0  0.81190  0.19310  0.61821  1.0000 -0.2244977628
N   N15       1.0  0.69310  0.68810  0.86821  1.0000 -0.2244977628
N   N16       1.0  0.30690  0.31190  0.36821  1.0000 -0.2244977628
N   N17       1.0  0.64270  0.63960  0.02663  1.0000 -0.2129635171
N   N18       1.0  0.86040  0.14270  0.77663  1.0000 -0.2129635171
N   N19       1.0  0.35730  0.36040  0.52663  1.0000 -0.2129635171
N   N20       1.0  0.13960  0.85730  0.27663  1.0000 -0.2129635171
N   N21       1.0  0.14270  0.86040  0.22337  1.0000 -0.2129635171
N   N22       1.0  0.85730  0.13960  0.72337  1.0000 -0.2129635171
N   N23       1.0  0.63960  0.64270  0.97337  1.0000 -0.2129635171
N   N24       1.0  0.36040  0.35730  0.47337  1.0000 -0.2129635171
N   N25       1.0  0.78039  0.78039  0.00000  1.0000 -0.3866721348
N   N26       1.0  0.71961  0.28039  0.75000  1.0000 -0.3866721348
N   N27       1.0  0.21961  0.21961  0.50000  1.0000 -0.3866721348
N   N28       1.0  0.28039  0.71961  0.25000  1.0000 -0.3866721348
O   O1        1.0  0.46280  0.40525  0.04012  1.0000 -0.5223234997
O   O2        1.0  0.09475  0.96280  0.79012  1.0000 -0.5223234997
O   O3        1.0  0.53720  0.59475  0.54012  1.0000 -0.5223234997
O   O4        1.0  0.90525  0.03720  0.29012  1.0000 -0.5223234997
O   O5        1.0  0.96280  0.09475  0.20988  1.0000 -0.5223234997
O   O6        1.0  0.03720  0.90525  0.70988  1.0000 -0.5223234997
O   O7        1.0  0.40525  0.46280  0.95988  1.0000 -0.5223234997
O   O8        1.0  0.59475  0.53720  0.45988  1.0000 -0.5223234997
O   O9        1.0  0.19930  0.09720  0.13779  1.0000 -0.5370658145
O   O10       1.0  0.40280  0.69930  0.88779  1.0000 -0.5370658145
O   O11       1.0  0.80070  0.90280  0.63779  1.0000 -0.5370658145
O   O12       1.0  0.59720  0.30070  0.38779  1.0000 -0.5370658145
O   O13       1.0  0.69930  0.40280  0.11221  1.0000 -0.5370658145
O   O14       1.0  0.30070  0.59720  0.61221  1.0000 -0.5370658145
O   O15       1.0  0.09720  0.19930  0.86221  1.0000 -0.5370658145
O   O16       1.0  0.90280  0.80070  0.36221  1.0000 -0.5370658145
O   O17       1.0  0.03360  0.03300  0.09791  1.0000 -0.5370658145
O   O18       1.0  0.46700  0.53360  0.84791  1.0000 -0.5370658145
O   O19       1.0  0.96640  0.96700  0.59791  1.0000 -0.5370658145
O   O20       1.0  0.53300  0.46640  0.34791  1.0000 -0.5370658145
O   O21       1.0  0.53360  0.46700  0.15209  1.0000 -0.5370658145
O   O22       1.0  0.46640  0.53300  0.65209  1.0000 -0.5370658145
O   O23       1.0  0.03300  0.03360  0.90209  1.0000 -0.5370658145
O   O24       1.0  0.96700  0.96640  0.40209  1.0000 -0.5370658145
