# DDEC6 charges by PACMAN v1.1 (https://github.com/mtap-research/PACMAN-charge/)
data_2013[Hf][bcu]3[ASR]1
_chemical_formula_sum              "Hf6 H24 C48 O24"
_cell_length_a       16.8416
_cell_length_b       16.8416
_cell_length_c       16.8416
_cell_angle_alpha    119.401
_cell_angle_beta     113.558
_cell_angle_gamma    96.2812

_symmetry_space_group_name_H-M    "P 1"
_symmetry_Int_Tables_number       1

loop_
  _symmetry_equiv_pos_as_xyz
  'x, y, z'

loop_
  _atom_site_type_symbol
  _atom_site_label
  _atom_site_symmetry_multiplicity
  _atom_site_fract_x
  _atom_site_fract_y
  _atom_site_fract_z
  _atom_site_occupancy
  _atom_site_charge
Hf  Hf1       1.0  0.10932  0.60932  0.50000  1.0000 1.4933034147
Hf  Hf2       1.0  0.89068  0.39068  0.50000  1.0000 1.4828995431
Hf  Hf3       1.0  0.09492  0.39648  0.49140  1.0000 1.5023056234
Hf  Hf4       1.0  0.90508  0.60352  0.50860  1.0000 1.4933034147
Hf  Hf5       1.0  0.90508  0.39648  0.30156  1.0000 1.5083390439
Hf  Hf6       1.0  0.09492  0.60352  0.69844  1.0000 1.5023056234
H   H1        1.0  0.37740  0.65060  0.50880  1.0000 0.1393566693
H   H2        1.0  0.14180  0.86860  0.49120  1.0000 0.1393566693
H   H3        1.0  0.62260  0.13140  0.27320  1.0000 0.1393566693
H   H4        1.0  0.85820  0.34940  0.72680  1.0000 0.1393566693
H   H5        1.0  0.62260  0.34940  0.49120  1.0000 0.1393566693
H   H6        1.0  0.85820  0.13140  0.50880  1.0000 0.1393566693
H   H7        1.0  0.37740  0.86860  0.72680  1.0000 0.1393566693
H   H8        1.0  0.14180  0.65060  0.27320  1.0000 0.1393566693
H   H9        1.0  0.35610  0.40000  0.48390  1.0000 0.121720989
H   H10       1.0  0.91610  0.87220  0.51610  1.0000 0.121720989
H   H11       1.0  0.64390  0.12780  0.04390  1.0000 0.121720989
H   H12       1.0  0.08390  0.60000  0.95610  1.0000 0.121720989
H   H13       1.0  0.64390  0.60000  0.51610  1.0000 0.121720989
H   H14       1.0  0.08390  0.12780  0.48390  1.0000 0.121720989
H   H15       1.0  0.35610  0.87220  0.95610  1.0000 0.121720989
H   H16       1.0  0.91610  0.40000  0.04390  1.0000 0.121720989
H   H17       1.0  0.48223  0.33533  0.48430  1.0000 0.121720989
H   H18       1.0  0.85103  0.99793  0.51570  1.0000 0.121720989
H   H19       1.0  0.51777  0.00207  0.85310  1.0000 0.121720989
H   H20       1.0  0.14897  0.66467  0.14690  1.0000 0.121720989
H   H21       1.0  0.51777  0.66467  0.51570  1.0000 0.121720989
H   H22       1.0  0.14897  0.00207  0.48430  1.0000 0.121720989
H   H23       1.0  0.48223  0.99793  0.14690  1.0000 0.121720989
H   H24       1.0  0.85103  0.33533  0.85310  1.0000 0.121720989
C   C1        1.0  0.26170  0.51660  0.49290  1.0000 0.57096855
C   C2        1.0  0.02370  0.76880  0.50710  1.0000 0.57096855
C   C3        1.0  0.73830  0.23120  0.25490  1.0000 0.57096855
C   C4        1.0  0.97630  0.48340  0.74510  1.0000 0.57096855
C   C5        1.0  0.73830  0.48340  0.50710  1.0000 0.57096855
C   C6        1.0  0.97630  0.23120  0.49290  1.0000 0.57096855
C   C7        1.0  0.26170  0.76880  0.74510  1.0000 0.57096855
C   C8        1.0  0.02370  0.51660  0.25490  1.0000 0.57096855
C   C9        1.0  0.35340  0.52440  0.49660  1.0000 -0.0244842411
C   C10       1.0  0.02780  0.85680  0.50340  1.0000 -0.0244842411
C   C11       1.0  0.64660  0.14320  0.17100  1.0000 -0.0244842411
C   C12       1.0  0.97220  0.47560  0.82900  1.0000 -0.0258542513
C   C13       1.0  0.64660  0.47560  0.50340  1.0000 -0.0258542513
C   C14       1.0  0.97220  0.14320  0.49660  1.0000 -0.0258542513
C   C15       1.0  0.35340  0.85680  0.82900  1.0000 -0.0258542513
C   C16       1.0  0.02780  0.52440  0.17100  1.0000 -0.0258542513
C   C17       1.0  0.40190  0.60290  0.50560  1.0000 -0.0907961398
C   C18       1.0  0.09730  0.89630  0.49440  1.0000 -0.0907961398
C   C19       1.0  0.59810  0.10370  0.20100  1.0000 -0.0907961398
C   C20       1.0  0.90270  0.39710  0.79900  1.0000 -0.0907961398
C   C21       1.0  0.59810  0.39710  0.49440  1.0000 -0.0907961398
C   C22       1.0  0.90270  0.10370  0.50560  1.0000 -0.0907961398
C   C23       1.0  0.40190  0.89630  0.79900  1.0000 -0.0907961398
C   C24       1.0  0.09730  0.60290  0.20100  1.0000 -0.0907961398
C   C25       1.0  0.38900  0.45310  0.49050  1.0000 -0.1479819734
C   C26       1.0  0.96260  0.89850  0.50950  1.0000 -0.1479819734
C   C27       1.0  0.61100  0.10150  0.06410  1.0000 -0.1479819734
C   C28       1.0  0.03740  0.54690  0.93590  1.0000 -0.1479819734
C   C29       1.0  0.61100  0.54690  0.50950  1.0000 -0.1479819734
C   C30       1.0  0.03740  0.10150  0.49050  1.0000 -0.1479819734
C   C31       1.0  0.38900  0.89850  0.93590  1.0000 -0.1479819734
C   C32       1.0  0.96260  0.45310  0.06410  1.0000 -0.1479819734
C   C33       1.0  0.47450  0.45950  0.49420  1.0000 0.0621401484
C   C34       1.0  0.96530  0.98030  0.50580  1.0000 0.0621401484
C   C35       1.0  0.52550  0.01970  0.98500  1.0000 0.0621401484
C   C36       1.0  0.03470  0.54050  0.01500  1.0000 0.0621401484
C   C37       1.0  0.52550  0.54050  0.50580  1.0000 0.0621401484
C   C38       1.0  0.03470  0.01970  0.49420  1.0000 0.0621401484
C   C39       1.0  0.47450  0.98030  0.01500  1.0000 0.0621401484
C   C40       1.0  0.96530  0.45950  0.98500  1.0000 0.0621401484
C   C41       1.0  0.51370  0.38850  0.49000  1.0000 -0.1479819734
C   C42       1.0  0.89850  0.02370  0.51000  1.0000 -0.155433026
C   C43       1.0  0.48630  0.97630  0.87480  1.0000 -0.155433026
C   C44       1.0  0.10150  0.61150  0.12520  1.0000 -0.155433026
C   C45       1.0  0.48630  0.61150  0.51000  1.0000 -0.155433026
C   C46       1.0  0.10150  0.97630  0.49000  1.0000 -0.155433026
C   C47       1.0  0.51370  0.02370  0.12520  1.0000 -0.155433026
C   C48       1.0  0.89850  0.38850  0.87480  1.0000 -0.155433026
O   O1        1.0  0.05370  0.45130  0.39760  1.0000 -0.7262039935
O   O2        1.0  0.05370  0.65610  0.60240  1.0000 -0.7262039935
O   O3        1.0  0.94630  0.34390  0.39760  1.0000 -0.7232707575
O   O4        1.0  0.94630  0.54870  0.60240  1.0000 -0.7232707575
O   O5        1.0  0.95790  0.55290  0.40500  1.0000 -0.7232707575
O   O6        1.0  0.14790  0.55290  0.59500  1.0000 -0.7262039935
O   O7        1.0  0.04210  0.44710  0.59500  1.0000 -0.7262039935
O   O8        1.0  0.85210  0.44710  0.40500  1.0000 -0.7262039935
O   O9        1.0  0.22270  0.44330  0.48680  1.0000 -0.5112480407
O   O10       1.0  0.95650  0.73590  0.51320  1.0000 -0.5112480407
O   O11       1.0  0.77730  0.26410  0.22060  1.0000 -0.5112480407
O   O12       1.0  0.04350  0.55670  0.77940  1.0000 -0.5112480407
O   O13       1.0  0.77730  0.55670  0.51320  1.0000 -0.5112480407
O   O14       1.0  0.04350  0.26410  0.48680  1.0000 -0.5112480407
O   O15       1.0  0.22270  0.73590  0.77940  1.0000 -0.5112480407
O   O16       1.0  0.95650  0.44330  0.22060  1.0000 -0.5112480407
O   O17       1.0  0.23260  0.58100  0.49440  1.0000 -0.4856287127
O   O18       1.0  0.08660  0.73820  0.50560  1.0000 -0.4856287127
O   O19       1.0  0.76740  0.26180  0.34840  1.0000 -0.4818554928
O   O20       1.0  0.91340  0.41900  0.65160  1.0000 -0.4818554928
O   O21       1.0  0.76740  0.41900  0.50560  1.0000 -0.4818554928
O   O22       1.0  0.91340  0.26180  0.49440  1.0000 -0.4818554928
O   O23       1.0  0.23260  0.73820  0.65160  1.0000 -0.4856287127
O   O24       1.0  0.08660  0.58100  0.34840  1.0000 -0.4856287127
