# DDEC6 charges by PACMAN v1.1 (https://github.com/mtap-research/PACMAN-charge/)
data_2013[Cu][nan]3[ASR]12
_chemical_formula_sum              "Cu16 H120 C216 N8 O64"
_cell_length_a       26.07
_cell_length_b       26.07
_cell_length_c       18.601
_cell_angle_alpha    90
_cell_angle_beta     90
_cell_angle_gamma    90

_symmetry_space_group_name_H-M    "P 1"
_symmetry_Int_Tables_number       1

loop_
  _symmetry_equiv_pos_as_xyz
  'x, y, z'

loop_
  _atom_site_type_symbol
  _atom_site_label
  _atom_site_symmetry_multiplicity
  _atom_site_fract_x
  _atom_site_fract_y
  _atom_site_fract_z
  _atom_site_occupancy
  _atom_site_charge
Cu  Cu1       1.0  0.78757  0.77874  0.78728  1.0000 0.8634429499
Cu  Cu2       1.0  0.70006  0.73122  0.28638  1.0000 0.7585363462
Cu  Cu3       1.0  0.69908  0.78108  0.85659  1.0000 0.8537236824
Cu  Cu4       1.0  0.78795  0.73241  0.35610  1.0000 0.7585363462
Cu  Cu5       1.0  0.21243  0.22126  0.28728  1.0000 0.8634429499
Cu  Cu6       1.0  0.29994  0.26878  0.78638  1.0000 0.7585363462
Cu  Cu7       1.0  0.30092  0.21892  0.35659  1.0000 0.8537236824
Cu  Cu8       1.0  0.21205  0.26759  0.85610  1.0000 0.7585363462
Cu  Cu9       1.0  0.22126  0.78757  0.03728  1.0000 0.8634429499
Cu  Cu10      1.0  0.26878  0.70006  0.53638  1.0000 0.7585363462
Cu  Cu11      1.0  0.21892  0.69908  0.10659  1.0000 0.8537236824
Cu  Cu12      1.0  0.26759  0.78795  0.60610  1.0000 0.7585363462
Cu  Cu13      1.0  0.77874  0.21243  0.53728  1.0000 0.8634429499
Cu  Cu14      1.0  0.73122  0.29994  0.03638  1.0000 0.7585363462
Cu  Cu15      1.0  0.78108  0.30092  0.60659  1.0000 0.8537236824
Cu  Cu16      1.0  0.73241  0.21205  0.10610  1.0000 0.7585363462
H   H1        1.0  0.72920  0.75420  0.57100  1.0000 0.1393268765
H   H2        1.0  0.59650  0.76860  0.67670  1.0000 0.1287225047
H   H3        1.0  0.59880  0.73590  0.46530  1.0000 0.1193952252
H   H4        1.0  0.52030  0.81030  0.63920  1.0000 0.1193952252
H   H5        1.0  0.43280  0.80260  0.64850  1.0000 0.1193952252
H   H6        1.0  0.43420  0.68990  0.50440  1.0000 0.1193952252
H   H7        1.0  0.52000  0.69510  0.50060  1.0000 0.1193952252
H   H8        1.0  0.81240  0.89730  0.30710  1.0000 0.1393268765
H   H9        1.0  0.81060  0.98280  0.27270  1.0000 0.1106338566
H   H10       1.0  0.66240  0.96840  0.21720  1.0000 0.1193952252
H   H11       1.0  0.66420  0.88280  0.25160  1.0000 0.1287225047
H   H12       1.0  0.73770  0.10950  0.92600  1.0000 0.1287225047
H   H13       1.0  0.81020  0.94060  0.75320  1.0000 0.1193952252
H   H14       1.0  0.80570  0.03190  0.74610  1.0000 0.1193952252
H   H15       1.0  0.69520  0.03180  0.89490  1.0000 0.1193952252
H   H16       1.0  0.69110  0.94520  0.88840  1.0000 0.1193952252
H   H17       1.0  0.76800  0.10710  0.71750  1.0000 0.1193952252
H   H18       1.0  0.75790  0.24000  0.82110  1.0000 0.1287225047
H   H19       1.0  0.80700  0.61300  0.82290  1.0000 0.1393268765
H   H20       1.0  0.80870  0.53020  0.86850  1.0000 0.1106338566
H   H21       1.0  0.66270  0.54590  0.93460  1.0000 0.1106338566
H   H22       1.0  0.66110  0.62870  0.88890  1.0000 0.1287225047
H   H23       1.0  0.66000  0.13420  0.18520  1.0000 0.1193952252
H   H24       1.0  0.66330  0.05220  0.23340  1.0000 0.1193952252
H   H25       1.0  0.81310  0.04340  0.18400  1.0000 0.1193952252
H   H26       1.0  0.80980  0.12550  0.13580  1.0000 0.1193952252
H   H27       1.0  0.65250  0.38950  0.99300  1.0000 0.1193952252
H   H28       1.0  0.65610  0.47070  0.94230  1.0000 0.1193952252
H   H29       1.0  0.80800  0.45480  0.91310  1.0000 0.1193952252
H   H30       1.0  0.80440  0.37350  0.96390  1.0000 0.1106338566
H   H31       1.0  0.27080  0.24580  0.07100  1.0000 0.1393268765
H   H32       1.0  0.40350  0.23140  0.17670  1.0000 0.1287225047
H   H33       1.0  0.40120  0.26410  0.96530  1.0000 0.1193952252
H   H34       1.0  0.47970  0.18970  0.13920  1.0000 0.1193952252
H   H35       1.0  0.56720  0.19740  0.14850  1.0000 0.1193952252
H   H36       1.0  0.56580  0.31010  0.00440  1.0000 0.1287225047
H   H37       1.0  0.48000  0.30490  0.00060  1.0000 0.1193952252
H   H38       1.0  0.18760  0.10270  0.80710  1.0000 0.1393268765
H   H39       1.0  0.18940  0.01720  0.77270  1.0000 0.1106338566
H   H40       1.0  0.33760  0.03160  0.71720  1.0000 0.1193952252
H   H41       1.0  0.33580  0.11720  0.75160  1.0000 0.1287225047
H   H42       1.0  0.26230  0.89050  0.42600  1.0000 0.1193952252
H   H43       1.0  0.18980  0.05940  0.25320  1.0000 0.1193952252
H   H44       1.0  0.19430  0.96810  0.24610  1.0000 0.1193952252
H   H45       1.0  0.30480  0.96820  0.39490  1.0000 0.1193952252
H   H46       1.0  0.30890  0.05480  0.38840  1.0000 0.1193952252
H   H47       1.0  0.23200  0.89290  0.21750  1.0000 0.1193952252
H   H48       1.0  0.24210  0.76000  0.32110  1.0000 0.1287225047
H   H49       1.0  0.19300  0.38700  0.32290  1.0000 0.1393268765
H   H50       1.0  0.19130  0.46980  0.36850  1.0000 0.1106338566
H   H51       1.0  0.33730  0.45410  0.43460  1.0000 0.1106338566
H   H52       1.0  0.33890  0.37130  0.38890  1.0000 0.1287225047
H   H53       1.0  0.34000  0.86580  0.68520  1.0000 0.1193952252
H   H54       1.0  0.33670  0.94780  0.73340  1.0000 0.1193952252
H   H55       1.0  0.18690  0.95660  0.68400  1.0000 0.1193952252
H   H56       1.0  0.19020  0.87450  0.63580  1.0000 0.1193952252
H   H57       1.0  0.34750  0.61050  0.49300  1.0000 0.1193952252
H   H58       1.0  0.34390  0.52930  0.44230  1.0000 0.1193952252
H   H59       1.0  0.19200  0.54520  0.41310  1.0000 0.1193952252
H   H60       1.0  0.19560  0.62650  0.46390  1.0000 0.1106338566
H   H61       1.0  0.24580  0.72920  0.82100  1.0000 0.1393268765
H   H62       1.0  0.23140  0.59650  0.92670  1.0000 0.1287225047
H   H63       1.0  0.26410  0.59880  0.71530  1.0000 0.1193952252
H   H64       1.0  0.18970  0.52030  0.88920  1.0000 0.1193952252
H   H65       1.0  0.19740  0.43280  0.89850  1.0000 0.1193952252
H   H66       1.0  0.31010  0.43420  0.75440  1.0000 0.1193952252
H   H67       1.0  0.30490  0.52000  0.75060  1.0000 0.1193952252
H   H68       1.0  0.10270  0.81240  0.55710  1.0000 0.1393268765
H   H69       1.0  0.01720  0.81060  0.52270  1.0000 0.1106338566
H   H70       1.0  0.03160  0.66240  0.46720  1.0000 0.1193952252
H   H71       1.0  0.11720  0.66420  0.50160  1.0000 0.1287225047
H   H72       1.0  0.89050  0.73770  0.17600  1.0000 0.1287225047
H   H73       1.0  0.05940  0.81020  0.00320  1.0000 0.1193952252
H   H74       1.0  0.96810  0.80570  0.99610  1.0000 0.1193952252
H   H75       1.0  0.96820  0.69520  0.14490  1.0000 0.1193952252
H   H76       1.0  0.05480  0.69110  0.13840  1.0000 0.1287225047
H   H77       1.0  0.89290  0.76800  0.96750  1.0000 0.1193952252
H   H78       1.0  0.76000  0.75790  0.07110  1.0000 0.1287225047
H   H79       1.0  0.38700  0.80700  0.07290  1.0000 0.1393268765
H   H80       1.0  0.46980  0.80870  0.11850  1.0000 0.1106338566
H   H81       1.0  0.45410  0.66270  0.18460  1.0000 0.1106338566
H   H82       1.0  0.37130  0.66110  0.13890  1.0000 0.1287225047
H   H83       1.0  0.86580  0.66000  0.43520  1.0000 0.1193952252
H   H84       1.0  0.94780  0.66330  0.48340  1.0000 0.1106338566
H   H85       1.0  0.95660  0.81310  0.43400  1.0000 0.1193952252
H   H86       1.0  0.87450  0.80980  0.38580  1.0000 0.1193952252
H   H87       1.0  0.61050  0.65250  0.24300  1.0000 0.1193952252
H   H88       1.0  0.52930  0.65610  0.19230  1.0000 0.1193952252
H   H89       1.0  0.54520  0.80800  0.16310  1.0000 0.1193952252
H   H90       1.0  0.62650  0.80440  0.21390  1.0000 0.1106338566
H   H91       1.0  0.75420  0.27080  0.32100  1.0000 0.1393268765
H   H92       1.0  0.76860  0.40350  0.42670  1.0000 0.1287225047
H   H93       1.0  0.73590  0.40120  0.21530  1.0000 0.1193952252
H   H94       1.0  0.81030  0.47970  0.38920  1.0000 0.1193952252
H   H95       1.0  0.80260  0.56720  0.39850  1.0000 0.1193952252
H   H96       1.0  0.68990  0.56580  0.25440  1.0000 0.1287225047
H   H97       1.0  0.69510  0.48000  0.25060  1.0000 0.1193952252
H   H98       1.0  0.89730  0.18760  0.05710  1.0000 0.1393268765
H   H99       1.0  0.98280  0.18940  0.02270  1.0000 0.1106338566
H   H100      1.0  0.96840  0.33760  0.96720  1.0000 0.1193952252
H   H101      1.0  0.88280  0.33580  0.00160  1.0000 0.1287225047
H   H102      1.0  0.10950  0.26230  0.67600  1.0000 0.1287225047
H   H103      1.0  0.94060  0.18980  0.50320  1.0000 0.1193952252
H   H104      1.0  0.03190  0.19430  0.49610  1.0000 0.1193952252
H   H105      1.0  0.03180  0.30480  0.64490  1.0000 0.1193952252
H   H106      1.0  0.94520  0.30890  0.63840  1.0000 0.1287225047
H   H107      1.0  0.10710  0.23200  0.46750  1.0000 0.1193952252
H   H108      1.0  0.24000  0.24210  0.57110  1.0000 0.1287225047
H   H109      1.0  0.61300  0.19300  0.57290  1.0000 0.1393268765
H   H110      1.0  0.53020  0.19130  0.61850  1.0000 0.1106338566
H   H111      1.0  0.54590  0.33730  0.68460  1.0000 0.1106338566
H   H112      1.0  0.62870  0.33890  0.63890  1.0000 0.1287225047
H   H113      1.0  0.13420  0.34000  0.93520  1.0000 0.1193952252
H   H114      1.0  0.05220  0.33670  0.98340  1.0000 0.1193952252
H   H115      1.0  0.04340  0.18690  0.93400  1.0000 0.1193952252
H   H116      1.0  0.12550  0.19020  0.88580  1.0000 0.1193952252
H   H117      1.0  0.38950  0.34750  0.74300  1.0000 0.1193952252
H   H118      1.0  0.47070  0.34390  0.69230  1.0000 0.1193952252
H   H119      1.0  0.45480  0.19200  0.66310  1.0000 0.1193952252
H   H120      1.0  0.37350  0.19560  0.71390  1.0000 0.1106338566
C   C1        1.0  0.36590  0.74580  0.57260  1.0000 0.5657070988
C   C2        1.0  0.69330  0.73760  0.44150  1.0000 0.5657070988
C   C3        1.0  0.66900  0.74550  0.51090  1.0000 -0.0311891018
C   C4        1.0  0.69360  0.75500  0.57090  1.0000 -0.0989984647
C   C5        1.0  0.66700  0.76640  0.63590  1.0000 -0.0078301306
C   C6        1.0  0.61470  0.76320  0.63440  1.0000 -0.1386881322
C   C7        1.0  0.58770  0.75200  0.57160  1.0000 0.0692729148
C   C8        1.0  0.61560  0.74310  0.50820  1.0000 -0.1506759021
C   C9        1.0  0.69900  0.77230  0.70380  1.0000 0.5619159231
C   C10       1.0  0.53030  0.74930  0.57220  1.0000 0.0796488278
C   C11       1.0  0.50300  0.78480  0.61390  1.0000 -0.1571796741
C   C12       1.0  0.45040  0.78150  0.61670  1.0000 -0.0900215973
C   C13       1.0  0.42190  0.74680  0.57260  1.0000 -0.0592552536
C   C14       1.0  0.45060  0.71460  0.53230  1.0000 -0.0900215973
C   C15       1.0  0.50250  0.71710  0.53140  1.0000 -0.1506759021
C   C16       1.0  0.74300  0.82430  0.31620  1.0000 0.5619159231
C   C17       1.0  0.73850  0.88160  0.28280  1.0000 -0.0165409258
C   C18       1.0  0.78240  0.91160  0.28910  1.0000 -0.11055181
C   C19       1.0  0.78130  0.96280  0.26840  1.0000 -0.1506759021
C   C20       1.0  0.73630  0.98410  0.24150  1.0000 0.0692729148
C   C21       1.0  0.69250  0.95410  0.23520  1.0000 -0.1506759021
C   C22       1.0  0.69350  0.90290  0.25580  1.0000 -0.1161518433
C   C23       1.0  0.73830  0.20600  0.95240  1.0000 0.5657070988
C   C24       1.0  0.74460  0.18000  0.88430  1.0000 -0.0479582279
C   C25       1.0  0.74370  0.12710  0.88320  1.0000 -0.1386881322
C   C26       1.0  0.74710  0.87920  0.82010  1.0000 0.5619159231
C   C27       1.0  0.74710  0.93360  0.81940  1.0000 -0.0900215973
C   C28       1.0  0.78520  0.95890  0.77820  1.0000 -0.0667473768
C   C29       1.0  0.78370  0.01430  0.77670  1.0000 -0.1668333524
C   C30       1.0  0.74980  0.04180  0.81990  1.0000 0.0796488278
C   C31       1.0  0.71670  0.01440  0.86330  1.0000 -0.1571796741
C   C32       1.0  0.71540  0.96210  0.86050  1.0000 -0.0667473768
C   C33       1.0  0.77450  0.20670  0.69050  1.0000 0.5657070988
C   C34       1.0  0.76630  0.17830  0.75700  1.0000 -0.0414920748
C   C35       1.0  0.76260  0.12560  0.75970  1.0000 -0.126442738
C   C36       1.0  0.75140  0.09900  0.82070  1.0000 0.0588004364
C   C37       1.0  0.75640  0.20440  0.82120  1.0000 -0.0989984647
C   C38       1.0  0.72540  0.68840  0.84370  1.0000 0.5060384347
C   C39       1.0  0.73390  0.62900  0.85140  1.0000 0.0135947064
C   C40       1.0  0.77810  0.59950  0.84530  1.0000 -0.0900215973
C   C41       1.0  0.77910  0.54990  0.87260  1.0000 -0.1571796741
C   C42       1.0  0.73590  0.52980  0.90610  1.0000 0.0796488278
C   C43       1.0  0.69170  0.55930  0.91220  1.0000 -0.1571796741
C   C44       1.0  0.69070  0.60890  0.88480  1.0000 -0.11055181
C   C45       1.0  0.69070  0.11600  0.18500  1.0000 0.0893834419
C   C46       1.0  0.69270  0.06690  0.21380  1.0000 -0.1935835519
C   C47       1.0  0.73850  0.03970  0.21340  1.0000 0.1106338566
C   C48       1.0  0.78240  0.06160  0.18420  1.0000 -0.1977205861
C   C49       1.0  0.78050  0.11080  0.15540  1.0000 0.0796488278
C   C50       1.0  0.68369  0.40259  0.97700  1.0000 0.0893834419
C   C51       1.0  0.68584  0.45125  0.94660  1.0000 -0.1977205861
C   C52       1.0  0.73240  0.47080  0.92270  1.0000 0.1106338566
C   C53       1.0  0.77680  0.44170  0.92910  1.0000 -0.1977205861
C   C54       1.0  0.77469  0.39300  0.95950  1.0000 0.0796488278
C   C55       1.0  0.63410  0.25420  0.07260  1.0000 0.5657070988
C   C56       1.0  0.30670  0.26240  0.94150  1.0000 0.5657070988
C   C57       1.0  0.33100  0.25450  0.01090  1.0000 -0.0311891018
C   C58       1.0  0.30640  0.24500  0.07090  1.0000 -0.0989984647
C   C59       1.0  0.33300  0.23360  0.13590  1.0000 -0.0078301306
C   C60       1.0  0.38530  0.23680  0.13440  1.0000 -0.1386881322
C   C61       1.0  0.41230  0.24800  0.07160  1.0000 0.0588004364
C   C62       1.0  0.38440  0.25690  0.00820  1.0000 -0.1506759021
C   C63       1.0  0.30100  0.22770  0.20380  1.0000 0.5619159231
C   C64       1.0  0.46970  0.25070  0.07220  1.0000 0.0796488278
C   C65       1.0  0.49700  0.21520  0.11390  1.0000 -0.1571796741
C   C66       1.0  0.54960  0.21850  0.11670  1.0000 -0.0900215973
C   C67       1.0  0.57810  0.25320  0.07260  1.0000 -0.0592552536
C   C68       1.0  0.54940  0.28540  0.03230  1.0000 -0.0900215973
C   C69       1.0  0.49750  0.28290  0.03140  1.0000 -0.1506759021
C   C70       1.0  0.25700  0.17570  0.81620  1.0000 0.5619159231
C   C71       1.0  0.26150  0.11840  0.78280  1.0000 -0.0165409258
C   C72       1.0  0.21760  0.08840  0.78910  1.0000 -0.11055181
C   C73       1.0  0.21870  0.03720  0.76840  1.0000 -0.1506759021
C   C74       1.0  0.26370  0.01590  0.74150  1.0000 0.0692729148
C   C75       1.0  0.30750  0.04590  0.73520  1.0000 -0.1506759021
C   C76       1.0  0.30650  0.09710  0.75580  1.0000 -0.1161518433
C   C77       1.0  0.26170  0.79400  0.45240  1.0000 0.5657070988
C   C78       1.0  0.25540  0.82000  0.38430  1.0000 -0.0479582279
C   C79       1.0  0.25630  0.87290  0.38320  1.0000 -0.1386881322
C   C80       1.0  0.25290  0.12080  0.32010  1.0000 0.5619159231
C   C81       1.0  0.25290  0.06640  0.31940  1.0000 -0.0900215973
C   C82       1.0  0.21480  0.04110  0.27820  1.0000 -0.0667473768
C   C83       1.0  0.21630  0.98570  0.27670  1.0000 -0.1668333524
C   C84       1.0  0.25020  0.95820  0.31990  1.0000 0.0796488278
C   C85       1.0  0.28330  0.98560  0.36330  1.0000 -0.1571796741
C   C86       1.0  0.28460  0.03790  0.36050  1.0000 -0.0667473768
C   C87       1.0  0.22550  0.79330  0.19050  1.0000 0.5657070988
C   C88       1.0  0.23370  0.82170  0.25700  1.0000 -0.0414920748
C   C89       1.0  0.23740  0.87440  0.25970  1.0000 -0.126442738
C   C90       1.0  0.24860  0.90100  0.32070  1.0000 0.0588004364
C   C91       1.0  0.24360  0.79560  0.32120  1.0000 -0.0989984647
C   C92       1.0  0.27460  0.31160  0.34370  1.0000 0.5060384347
C   C93       1.0  0.26610  0.37100  0.35140  1.0000 0.0135947064
C   C94       1.0  0.22190  0.40050  0.34530  1.0000 -0.0900215973
C   C95       1.0  0.22090  0.45010  0.37260  1.0000 -0.1571796741
C   C96       1.0  0.26410  0.47020  0.40610  1.0000 0.0796488278
C   C97       1.0  0.30830  0.44070  0.41220  1.0000 -0.1571796741
C   C98       1.0  0.30930  0.39110  0.38480  1.0000 -0.11055181
C   C99       1.0  0.30930  0.88400  0.68500  1.0000 0.0893834419
C   C100      1.0  0.30730  0.93310  0.71380  1.0000 -0.1935835519
C   C101      1.0  0.26150  0.96030  0.71340  1.0000 0.1106338566
C   C102      1.0  0.21760  0.93840  0.68420  1.0000 -0.1977205861
C   C103      1.0  0.21950  0.88920  0.65540  1.0000 0.0796488278
C   C104      1.0  0.31631  0.59741  0.47700  1.0000 0.0893834419
C   C105      1.0  0.31416  0.54875  0.44660  1.0000 -0.1977205861
C   C106      1.0  0.26760  0.52920  0.42270  1.0000 0.1106338566
C   C107      1.0  0.22320  0.55830  0.42910  1.0000 -0.1977205861
C   C108      1.0  0.22531  0.60700  0.45950  1.0000 0.0796488278
C   C109      1.0  0.25420  0.36590  0.82260  1.0000 0.5657070988
C   C110      1.0  0.26240  0.69330  0.69150  1.0000 0.5657070988
C   C111      1.0  0.25450  0.66900  0.76090  1.0000 -0.0311891018
C   C112      1.0  0.24500  0.69360  0.82090  1.0000 -0.0989984647
C   C113      1.0  0.23360  0.66700  0.88590  1.0000 -0.0078301306
C   C114      1.0  0.23680  0.61470  0.88440  1.0000 -0.1386881322
C   C115      1.0  0.24800  0.58770  0.82160  1.0000 0.0692729148
C   C116      1.0  0.25690  0.61560  0.75820  1.0000 -0.1506759021
C   C117      1.0  0.22770  0.69900  0.95380  1.0000 0.5619159231
C   C118      1.0  0.25070  0.53030  0.82220  1.0000 0.0796488278
C   C119      1.0  0.21520  0.50300  0.86390  1.0000 -0.1571796741
C   C120      1.0  0.21850  0.45040  0.86670  1.0000 -0.0900215973
C   C121      1.0  0.25320  0.42190  0.82260  1.0000 -0.0592552536
C   C122      1.0  0.28540  0.45060  0.78230  1.0000 -0.0900215973
C   C123      1.0  0.28290  0.50250  0.78140  1.0000 -0.1506759021
C   C124      1.0  0.17570  0.74300  0.56620  1.0000 0.5619159231
C   C125      1.0  0.11840  0.73850  0.53280  1.0000 -0.0165409258
C   C126      1.0  0.08840  0.78240  0.53910  1.0000 -0.11055181
C   C127      1.0  0.03720  0.78130  0.51840  1.0000 -0.1506759021
C   C128      1.0  0.01590  0.73630  0.49150  1.0000 0.0692729148
C   C129      1.0  0.04590  0.69250  0.48520  1.0000 -0.1506759021
C   C130      1.0  0.09710  0.69350  0.50580  1.0000 -0.1161518433
C   C131      1.0  0.79400  0.73830  0.20240  1.0000 0.5619159231
C   C132      1.0  0.82000  0.74460  0.13430  1.0000 -0.0479582279
C   C133      1.0  0.87290  0.74370  0.13320  1.0000 -0.1386881322
C   C134      1.0  0.12080  0.74710  0.07010  1.0000 0.5619159231
C   C135      1.0  0.06640  0.74710  0.06940  1.0000 -0.0900215973
C   C136      1.0  0.04110  0.78520  0.02820  1.0000 -0.0667473768
C   C137      1.0  0.98570  0.78370  0.02670  1.0000 -0.1668333524
C   C138      1.0  0.95820  0.74980  0.06990  1.0000 0.0796488278
C   C139      1.0  0.98560  0.71670  0.11330  1.0000 -0.1506759021
C   C140      1.0  0.03790  0.71540  0.11050  1.0000 -0.0667473768
C   C141      1.0  0.79330  0.77450  0.94050  1.0000 0.5657070988
C   C142      1.0  0.82170  0.76630  0.00700  1.0000 -0.0414920748
C   C143      1.0  0.87440  0.76260  0.00970  1.0000 -0.126442738
C   C144      1.0  0.90100  0.75140  0.07070  1.0000 0.0588004364
C   C145      1.0  0.79560  0.75640  0.07120  1.0000 -0.0989984647
C   C146      1.0  0.31160  0.72540  0.09370  1.0000 0.5041928961
C   C147      1.0  0.37100  0.73390  0.10140  1.0000 0.0135947064
C   C148      1.0  0.40050  0.77810  0.09530  1.0000 -0.0900215973
C   C149      1.0  0.45010  0.77910  0.12260  1.0000 -0.1571796741
C   C150      1.0  0.47020  0.73590  0.15610  1.0000 0.0692729148
C   C151      1.0  0.44070  0.69170  0.16220  1.0000 -0.1571796741
C   C152      1.0  0.39110  0.69070  0.13480  1.0000 -0.11055181
C   C153      1.0  0.88400  0.69070  0.43500  1.0000 0.0893834419
C   C154      1.0  0.93310  0.69270  0.46380  1.0000 -0.1935835519
C   C155      1.0  0.96030  0.73850  0.46340  1.0000 0.1106338566
C   C156      1.0  0.93840  0.78240  0.43420  1.0000 -0.1977205861
C   C157      1.0  0.88920  0.78050  0.40540  1.0000 0.0796488278
C   C158      1.0  0.59741  0.68369  0.22700  1.0000 0.0893834419
C   C159      1.0  0.54875  0.68584  0.19660  1.0000 -0.1977205861
C   C160      1.0  0.52920  0.73240  0.17270  1.0000 0.1106338566
C   C161      1.0  0.55830  0.77680  0.17910  1.0000 -0.1977205861
C   C162      1.0  0.60700  0.77469  0.20950  1.0000 0.0796488278
C   C163      1.0  0.74580  0.63410  0.32260  1.0000 0.5657070988
C   C164      1.0  0.73760  0.30670  0.19150  1.0000 0.5657070988
C   C165      1.0  0.74550  0.33100  0.26090  1.0000 -0.0311891018
C   C166      1.0  0.75500  0.30640  0.32090  1.0000 -0.0989984647
C   C167      1.0  0.76640  0.33300  0.38590  1.0000 -0.0078301306
C   C168      1.0  0.76320  0.38530  0.38440  1.0000 -0.1386881322
C   C169      1.0  0.75200  0.41230  0.32160  1.0000 0.0588004364
C   C170      1.0  0.74310  0.38440  0.25820  1.0000 -0.1506759021
C   C171      1.0  0.77230  0.30100  0.45380  1.0000 0.5619159231
C   C172      1.0  0.74930  0.46970  0.32220  1.0000 0.0796488278
C   C173      1.0  0.78480  0.49700  0.36390  1.0000 -0.1571796741
C   C174      1.0  0.78150  0.54960  0.36670  1.0000 -0.0900215973
C   C175      1.0  0.74680  0.57810  0.32260  1.0000 -0.0592552536
C   C176      1.0  0.71460  0.54940  0.28230  1.0000 -0.0900215973
C   C177      1.0  0.71710  0.49750  0.28140  1.0000 -0.1506759021
C   C178      1.0  0.82430  0.25700  0.06620  1.0000 0.5619159231
C   C179      1.0  0.88160  0.26150  0.03280  1.0000 -0.0165409258
C   C180      1.0  0.91160  0.21760  0.03910  1.0000 -0.11055181
C   C181      1.0  0.96280  0.21870  0.01840  1.0000 -0.1506759021
C   C182      1.0  0.98410  0.26370  0.99150  1.0000 0.0692729148
C   C183      1.0  0.95410  0.30750  0.98520  1.0000 -0.1506759021
C   C184      1.0  0.90290  0.30650  0.00580  1.0000 -0.1161518433
C   C185      1.0  0.20600  0.26170  0.70240  1.0000 0.5657070988
C   C186      1.0  0.18000  0.25540  0.63430  1.0000 -0.0479582279
C   C187      1.0  0.12710  0.25630  0.63320  1.0000 -0.1386881322
C   C188      1.0  0.87920  0.25290  0.57010  1.0000 0.5619159231
C   C189      1.0  0.93360  0.25290  0.56940  1.0000 -0.0900215973
C   C190      1.0  0.95890  0.21480  0.52820  1.0000 -0.0667473768
C   C191      1.0  0.01430  0.21630  0.52670  1.0000 -0.1668333524
C   C192      1.0  0.04180  0.25020  0.56990  1.0000 0.0796488278
C   C193      1.0  0.01440  0.28330  0.61330  1.0000 -0.1571796741
C   C194      1.0  0.96210  0.28460  0.61050  1.0000 -0.0667473768
C   C195      1.0  0.20670  0.22550  0.44050  1.0000 0.5657070988
C   C196      1.0  0.17830  0.23370  0.50700  1.0000 -0.0414920748
C   C197      1.0  0.12560  0.23740  0.50970  1.0000 -0.126442738
C   C198      1.0  0.09900  0.24860  0.57070  1.0000 0.0588004364
C   C199      1.0  0.20440  0.24360  0.57120  1.0000 -0.0989984647
C   C200      1.0  0.68840  0.27460  0.59370  1.0000 0.5060384347
C   C201      1.0  0.62900  0.26610  0.60140  1.0000 0.0135947064
C   C202      1.0  0.59950  0.22190  0.59530  1.0000 -0.0900215973
C   C203      1.0  0.54990  0.22090  0.62260  1.0000 -0.1571796741
C   C204      1.0  0.52980  0.26410  0.65610  1.0000 0.0692729148
C   C205      1.0  0.55930  0.30830  0.66220  1.0000 -0.1571796741
C   C206      1.0  0.60890  0.30930  0.63480  1.0000 -0.11055181
C   C207      1.0  0.11600  0.30930  0.93500  1.0000 0.0893834419
C   C208      1.0  0.06690  0.30730  0.96380  1.0000 -0.1935835519
C   C209      1.0  0.03970  0.26150  0.96340  1.0000 0.1106338566
C   C210      1.0  0.06160  0.21760  0.93420  1.0000 -0.1977205861
C   C211      1.0  0.11080  0.21950  0.90540  1.0000 0.0796488278
C   C212      1.0  0.40259  0.31631  0.72700  1.0000 0.0893834419
C   C213      1.0  0.45125  0.31416  0.69660  1.0000 -0.1977205861
C   C214      1.0  0.47080  0.26760  0.67270  1.0000 0.1106338566
C   C215      1.0  0.44170  0.22320  0.67910  1.0000 -0.1977205861
C   C216      1.0  0.39300  0.22531  0.70950  1.0000 0.0796488278
N   N1        1.0  0.73460  0.13800  0.15580  1.0000 -0.2668445335
N   N2        1.0  0.72810  0.37347  0.98350  1.0000 -0.2628905849
N   N3        1.0  0.26540  0.86200  0.65580  1.0000 -0.2668445335
N   N4        1.0  0.27190  0.62653  0.48350  1.0000 -0.2628905849
N   N5        1.0  0.86200  0.73460  0.40580  1.0000 -0.2668445335
N   N6        1.0  0.62653  0.72810  0.23350  1.0000 -0.2628905849
N   N7        1.0  0.13800  0.26540  0.90580  1.0000 -0.2668445335
N   N8        1.0  0.37347  0.27190  0.73350  1.0000 -0.2628905849
O   O1        1.0  0.74339  0.77200  0.70370  1.0000 -0.4202588276
O   O2        1.0  0.73651  0.25490  0.95010  1.0000 -0.5113136173
O   O3        1.0  0.67224  0.78292  0.75840  1.0000 -0.5041398183
O   O4        1.0  0.72714  0.18163  0.00770  1.0000 -0.487699505
O   O5        1.0  0.78374  0.18346  0.63540  1.0000 -0.4631903992
O   O6        1.0  0.77510  0.25834  0.69260  1.0000 -0.5757766292
O   O7        1.0  0.77840  0.85447  0.78210  1.0000 -0.5113136173
O   O8        1.0  0.71450  0.85373  0.85570  1.0000 -0.5113136173
O   O9        1.0  0.74217  0.73897  0.44260  1.0000 -0.5113136173
O   O10       1.0  0.67031  0.72729  0.38520  1.0000 -0.487699505
O   O11       1.0  0.78240  0.70330  0.80290  1.0000 -0.6992117987
O   O12       1.0  0.69530  0.70830  0.84940  1.0000 -0.3520832286
O   O13       1.0  0.34371  0.70946  0.53630  1.0000 -0.5231545792
O   O14       1.0  0.34104  0.78199  0.60940  1.0000 -0.5417721794
O   O15       1.0  0.78230  0.80630  0.33440  1.0000 -0.4487015755
O   O16       1.0  0.70270  0.80800  0.29260  1.0000 -0.44386632
O   O17       1.0  0.25661  0.22800  0.20370  1.0000 -0.4202588276
O   O18       1.0  0.26349  0.74510  0.45010  1.0000 -0.5113136173
O   O19       1.0  0.32776  0.21708  0.25840  1.0000 -0.5041398183
O   O20       1.0  0.27286  0.81837  0.50770  1.0000 -0.487699505
O   O21       1.0  0.21626  0.81654  0.13540  1.0000 -0.4660919533
O   O22       1.0  0.22490  0.74166  0.19260  1.0000 -0.5757766292
O   O23       1.0  0.22160  0.14553  0.28210  1.0000 -0.5113136173
O   O24       1.0  0.28550  0.14627  0.35570  1.0000 -0.5113136173
O   O25       1.0  0.25783  0.26103  0.94260  1.0000 -0.5113136173
O   O26       1.0  0.32969  0.27271  0.88520  1.0000 -0.487699505
O   O27       1.0  0.21760  0.29670  0.30290  1.0000 -0.6992117987
O   O28       1.0  0.30470  0.29170  0.34940  1.0000 -0.3520832286
O   O29       1.0  0.65629  0.29054  0.03630  1.0000 -0.5231545792
O   O30       1.0  0.65896  0.21801  0.10940  1.0000 -0.5417721794
O   O31       1.0  0.21770  0.19370  0.83440  1.0000 -0.4487015755
O   O32       1.0  0.29730  0.19200  0.79260  1.0000 -0.44386632
O   O33       1.0  0.22800  0.74339  0.95370  1.0000 -0.4202588276
O   O34       1.0  0.74510  0.73651  0.20010  1.0000 -0.5113136173
O   O35       1.0  0.21708  0.67224  0.00840  1.0000 -0.5041398183
O   O36       1.0  0.81837  0.72714  0.25770  1.0000 -0.487699505
O   O37       1.0  0.81654  0.78374  0.88540  1.0000 -0.4660919533
O   O38       1.0  0.74166  0.77510  0.94260  1.0000 -0.5757766292
O   O39       1.0  0.14553  0.77840  0.03210  1.0000 -0.5113136173
O   O40       1.0  0.14627  0.71450  0.10570  1.0000 -0.5113136173
O   O41       1.0  0.26103  0.74217  0.69260  1.0000 -0.5113136173
O   O42       1.0  0.27271  0.67031  0.63520  1.0000 -0.487699505
O   O43       1.0  0.29670  0.78240  0.05290  1.0000 -0.6992117987
O   O44       1.0  0.29170  0.69530  0.09940  1.0000 -0.3520832286
O   O45       1.0  0.29054  0.34371  0.78630  1.0000 -0.5231545792
O   O46       1.0  0.21801  0.34104  0.85940  1.0000 -0.5417721794
O   O47       1.0  0.19370  0.78230  0.58440  1.0000 -0.4487015755
O   O48       1.0  0.19200  0.70270  0.54260  1.0000 -0.44386632
O   O49       1.0  0.77200  0.25661  0.45370  1.0000 -0.4202588276
O   O50       1.0  0.25490  0.26349  0.70010  1.0000 -0.5113136173
O   O51       1.0  0.78292  0.32776  0.50840  1.0000 -0.5041398183
O   O52       1.0  0.18163  0.27286  0.75770  1.0000 -0.487699505
O   O53       1.0  0.18346  0.21626  0.38540  1.0000 -0.4631903992
O   O54       1.0  0.25834  0.22490  0.44260  1.0000 -0.5757766292
O   O55       1.0  0.85447  0.22160  0.53210  1.0000 -0.5113136173
O   O56       1.0  0.85373  0.28550  0.60570  1.0000 -0.5113136173
O   O57       1.0  0.73897  0.25783  0.19260  1.0000 -0.5113136173
O   O58       1.0  0.72729  0.32969  0.13520  1.0000 -0.487699505
O   O59       1.0  0.70330  0.21760  0.55290  1.0000 -0.6992117987
O   O60       1.0  0.70830  0.30470  0.59940  1.0000 -0.3520832286
O   O61       1.0  0.70946  0.65629  0.28630  1.0000 -0.5231545792
O   O62       1.0  0.78199  0.65896  0.35940  1.0000 -0.5417721794
O   O63       1.0  0.80630  0.21770  0.08440  1.0000 -0.4487015755
O   O64       1.0  0.80800  0.29730  0.04260  1.0000 -0.44386632
