# DDEC6 charges by PACMAN v1.1 (https://github.com/mtap-research/PACMAN-charge/)
data_2013[Tb][umc]3[ASR]1
_chemical_formula_sum              "Tb4 H36 C84 O24"
_cell_length_a       15.0005
_cell_length_b       15.0005
_cell_length_c       25.1036
_cell_angle_alpha    68.0978
_cell_angle_beta     111.902
_cell_angle_gamma    111.146

_symmetry_space_group_name_H-M    "P 1"
_symmetry_Int_Tables_number       1

loop_
  _symmetry_equiv_pos_as_xyz
  'x, y, z'

loop_
  _atom_site_type_symbol
  _atom_site_label
  _atom_site_symmetry_multiplicity
  _atom_site_fract_x
  _atom_site_fract_y
  _atom_site_fract_z
  _atom_site_occupancy
  _atom_site_charge
Tb  Tb1       1.0  0.85411  0.34339  0.96557  1.0000 2.0359511286
Tb  Tb2       1.0  0.34339  0.85411  0.53443  1.0000 2.0359511286
Tb  Tb3       1.0  0.14589  0.65661  0.03443  1.0000 2.0359511286
Tb  Tb4       1.0  0.65661  0.14589  0.46557  1.0000 2.0359511286
H   H1        1.0  0.76020  0.54820  0.76010  1.0000 0.1118784108
H   H2        1.0  0.54820  0.76020  0.73990  1.0000 0.1118784108
H   H3        1.0  0.23980  0.45180  0.23990  1.0000 0.1118784108
H   H4        1.0  0.45180  0.23980  0.26010  1.0000 0.1118784108
H   H5        1.0  0.04020  0.57500  0.71120  1.0000 0.1118784108
H   H6        1.0  0.57500  0.04020  0.78880  1.0000 0.1118784108
H   H7        1.0  0.95980  0.42500  0.28880  1.0000 0.1118784108
H   H8        1.0  0.42500  0.95980  0.21120  1.0000 0.1118784108
H   H9        1.0  0.00570  0.46310  0.79730  1.0000 0.1296604187
H   H10       1.0  0.46310  0.00570  0.70270  1.0000 0.1296604187
H   H11       1.0  0.99430  0.53690  0.20270  1.0000 0.1296604187
H   H12       1.0  0.53690  0.99430  0.29730  1.0000 0.1296604187
H   H13       1.0  0.07710  0.68290  0.63970  1.0000 0.1206803828
H   H14       1.0  0.68290  0.07710  0.86030  1.0000 0.1206803828
H   H15       1.0  0.92290  0.31710  0.36030  1.0000 0.1206803828
H   H16       1.0  0.31710  0.92290  0.13970  1.0000 0.1206803828
H   H17       1.0  0.88470  0.90710  0.52580  1.0000 0.1118784108
H   H18       1.0  0.90710  0.88470  0.97420  1.0000 0.1118784108
H   H19       1.0  0.11530  0.09290  0.47420  1.0000 0.1118784108
H   H20       1.0  0.09290  0.11530  0.02580  1.0000 0.1118784108
H   H21       1.0  0.02390  0.92310  0.50240  1.0000 0.1118784108
H   H22       1.0  0.92310  0.02390  0.99760  1.0000 0.1118784108
H   H23       1.0  0.97610  0.07690  0.49760  1.0000 0.1118784108
H   H24       1.0  0.07690  0.97610  0.00240  1.0000 0.1118784108
H   H25       1.0  0.76150  0.89410  0.54510  1.0000 0.1206803828
H   H26       1.0  0.89410  0.76150  0.95490  1.0000 0.1206803828
H   H27       1.0  0.23850  0.10590  0.45490  1.0000 0.1206803828
H   H28       1.0  0.10590  0.23850  0.04510  1.0000 0.1206803828
H   H29       1.0  0.66750  0.63770  0.70450  1.0000 0.1118784108
H   H30       1.0  0.63770  0.66750  0.79550  1.0000 0.1118784108
H   H31       1.0  0.33250  0.36230  0.29550  1.0000 0.1118784108
H   H32       1.0  0.36230  0.33250  0.20450  1.0000 0.1118784108
H   H33       1.0  0.56680  0.74280  0.64470  1.0000 0.1206803828
H   H34       1.0  0.74280  0.56680  0.85530  1.0000 0.1206803828
H   H35       1.0  0.43320  0.25720  0.35530  1.0000 0.1206803828
H   H36       1.0  0.25720  0.43320  0.14470  1.0000 0.1206803828
C   C1        1.0  0.85970  0.42750  0.84530  1.0000 0.56981062
C   C2        1.0  0.42750  0.85970  0.65470  1.0000 0.56981062
C   C3        1.0  0.14030  0.57250  0.15470  1.0000 0.56981062
C   C4        1.0  0.57250  0.14030  0.34530  1.0000 0.56981062
C   C5        1.0  0.88180  0.49740  0.78850  1.0000 -0.0077276306
C   C6        1.0  0.49740  0.88180  0.71150  1.0000 -0.0077276306
C   C7        1.0  0.11820  0.50260  0.21150  1.0000 -0.0077276306
C   C8        1.0  0.50260  0.11820  0.28850  1.0000 -0.0077276306
C   C9        1.0  0.81890  0.55630  0.75060  1.0000 -0.1491086676
C   C10       1.0  0.55630  0.81890  0.74940  1.0000 -0.1491086676
C   C11       1.0  0.18110  0.44370  0.24940  1.0000 -0.1491086676
C   C12       1.0  0.44370  0.18110  0.25060  1.0000 -0.1491086676
C   C13       1.0  0.83840  0.62880  0.69800  1.0000 0.0212106687
C   C14       1.0  0.62880  0.83840  0.80200  1.0000 0.0212106687
C   C15       1.0  0.16160  0.37120  0.30200  1.0000 0.0212106687
C   C16       1.0  0.37120  0.16160  0.19800  1.0000 0.0212106687
C   C17       1.0  0.92660  0.64000  0.68400  1.0000 0.0289214029
C   C18       1.0  0.64000  0.92660  0.81600  1.0000 0.0289214029
C   C19       1.0  0.07340  0.36000  0.31600  1.0000 0.0289214029
C   C20       1.0  0.36000  0.07340  0.18400  1.0000 0.0289214029
C   C21       1.0  0.98460  0.57320  0.72150  1.0000 -0.1491086676
C   C22       1.0  0.57320  0.98460  0.77850  1.0000 -0.1491086676
C   C23       1.0  0.01540  0.42680  0.27850  1.0000 -0.1491086676
C   C24       1.0  0.42680  0.01540  0.22150  1.0000 -0.1491086676
C   C25       1.0  0.96320  0.50560  0.77240  1.0000 -0.0951410994
C   C26       1.0  0.50560  0.96320  0.72760  1.0000 -0.0951410994
C   C27       1.0  0.03680  0.49440  0.22760  1.0000 -0.0951410994
C   C28       1.0  0.49440  0.03680  0.27240  1.0000 -0.0951410994
C   C29       1.0  0.16250  0.82350  0.55670  1.0000 0.5586394728
C   C30       1.0  0.82350  0.16250  0.94330  1.0000 0.5586394728
C   C31       1.0  0.83750  0.17650  0.44330  1.0000 0.5586394728
C   C32       1.0  0.17650  0.83750  0.05670  1.0000 0.5586394728
C   C33       1.0  0.06580  0.80400  0.57070  1.0000 0.0064786192
C   C34       1.0  0.80400  0.06580  0.92930  1.0000 0.0064786192
C   C35       1.0  0.93420  0.19600  0.42930  1.0000 0.0064786192
C   C36       1.0  0.19600  0.93420  0.07070  1.0000 0.0064786192
C   C37       1.0  0.03780  0.72920  0.61690  1.0000 -0.1491086676
C   C38       1.0  0.72920  0.03780  0.88310  1.0000 -0.1491086676
C   C39       1.0  0.96220  0.27080  0.38310  1.0000 -0.1491086676
C   C40       1.0  0.27080  0.96220  0.11690  1.0000 -0.1491086676
C   C41       1.0  0.95300  0.71780  0.63220  1.0000 0.0212106687
C   C42       1.0  0.71780  0.95300  0.86780  1.0000 0.0212106687
C   C43       1.0  0.04700  0.28220  0.36780  1.0000 0.0212106687
C   C44       1.0  0.28220  0.04700  0.13220  1.0000 0.0212106687
C   C45       1.0  0.89290  0.78470  0.59750  1.0000 0.0289214029
C   C46       1.0  0.78470  0.89290  0.90250  1.0000 0.0289214029
C   C47       1.0  0.10710  0.21530  0.40250  1.0000 0.0289214029
C   C48       1.0  0.21530  0.10710  0.09750  1.0000 0.0212106687
C   C49       1.0  0.92370  0.86090  0.54950  1.0000 -0.1491086676
C   C50       1.0  0.86090  0.92370  0.95050  1.0000 -0.1491086676
C   C51       1.0  0.07630  0.13910  0.45050  1.0000 -0.1491086676
C   C52       1.0  0.13910  0.07630  0.04950  1.0000 -0.1491086676
C   C53       1.0  0.00620  0.87120  0.53560  1.0000 -0.1119078291
C   C54       1.0  0.87120  0.00620  0.96440  1.0000 -0.1119078291
C   C55       1.0  0.99380  0.12880  0.46440  1.0000 -0.1119078291
C   C56       1.0  0.12880  0.99380  0.03560  1.0000 -0.1119078291
C   C57       1.0  0.59650  0.90650  0.55360  1.0000 0.6439618528
C   C58       1.0  0.90650  0.59650  0.94640  1.0000 0.6439618528
C   C59       1.0  0.40350  0.09350  0.44640  1.0000 0.6439618528
C   C60       1.0  0.09350  0.40350  0.05360  1.0000 0.6439618528
C   C61       1.0  0.65850  0.83230  0.59080  1.0000 -0.0186703406
C   C62       1.0  0.83230  0.65850  0.90920  1.0000 -0.0186703406
C   C63       1.0  0.34150  0.16770  0.40920  1.0000 -0.0186703406
C   C64       1.0  0.16770  0.34150  0.09080  1.0000 -0.0186703406
C   C65       1.0  0.74340  0.84160  0.57800  1.0000 -0.1491086676
C   C66       1.0  0.84160  0.74340  0.92200  1.0000 -0.1491086676
C   C67       1.0  0.25660  0.15840  0.42200  1.0000 -0.1491086676
C   C68       1.0  0.15840  0.25660  0.07800  1.0000 -0.1491086676
C   C69       1.0  0.80470  0.77510  0.61250  1.0000 0.0212106687
C   C70       1.0  0.77510  0.80470  0.88750  1.0000 0.0212106687
C   C71       1.0  0.19530  0.22490  0.38750  1.0000 0.0212106687
C   C72       1.0  0.22490  0.19530  0.11250  1.0000 0.0212106687
C   C73       1.0  0.77570  0.69690  0.66090  1.0000 0.0289214029
C   C74       1.0  0.69690  0.77570  0.83910  1.0000 0.0289214029
C   C75       1.0  0.22430  0.30310  0.33910  1.0000 0.0289214029
C   C76       1.0  0.30310  0.22430  0.16090  1.0000 0.0289214029
C   C77       1.0  0.68690  0.68930  0.67170  1.0000 -0.1569689527
C   C78       1.0  0.68930  0.68690  0.82830  1.0000 -0.1569689527
C   C79       1.0  0.31310  0.31070  0.32830  1.0000 -0.1569689527
C   C80       1.0  0.31070  0.31310  0.17170  1.0000 -0.1569689527
C   C81       1.0  0.62780  0.75260  0.63730  1.0000 -0.1119078291
C   C82       1.0  0.75260  0.62780  0.86270  1.0000 -0.1119078291
C   C83       1.0  0.37220  0.24740  0.36270  1.0000 -0.1119078291
C   C84       1.0  0.24740  0.37220  0.13730  1.0000 -0.1119078291
O   O1        1.0  0.77902  0.40938  0.85461  1.0000 -0.5992652192
O   O2        1.0  0.40938  0.77902  0.64539  1.0000 -0.5992652192
O   O3        1.0  0.22098  0.59062  0.14539  1.0000 -0.5992652192
O   O4        1.0  0.59062  0.22098  0.35461  1.0000 -0.5992652192
O   O5        1.0  0.93034  0.39246  0.88560  1.0000 -0.6179445475
O   O6        1.0  0.39246  0.93034  0.61440  1.0000 -0.6179445475
O   O7        1.0  0.06966  0.60754  0.11440  1.0000 -0.6179445475
O   O8        1.0  0.60754  0.06966  0.38560  1.0000 -0.6179445475
O   O9        1.0  0.20212  0.74968  0.57650  1.0000 -0.6696686834
O   O10       1.0  0.74968  0.20212  0.92350  1.0000 -0.6696686834
O   O11       1.0  0.79788  0.25032  0.42350  1.0000 -0.6696686834
O   O12       1.0  0.25032  0.79788  0.07650  1.0000 -0.6696686834
O   O13       1.0  0.19785  0.90295  0.52520  1.0000 -0.5992652192
O   O14       1.0  0.90295  0.19785  0.97480  1.0000 -0.5992652192
O   O15       1.0  0.80215  0.09705  0.47480  1.0000 -0.5992652192
O   O16       1.0  0.09705  0.80215  0.02520  1.0000 -0.5992652192
O   O17       1.0  0.63179  0.97761  0.51530  1.0000 -0.6470221966
O   O18       1.0  0.97761  0.63179  0.98470  1.0000 -0.6470221966
O   O19       1.0  0.36821  0.02239  0.48470  1.0000 -0.6470221966
O   O20       1.0  0.02239  0.36821  0.01530  1.0000 -0.6470221966
O   O21       1.0  0.52030  0.89690  0.56390  1.0000 -0.6333709597
O   O22       1.0  0.89690  0.52030  0.93610  1.0000 -0.6333709597
O   O23       1.0  0.47970  0.10310  0.43610  1.0000 -0.6333709597
O   O24       1.0  0.10310  0.47970  0.06390  1.0000 -0.6333709597
