# DDEC6 charges by PACMAN v1.1 (https://github.com/mtap-research/PACMAN-charge/)
data_2013[Ce][qtz]3[ASR]1
_chemical_formula_sum              "Ce3 H156 C132 N18 O42"
_cell_length_a       15.9742
_cell_length_b       15.9742
_cell_length_c       19.4383
_cell_angle_alpha    90
_cell_angle_beta     90
_cell_angle_gamma    120

_symmetry_space_group_name_H-M    "P 1"
_symmetry_Int_Tables_number       1

loop_
  _symmetry_equiv_pos_as_xyz
  'x, y, z'

loop_
  _atom_site_type_symbol
  _atom_site_label
  _atom_site_symmetry_multiplicity
  _atom_site_fract_x
  _atom_site_fract_y
  _atom_site_fract_z
  _atom_site_occupancy
  _atom_site_charge
Ce  Ce1       1.0  0.00000  0.50000  0.33333  1.0000 1.7569656876
Ce  Ce2       1.0  0.50000  0.00000  0.00000  1.0000 1.7544860748
Ce  Ce3       1.0  0.50000  0.50000  0.66667  1.0000 1.7569656876
H   H1        1.0  0.13120  0.26210  0.20710  1.0000 0.1206700964
H   H2        1.0  0.86910  0.13120  0.87377  1.0000 0.1206700964
H   H3        1.0  0.73790  0.86910  0.54043  1.0000 0.1206700964
H   H4        1.0  0.86880  0.73790  0.20710  1.0000 0.1206700964
H   H5        1.0  0.13090  0.86880  0.87377  1.0000 0.1206700964
H   H6        1.0  0.26210  0.13090  0.54043  1.0000 0.1206700964
H   H7        1.0  0.73790  0.86880  0.12623  1.0000 0.1206700964
H   H8        1.0  0.86910  0.73790  0.79290  1.0000 0.1206700964
H   H9        1.0  0.13120  0.86910  0.45957  1.0000 0.1206700964
H   H10       1.0  0.26210  0.13120  0.12623  1.0000 0.1206700964
H   H11       1.0  0.13090  0.26210  0.79290  1.0000 0.1206700964
H   H12       1.0  0.86880  0.13090  0.45957  1.0000 0.1206700964
H   H13       1.0  0.27870  0.28650  0.24720  1.0000 0.1117431504
H   H14       1.0  0.99220  0.27870  0.91387  1.0000 0.1117431504
H   H15       1.0  0.71350  0.99220  0.58053  1.0000 0.1117431504
H   H16       1.0  0.72130  0.71350  0.24720  1.0000 0.1117431504
H   H17       1.0  0.00780  0.72130  0.91387  1.0000 0.1117431504
H   H18       1.0  0.28650  0.00780  0.58053  1.0000 0.1117431504
H   H19       1.0  0.71350  0.72130  0.08613  1.0000 0.1117431504
H   H20       1.0  0.99220  0.71350  0.75280  1.0000 0.1117431504
H   H21       1.0  0.27870  0.99220  0.41947  1.0000 0.1117431504
H   H22       1.0  0.28650  0.27870  0.08613  1.0000 0.1117431504
H   H23       1.0  0.00780  0.28650  0.75280  1.0000 0.1117431504
H   H24       1.0  0.72130  0.00780  0.41947  1.0000 0.1117431504
H   H25       1.0  0.35810  0.39080  0.33210  1.0000 0.1206700964
H   H26       1.0  0.96730  0.35810  0.99877  1.0000 0.1206700964
H   H27       1.0  0.60920  0.96730  0.66543  1.0000 0.1206700964
H   H28       1.0  0.64190  0.60920  0.33210  1.0000 0.1206700964
H   H29       1.0  0.03270  0.64190  0.99877  1.0000 0.1206700964
H   H30       1.0  0.39080  0.03270  0.66543  1.0000 0.1206700964
H   H31       1.0  0.60920  0.64190  0.00123  1.0000 0.1206700964
H   H32       1.0  0.96730  0.60920  0.66790  1.0000 0.1206700964
H   H33       1.0  0.35810  0.96730  0.33457  1.0000 0.1206700964
H   H34       1.0  0.39080  0.35810  0.00123  1.0000 0.1206700964
H   H35       1.0  0.03270  0.39080  0.66790  1.0000 0.1206700964
H   H36       1.0  0.64190  0.03270  0.33457  1.0000 0.1206700964
H   H37       1.0  0.37510  0.51620  0.41130  1.0000 0.0987145312
H   H38       1.0  0.85890  0.37510  0.07797  1.0000 0.0987145312
H   H39       1.0  0.48380  0.85890  0.74463  1.0000 0.0987145312
H   H40       1.0  0.62490  0.48380  0.41130  1.0000 0.0987145312
H   H41       1.0  0.14110  0.62490  0.07797  1.0000 0.0987145312
H   H42       1.0  0.51620  0.14110  0.74463  1.0000 0.0987145312
H   H43       1.0  0.48380  0.62490  0.92203  1.0000 0.0987145312
H   H44       1.0  0.85890  0.48380  0.58870  1.0000 0.0987145312
H   H45       1.0  0.37510  0.85890  0.25537  1.0000 0.0987145312
H   H46       1.0  0.51620  0.37510  0.92203  1.0000 0.0987145312
H   H47       1.0  0.14110  0.51620  0.58870  1.0000 0.0987145312
H   H48       1.0  0.62490  0.14110  0.25537  1.0000 0.0987145312
H   H49       1.0  0.40970  0.64550  0.48200  1.0000 0.0987145312
H   H50       1.0  0.76420  0.40970  0.14867  1.0000 0.0987145312
H   H51       1.0  0.35450  0.76420  0.81533  1.0000 0.0987145312
H   H52       1.0  0.59030  0.35450  0.48200  1.0000 0.0987145312
H   H53       1.0  0.23580  0.59030  0.14867  1.0000 0.0987145312
H   H54       1.0  0.64550  0.23580  0.81533  1.0000 0.0987145312
H   H55       1.0  0.35450  0.59030  0.85133  1.0000 0.0987145312
H   H56       1.0  0.76420  0.35450  0.51800  1.0000 0.0987145312
H   H57       1.0  0.40970  0.76420  0.18467  1.0000 0.0987145312
H   H58       1.0  0.64550  0.40970  0.85133  1.0000 0.0987145312
H   H59       1.0  0.23580  0.64550  0.51800  1.0000 0.0987145312
H   H60       1.0  0.59030  0.23580  0.18467  1.0000 0.0987145312
H   H61       1.0  0.43020  0.74380  0.38970  1.0000 0.1117431504
H   H62       1.0  0.68640  0.43020  0.05637  1.0000 0.1117431504
H   H63       1.0  0.25620  0.68640  0.72303  1.0000 0.1117431504
H   H64       1.0  0.56980  0.25620  0.38970  1.0000 0.1117431504
H   H65       1.0  0.31360  0.56980  0.05637  1.0000 0.1117431504
H   H66       1.0  0.74380  0.31360  0.72303  1.0000 0.1117431504
H   H67       1.0  0.25620  0.56980  0.94363  1.0000 0.1117431504
H   H68       1.0  0.68640  0.25620  0.61030  1.0000 0.1117431504
H   H69       1.0  0.43020  0.68640  0.27697  1.0000 0.1117431504
H   H70       1.0  0.74380  0.43020  0.94363  1.0000 0.1117431504
H   H71       1.0  0.31360  0.74380  0.61030  1.0000 0.1117431504
H   H72       1.0  0.56980  0.31360  0.27697  1.0000 0.1117431504
H   H73       1.0  0.33460  0.74420  0.40680  1.0000 0.1117431504
H   H74       1.0  0.59040  0.33460  0.07347  1.0000 0.1117431504
H   H75       1.0  0.25580  0.59040  0.74013  1.0000 0.1117431504
H   H76       1.0  0.66540  0.25580  0.40680  1.0000 0.1117431504
H   H77       1.0  0.40960  0.66540  0.07347  1.0000 0.1117431504
H   H78       1.0  0.74420  0.40960  0.74013  1.0000 0.1117431504
H   H79       1.0  0.25580  0.66540  0.92653  1.0000 0.1117431504
H   H80       1.0  0.59040  0.25580  0.59320  1.0000 0.1117431504
H   H81       1.0  0.33460  0.59040  0.25987  1.0000 0.1117431504
H   H82       1.0  0.74420  0.33460  0.92653  1.0000 0.1117431504
H   H83       1.0  0.40960  0.74420  0.59320  1.0000 0.1117431504
H   H84       1.0  0.66540  0.40960  0.25987  1.0000 0.1117431504
H   H85       1.0  0.46230  0.89010  0.43990  1.0000 0.0912277234
H   H86       1.0  0.57220  0.46230  0.10657  1.0000 0.0912277234
H   H87       1.0  0.10990  0.57220  0.77323  1.0000 0.0912277234
H   H88       1.0  0.53770  0.10990  0.43990  1.0000 0.0912277234
H   H89       1.0  0.42780  0.53770  0.10657  1.0000 0.0912277234
H   H90       1.0  0.89010  0.42780  0.77323  1.0000 0.0912277234
H   H91       1.0  0.10990  0.53770  0.89343  1.0000 0.0912277234
H   H92       1.0  0.57220  0.10990  0.56010  1.0000 0.0912277234
H   H93       1.0  0.46230  0.57220  0.22677  1.0000 0.0912277234
H   H94       1.0  0.89010  0.46230  0.89343  1.0000 0.0912277234
H   H95       1.0  0.42780  0.89010  0.56010  1.0000 0.0912277234
H   H96       1.0  0.53770  0.42780  0.22677  1.0000 0.0912277234
H   H97       1.0  0.50650  0.83900  0.48370  1.0000 0.0987145312
H   H98       1.0  0.66750  0.50650  0.15037  1.0000 0.0987145312
H   H99       1.0  0.16100  0.66750  0.81703  1.0000 0.0987145312
H   H100      1.0  0.49350  0.16100  0.48370  1.0000 0.0987145312
H   H101      1.0  0.33250  0.49350  0.15037  1.0000 0.0987145312
H   H102      1.0  0.83900  0.33250  0.81703  1.0000 0.0987145312
H   H103      1.0  0.16100  0.49350  0.84963  1.0000 0.0987145312
H   H104      1.0  0.66750  0.16100  0.51630  1.0000 0.0987145312
H   H105      1.0  0.50650  0.66750  0.18297  1.0000 0.0987145312
H   H106      1.0  0.83900  0.50650  0.84963  1.0000 0.0987145312
H   H107      1.0  0.33250  0.83900  0.51630  1.0000 0.0987145312
H   H108      1.0  0.49350  0.33250  0.18297  1.0000 0.0987145312
H   H109      1.0  0.01940  0.26870  0.17070  1.0000 0.1117431504
H   H110      1.0  0.75070  0.01940  0.83737  1.0000 0.1117431504
H   H111      1.0  0.73130  0.75070  0.50403  1.0000 0.1117431504
H   H112      1.0  0.98060  0.73130  0.17070  1.0000 0.1117431504
H   H113      1.0  0.24930  0.98060  0.83737  1.0000 0.1117431504
H   H114      1.0  0.26870  0.24930  0.50403  1.0000 0.1117431504
H   H115      1.0  0.73130  0.98060  0.16263  1.0000 0.1117431504
H   H116      1.0  0.75070  0.73130  0.82930  1.0000 0.1117431504
H   H117      1.0  0.01940  0.75070  0.49597  1.0000 0.1117431504
H   H118      1.0  0.26870  0.01940  0.16263  1.0000 0.1117431504
H   H119      1.0  0.24930  0.26870  0.82930  1.0000 0.1117431504
H   H120      1.0  0.98060  0.24930  0.49597  1.0000 0.1117431504
H   H121      1.0  0.93640  0.29300  0.18070  1.0000 0.1206700964
H   H122      1.0  0.64340  0.93640  0.84737  1.0000 0.1206700964
H   H123      1.0  0.70700  0.64340  0.51403  1.0000 0.1206700964
H   H124      1.0  0.06360  0.70700  0.18070  1.0000 0.1206700964
H   H125      1.0  0.35660  0.06360  0.84737  1.0000 0.1206700964
H   H126      1.0  0.29300  0.35660  0.51403  1.0000 0.1206700964
H   H127      1.0  0.70700  0.06360  0.15263  1.0000 0.1206700964
H   H128      1.0  0.64340  0.70700  0.81930  1.0000 0.1206700964
H   H129      1.0  0.93640  0.64340  0.48597  1.0000 0.1206700964
H   H130      1.0  0.29300  0.93640  0.15263  1.0000 0.1206700964
H   H131      1.0  0.35660  0.29300  0.81930  1.0000 0.1206700964
H   H132      1.0  0.06360  0.35660  0.48597  1.0000 0.1206700964
H   H133      1.0  0.94020  0.21480  0.22720  1.0000 0.1206700964
H   H134      1.0  0.72540  0.94020  0.89387  1.0000 0.1206700964
H   H135      1.0  0.78520  0.72540  0.56053  1.0000 0.1206700964
H   H136      1.0  0.05980  0.78520  0.22720  1.0000 0.1206700964
H   H137      1.0  0.27460  0.05980  0.89387  1.0000 0.1206700964
H   H138      1.0  0.21480  0.27460  0.56053  1.0000 0.1206700964
H   H139      1.0  0.78520  0.05980  0.10613  1.0000 0.1206700964
H   H140      1.0  0.72540  0.78520  0.77280  1.0000 0.1206700964
H   H141      1.0  0.94020  0.72540  0.43947  1.0000 0.1206700964
H   H142      1.0  0.21480  0.94020  0.10613  1.0000 0.1206700964
H   H143      1.0  0.27460  0.21480  0.77280  1.0000 0.1206700964
H   H144      1.0  0.05980  0.27460  0.43947  1.0000 0.1206700964
H   H145      1.0  0.24500  0.55600  0.41500  1.0000 0.2491701451
H   H146      1.0  0.68900  0.24500  0.08167  1.0000 0.2491701451
H   H147      1.0  0.44400  0.68900  0.74833  1.0000 0.2491701451
H   H148      1.0  0.75500  0.44400  0.41500  1.0000 0.2491701451
H   H149      1.0  0.31100  0.75500  0.08167  1.0000 0.2491701451
H   H150      1.0  0.55600  0.31100  0.74833  1.0000 0.2491701451
H   H151      1.0  0.44400  0.75500  0.91833  1.0000 0.2491701451
H   H152      1.0  0.68900  0.44400  0.58500  1.0000 0.2491701451
H   H153      1.0  0.24500  0.68900  0.25167  1.0000 0.2491701451
H   H154      1.0  0.55600  0.24500  0.91833  1.0000 0.2491701451
H   H155      1.0  0.31100  0.55600  0.58500  1.0000 0.2491701451
H   H156      1.0  0.75500  0.31100  0.25167  1.0000 0.2491701451
C   C1        1.0  0.17260  0.42740  0.32140  1.0000 0.2167786292
C   C2        1.0  0.74520  0.17260  0.98807  1.0000 0.2167786292
C   C3        1.0  0.57260  0.74520  0.65473  1.0000 0.2167786292
C   C4        1.0  0.82740  0.57260  0.32140  1.0000 0.2167786292
C   C5        1.0  0.25480  0.82740  0.98807  1.0000 0.2167786292
C   C6        1.0  0.42740  0.25480  0.65473  1.0000 0.2167786292
C   C7        1.0  0.57260  0.82740  0.01193  1.0000 0.2167786292
C   C8        1.0  0.74520  0.57260  0.67860  1.0000 0.2167786292
C   C9        1.0  0.17260  0.74520  0.34527  1.0000 0.2167786292
C   C10       1.0  0.42740  0.17260  0.01193  1.0000 0.2167786292
C   C11       1.0  0.25480  0.42740  0.67860  1.0000 0.2167786292
C   C12       1.0  0.82740  0.25480  0.34527  1.0000 0.2167786292
C   C13       1.0  0.12380  0.35740  0.27050  1.0000 0.1206700964
C   C14       1.0  0.76640  0.12380  0.93717  1.0000 0.1206700964
C   C15       1.0  0.64260  0.76640  0.60383  1.0000 0.1206700964
C   C16       1.0  0.87620  0.64260  0.27050  1.0000 0.1206700964
C   C17       1.0  0.23360  0.87620  0.93717  1.0000 0.1206700964
C   C18       1.0  0.35740  0.23360  0.60383  1.0000 0.1206700964
C   C19       1.0  0.64260  0.87620  0.06283  1.0000 0.1206700964
C   C20       1.0  0.76640  0.64260  0.72950  1.0000 0.1206700964
C   C21       1.0  0.12380  0.76640  0.39617  1.0000 0.1206700964
C   C22       1.0  0.35740  0.12380  0.06283  1.0000 0.1206700964
C   C23       1.0  0.23360  0.35740  0.72950  1.0000 0.1206700964
C   C24       1.0  0.87620  0.23360  0.39617  1.0000 0.1206700964
C   C25       1.0  0.16330  0.30630  0.24220  1.0000 -0.2218256536
C   C26       1.0  0.85700  0.16330  0.90887  1.0000 -0.2218256536
C   C27       1.0  0.69370  0.85700  0.57553  1.0000 -0.2218256536
C   C28       1.0  0.83670  0.69370  0.24220  1.0000 -0.2218256536
C   C29       1.0  0.14300  0.83670  0.90887  1.0000 -0.2218256536
C   C30       1.0  0.30630  0.14300  0.57553  1.0000 -0.2218256536
C   C31       1.0  0.69370  0.83670  0.09113  1.0000 -0.2218256536
C   C32       1.0  0.85700  0.69370  0.75780  1.0000 -0.2218256536
C   C33       1.0  0.16330  0.85700  0.42447  1.0000 -0.2218256536
C   C34       1.0  0.30630  0.16330  0.09113  1.0000 -0.2218256536
C   C35       1.0  0.14300  0.30630  0.75780  1.0000 -0.2218256536
C   C36       1.0  0.83670  0.14300  0.42447  1.0000 -0.2218256536
C   C37       1.0  0.25230  0.32140  0.26660  1.0000 -0.1098830568
C   C38       1.0  0.93090  0.25230  0.93327  1.0000 -0.1098830568
C   C39       1.0  0.67860  0.93090  0.59993  1.0000 -0.1098830568
C   C40       1.0  0.74770  0.67860  0.26660  1.0000 -0.1098830568
C   C41       1.0  0.06910  0.74770  0.93327  1.0000 -0.1098830568
C   C42       1.0  0.32140  0.06910  0.59993  1.0000 -0.1098830568
C   C43       1.0  0.67860  0.74770  0.06673  1.0000 -0.1098830568
C   C44       1.0  0.93090  0.67860  0.73340  1.0000 -0.1098830568
C   C45       1.0  0.25230  0.93090  0.40007  1.0000 -0.1098830568
C   C46       1.0  0.32140  0.25230  0.06673  1.0000 -0.1098830568
C   C47       1.0  0.06910  0.32140  0.73340  1.0000 -0.1098830568
C   C48       1.0  0.74770  0.06910  0.40007  1.0000 -0.1098830568
C   C49       1.0  0.29990  0.38360  0.31640  1.0000 -0.1640391119
C   C50       1.0  0.91630  0.29990  0.98307  1.0000 -0.1640391119
C   C51       1.0  0.61640  0.91630  0.64973  1.0000 -0.1640391119
C   C52       1.0  0.70010  0.61640  0.31640  1.0000 -0.1640391119
C   C53       1.0  0.08370  0.70010  0.98307  1.0000 -0.1640391119
C   C54       1.0  0.38360  0.08370  0.64973  1.0000 -0.1640391119
C   C55       1.0  0.61640  0.70010  0.01693  1.0000 -0.1640391119
C   C56       1.0  0.91630  0.61640  0.68360  1.0000 -0.1640391119
C   C57       1.0  0.29990  0.91630  0.35027  1.0000 -0.1640391119
C   C58       1.0  0.38360  0.29990  0.01693  1.0000 -0.1640391119
C   C59       1.0  0.08370  0.38360  0.68360  1.0000 -0.1640391119
C   C60       1.0  0.70010  0.08370  0.35027  1.0000 -0.1640391119
C   C61       1.0  0.26250  0.43980  0.34630  1.0000 -0.0748318973
C   C62       1.0  0.82270  0.26250  0.01297  1.0000 -0.0748318973
C   C63       1.0  0.56020  0.82270  0.67963  1.0000 -0.0748318973
C   C64       1.0  0.73750  0.56020  0.34630  1.0000 -0.0748318973
C   C65       1.0  0.17730  0.73750  0.01297  1.0000 -0.0748318973
C   C66       1.0  0.43980  0.17730  0.67963  1.0000 -0.0748318973
C   C67       1.0  0.56020  0.73750  0.98703  1.0000 -0.0748318973
C   C68       1.0  0.82270  0.56020  0.65370  1.0000 -0.0748318973
C   C69       1.0  0.26250  0.82270  0.32037  1.0000 -0.0748318973
C   C70       1.0  0.43980  0.26250  0.98703  1.0000 -0.0748318973
C   C71       1.0  0.17730  0.43980  0.65370  1.0000 -0.0748318973
C   C72       1.0  0.73750  0.17730  0.32037  1.0000 -0.0748318973
C   C73       1.0  0.31720  0.51120  0.39680  1.0000 0.058500941
C   C74       1.0  0.80600  0.31720  0.06347  1.0000 0.058500941
C   C75       1.0  0.48880  0.80600  0.73013  1.0000 0.058500941
C   C76       1.0  0.68280  0.48880  0.39680  1.0000 0.058500941
C   C77       1.0  0.19400  0.68280  0.06347  1.0000 0.058500941
C   C78       1.0  0.51120  0.19400  0.73013  1.0000 0.058500941
C   C79       1.0  0.48880  0.68280  0.93653  1.0000 0.058500941
C   C80       1.0  0.80600  0.48880  0.60320  1.0000 0.058500941
C   C81       1.0  0.31720  0.80600  0.26987  1.0000 0.058500941
C   C82       1.0  0.51120  0.31720  0.93653  1.0000 0.058500941
C   C83       1.0  0.19400  0.51120  0.60320  1.0000 0.058500941
C   C84       1.0  0.68280  0.19400  0.26987  1.0000 0.058500941
C   C85       1.0  0.35390  0.65090  0.46740  1.0000 0.0399705579
C   C86       1.0  0.70300  0.35390  0.13407  1.0000 0.0399705579
C   C87       1.0  0.34910  0.70300  0.80073  1.0000 0.0399705579
C   C88       1.0  0.64610  0.34910  0.46740  1.0000 0.0399705579
C   C89       1.0  0.29700  0.64610  0.13407  1.0000 0.0399705579
C   C90       1.0  0.65090  0.29700  0.80073  1.0000 0.0399705579
C   C91       1.0  0.34910  0.64610  0.86593  1.0000 0.0399705579
C   C92       1.0  0.70300  0.34910  0.53260  1.0000 0.0399705579
C   C93       1.0  0.35390  0.70300  0.19927  1.0000 0.0399705579
C   C94       1.0  0.65090  0.35390  0.86593  1.0000 0.0399705579
C   C95       1.0  0.29700  0.65090  0.53260  1.0000 0.0399705579
C   C96       1.0  0.64610  0.29700  0.19927  1.0000 0.0399705579
C   C97       1.0  0.38980  0.74360  0.42700  1.0000 -0.2503655831
C   C98       1.0  0.64620  0.38980  0.09367  1.0000 -0.2503655831
C   C99       1.0  0.25640  0.64620  0.76033  1.0000 -0.2503655831
C   C100      1.0  0.61020  0.25640  0.42700  1.0000 -0.2503655831
C   C101      1.0  0.35380  0.61020  0.09367  1.0000 -0.2503655831
C   C102      1.0  0.74360  0.35380  0.76033  1.0000 -0.2503655831
C   C103      1.0  0.25640  0.61020  0.90633  1.0000 -0.2503655831
C   C104      1.0  0.64620  0.25640  0.57300  1.0000 -0.2503655831
C   C105      1.0  0.38980  0.64620  0.23967  1.0000 -0.2503655831
C   C106      1.0  0.74360  0.38980  0.90633  1.0000 -0.2503655831
C   C107      1.0  0.35380  0.74360  0.57300  1.0000 -0.2503655831
C   C108      1.0  0.61020  0.35380  0.23967  1.0000 -0.2503655831
C   C109      1.0  0.44650  0.83430  0.46850  1.0000 -0.1640391119
C   C110      1.0  0.61220  0.44650  0.13517  1.0000 -0.1640391119
C   C111      1.0  0.16570  0.61220  0.80183  1.0000 -0.1640391119
C   C112      1.0  0.55350  0.16570  0.46850  1.0000 -0.1640391119
C   C113      1.0  0.38780  0.55350  0.13517  1.0000 -0.1640391119
C   C114      1.0  0.83430  0.38780  0.80183  1.0000 -0.1640391119
C   C115      1.0  0.16570  0.55350  0.86483  1.0000 -0.1640391119
C   C116      1.0  0.61220  0.16570  0.53150  1.0000 -0.1640391119
C   C117      1.0  0.44650  0.61220  0.19817  1.0000 -0.1640391119
C   C118      1.0  0.83430  0.44650  0.86483  1.0000 -0.1640391119
C   C119      1.0  0.38780  0.83430  0.53150  1.0000 -0.1640391119
C   C120      1.0  0.55350  0.38780  0.19817  1.0000 -0.1640391119
C   C121      1.0  0.97840  0.27520  0.20380  1.0000 -0.2218256536
C   C122      1.0  0.70320  0.97840  0.87047  1.0000 -0.2218256536
C   C123      1.0  0.72480  0.70320  0.53713  1.0000 -0.2218256536
C   C124      1.0  0.02160  0.72480  0.20380  1.0000 -0.2218256536
C   C125      1.0  0.29680  0.02160  0.87047  1.0000 -0.2218256536
C   C126      1.0  0.27520  0.29680  0.53713  1.0000 -0.2218256536
C   C127      1.0  0.72480  0.02160  0.12953  1.0000 -0.2218256536
C   C128      1.0  0.70320  0.72480  0.79620  1.0000 -0.2218256536
C   C129      1.0  0.97840  0.70320  0.46287  1.0000 -0.2218256536
C   C130      1.0  0.27520  0.97840  0.12953  1.0000 -0.2218256536
C   C131      1.0  0.29680  0.27520  0.79620  1.0000 -0.2218256536
C   C132      1.0  0.02160  0.29680  0.46287  1.0000 -0.2218256536
N   N1        1.0  0.29270  0.56850  0.42360  1.0000 -0.1717385952
N   N2        1.0  0.72420  0.29270  0.09027  1.0000 -0.1717385952
N   N3        1.0  0.43150  0.72420  0.75693  1.0000 -0.1717385952
N   N4        1.0  0.70730  0.43150  0.42360  1.0000 -0.1717385952
N   N5        1.0  0.27580  0.70730  0.09027  1.0000 -0.1717385952
N   N6        1.0  0.56850  0.27580  0.75693  1.0000 -0.1717385952
N   N7        1.0  0.43150  0.70730  0.90973  1.0000 -0.1717385952
N   N8        1.0  0.72420  0.43150  0.57640  1.0000 -0.1717385952
N   N9        1.0  0.29270  0.72420  0.24307  1.0000 -0.1717385952
N   N10       1.0  0.56850  0.29270  0.90973  1.0000 -0.1717385952
N   N11       1.0  0.27580  0.56850  0.57640  1.0000 -0.1717385952
N   N12       1.0  0.70730  0.27580  0.24307  1.0000 -0.1717385952
N   N13       1.0  0.00000  0.50000  0.49270  1.0000 0.6718704609
N   N14       1.0  0.50000  0.00000  0.15937  1.0000 0.6718704609
N   N15       1.0  0.50000  0.50000  0.82603  1.0000 0.6718704609
N   N16       1.0  0.50000  0.00000  0.84063  1.0000 0.6718704609
N   N17       1.0  0.50000  0.50000  0.50730  1.0000 0.6718704609
N   N18       1.0  0.00000  0.50000  0.17397  1.0000 0.6718704609
O   O1        1.0  0.14100  0.48230  0.34262  1.0000 -0.551313777
O   O2        1.0  0.65870  0.14100  0.00929  1.0000 -0.551313777
O   O3        1.0  0.51770  0.65870  0.67595  1.0000 -0.551313777
O   O4        1.0  0.85900  0.51770  0.34262  1.0000 -0.551313777
O   O5        1.0  0.34130  0.85900  0.00929  1.0000 -0.551313777
O   O6        1.0  0.48230  0.34130  0.67595  1.0000 -0.551313777
O   O7        1.0  0.51770  0.85900  0.99071  1.0000 -0.551313777
O   O8        1.0  0.65870  0.51770  0.65738  1.0000 -0.551313777
O   O9        1.0  0.14100  0.65870  0.32405  1.0000 -0.551313777
O   O10       1.0  0.48230  0.14100  0.99071  1.0000 -0.551313777
O   O11       1.0  0.34130  0.48230  0.65738  1.0000 -0.551313777
O   O12       1.0  0.85900  0.34130  0.32405  1.0000 -0.551313777
O   O13       1.0  0.03700  0.34890  0.25310  1.0000 -0.1914247565
O   O14       1.0  0.68810  0.03700  0.91977  1.0000 -0.1914247565
O   O15       1.0  0.65110  0.68810  0.58643  1.0000 -0.1914247565
O   O16       1.0  0.96300  0.65110  0.25310  1.0000 -0.1914247565
O   O17       1.0  0.31190  0.96300  0.91977  1.0000 -0.1914247565
O   O18       1.0  0.34890  0.31190  0.58643  1.0000 -0.1914247565
O   O19       1.0  0.65110  0.96300  0.08023  1.0000 -0.1914247565
O   O20       1.0  0.68810  0.65110  0.74690  1.0000 -0.1914247565
O   O21       1.0  0.03700  0.68810  0.41357  1.0000 -0.1914247565
O   O22       1.0  0.34890  0.03700  0.08023  1.0000 -0.1914247565
O   O23       1.0  0.31190  0.34890  0.74690  1.0000 -0.1914247565
O   O24       1.0  0.96300  0.31190  0.41357  1.0000 -0.1914247565
O   O25       1.0  0.92350  0.47000  0.46000  1.0000 -0.4408713969
O   O26       1.0  0.45350  0.92350  0.12667  1.0000 -0.4408713969
O   O27       1.0  0.53000  0.45350  0.79333  1.0000 -0.4408713969
O   O28       1.0  0.07650  0.53000  0.46000  1.0000 -0.4408713969
O   O29       1.0  0.54650  0.07650  0.12667  1.0000 -0.4408713969
O   O30       1.0  0.47000  0.54650  0.79333  1.0000 -0.4408713969
O   O31       1.0  0.53000  0.07650  0.87333  1.0000 -0.4408713969
O   O32       1.0  0.45350  0.53000  0.54000  1.0000 -0.4408713969
O   O33       1.0  0.92350  0.45350  0.20667  1.0000 -0.4408713969
O   O34       1.0  0.47000  0.92350  0.87333  1.0000 -0.4408713969
O   O35       1.0  0.54650  0.47000  0.54000  1.0000 -0.4408713969
O   O36       1.0  0.07650  0.54650  0.20667  1.0000 -0.4408713969
O   O37       1.0  0.00000  0.50000  0.55590  1.0000 -0.4298521968
O   O38       1.0  0.50000  0.00000  0.22257  1.0000 -0.4298521968
O   O39       1.0  0.50000  0.50000  0.88923  1.0000 -0.4298521968
O   O40       1.0  0.50000  0.00000  0.77743  1.0000 -0.4298521968
O   O41       1.0  0.50000  0.50000  0.44410  1.0000 -0.4298521968
O   O42       1.0  0.00000  0.50000  0.11077  1.0000 -0.4298521968
