# DDEC6 charges by PACMAN v1.1 (https://github.com/mtap-research/PACMAN-charge/)
data_2014[Cu][tbo]3[ASR]1
_chemical_formula_sum              "Cu96 H192 C576 O384"
_cell_length_a       37.1286
_cell_length_b       37.1286
_cell_length_c       37.1286
_cell_angle_alpha    60
_cell_angle_beta     60
_cell_angle_gamma    60

_symmetry_space_group_name_H-M    "P 1"
_symmetry_Int_Tables_number       1

loop_
  _symmetry_equiv_pos_as_xyz
  'x, y, z'

loop_
  _atom_site_type_symbol
  _atom_site_label
  _atom_site_symmetry_multiplicity
  _atom_site_fract_x
  _atom_site_fract_y
  _atom_site_fract_z
  _atom_site_occupancy
  _atom_site_charge
Cu  Cu1       1.0  0.71481  0.49589  0.28519  1.0000 0.8594948615
Cu  Cu2       1.0  0.99589  0.21481  0.78519  1.0000 0.8594948615
Cu  Cu3       1.0  0.49589  0.71481  0.50411  1.0000 0.8594948615
Cu  Cu4       1.0  0.21481  0.99589  0.00411  1.0000 0.8594948615
Cu  Cu5       1.0  0.00411  0.99589  0.78519  1.0000 0.8594948615
Cu  Cu6       1.0  0.50411  0.28519  0.49589  1.0000 0.8594948615
Cu  Cu7       1.0  0.21481  0.78519  0.99589  1.0000 0.8594948615
Cu  Cu8       1.0  0.00411  0.21481  0.99589  1.0000 0.8594948615
Cu  Cu9       1.0  0.28519  0.50411  0.71481  1.0000 0.8594948615
Cu  Cu10      1.0  0.99589  0.78519  0.00411  1.0000 0.8594948615
Cu  Cu11      1.0  0.28519  0.71481  0.49589  1.0000 0.8594948615
Cu  Cu12      1.0  0.49589  0.28519  0.71481  1.0000 0.8594948615
Cu  Cu13      1.0  0.28519  0.49589  0.50411  1.0000 0.8594948615
Cu  Cu14      1.0  0.50411  0.49589  0.71481  1.0000 0.8594948615
Cu  Cu15      1.0  0.71481  0.50411  0.49589  1.0000 0.8594948615
Cu  Cu16      1.0  0.71481  0.28519  0.50411  1.0000 0.8594948615
Cu  Cu17      1.0  0.49589  0.50411  0.28519  1.0000 0.8594948615
Cu  Cu18      1.0  0.50411  0.71481  0.28519  1.0000 0.8594948615
Cu  Cu19      1.0  0.78519  0.00411  0.99589  1.0000 0.8594948615
Cu  Cu20      1.0  0.00411  0.78519  0.21481  1.0000 0.8594948615
Cu  Cu21      1.0  0.99589  0.00411  0.21481  1.0000 0.8594948615
Cu  Cu22      1.0  0.78519  0.21481  0.00411  1.0000 0.8594948615
Cu  Cu23      1.0  0.78519  0.99589  0.21481  1.0000 0.8594948615
Cu  Cu24      1.0  0.21481  0.00411  0.78519  1.0000 0.8594948615
Cu  Cu25      1.0  0.78543  0.49475  0.21457  1.0000 0.8462914467
Cu  Cu26      1.0  0.99475  0.28543  0.71457  1.0000 0.8462914467
Cu  Cu27      1.0  0.49475  0.78543  0.50525  1.0000 0.8462914467
Cu  Cu28      1.0  0.28543  0.99475  0.00525  1.0000 0.8462914467
Cu  Cu29      1.0  0.00525  0.99475  0.71457  1.0000 0.8462914467
Cu  Cu30      1.0  0.50525  0.21457  0.49475  1.0000 0.8462914467
Cu  Cu31      1.0  0.28543  0.71457  0.99475  1.0000 0.8462914467
Cu  Cu32      1.0  0.00525  0.28543  0.99475  1.0000 0.8462914467
Cu  Cu33      1.0  0.21457  0.50525  0.78543  1.0000 0.8462914467
Cu  Cu34      1.0  0.99475  0.71457  0.00525  1.0000 0.8462914467
Cu  Cu35      1.0  0.21457  0.78543  0.49475  1.0000 0.8462914467
Cu  Cu36      1.0  0.49475  0.21457  0.78543  1.0000 0.8462914467
Cu  Cu37      1.0  0.21457  0.49475  0.50525  1.0000 0.8462914467
Cu  Cu38      1.0  0.50525  0.49475  0.78543  1.0000 0.8462914467
Cu  Cu39      1.0  0.78543  0.50525  0.49475  1.0000 0.8462914467
Cu  Cu40      1.0  0.78543  0.21457  0.50525  1.0000 0.8462914467
Cu  Cu41      1.0  0.49475  0.50525  0.21457  1.0000 0.8462914467
Cu  Cu42      1.0  0.50525  0.78543  0.21457  1.0000 0.8462914467
Cu  Cu43      1.0  0.71457  0.00525  0.99475  1.0000 0.8462914467
Cu  Cu44      1.0  0.00525  0.71457  0.28543  1.0000 0.8462914467
Cu  Cu45      1.0  0.99475  0.00525  0.28543  1.0000 0.8462914467
Cu  Cu46      1.0  0.71457  0.28543  0.00525  1.0000 0.8462914467
Cu  Cu47      1.0  0.71457  0.99475  0.28543  1.0000 0.8462914467
Cu  Cu48      1.0  0.28543  0.00525  0.71457  1.0000 0.8462914467
Cu  Cu49      1.0  0.00070  0.21448  0.28491  1.0000 0.8462914467
Cu  Cu50      1.0  0.00010  0.21508  0.49930  1.0000 0.8462914467
Cu  Cu51      1.0  0.21449  0.00069  0.49990  1.0000 0.8462914467
Cu  Cu52      1.0  0.21508  0.00009  0.28552  1.0000 0.8462914467
Cu  Cu53      1.0  0.28552  0.00009  0.49930  1.0000 0.8462914467
Cu  Cu54      1.0  0.49991  0.28491  0.21449  1.0000 0.8462914467
Cu  Cu55      1.0  0.21508  0.49930  0.00010  1.0000 0.8462914467
Cu  Cu56      1.0  0.28552  0.21508  0.00010  1.0000 0.8462914467
Cu  Cu57      1.0  0.28491  0.49990  0.00069  1.0000 0.8462914467
Cu  Cu58      1.0  0.00010  0.49930  0.28552  1.0000 0.8462914467
Cu  Cu59      1.0  0.28491  0.00070  0.21449  1.0000 0.8462914467
Cu  Cu60      1.0  0.21449  0.28491  0.00069  1.0000 0.8462914467
Cu  Cu61      1.0  0.28491  0.21449  0.49990  1.0000 0.8462914467
Cu  Cu62      1.0  0.49991  0.21449  0.00069  1.0000 0.8462914467
Cu  Cu63      1.0  0.00070  0.49990  0.21449  1.0000 0.8462914467
Cu  Cu64      1.0  0.00069  0.28491  0.49990  1.0000 0.8462914467
Cu  Cu65      1.0  0.21449  0.49990  0.28491  1.0000 0.8462914467
Cu  Cu66      1.0  0.49991  0.00070  0.28491  1.0000 0.8462914467
Cu  Cu67      1.0  0.49930  0.28552  0.00010  1.0000 0.8462914467
Cu  Cu68      1.0  0.28552  0.49930  0.21508  1.0000 0.8462914467
Cu  Cu69      1.0  0.00010  0.28552  0.21508  1.0000 0.8462914467
Cu  Cu70      1.0  0.49930  0.21508  0.28552  1.0000 0.8462914467
Cu  Cu71      1.0  0.49930  0.00009  0.21508  1.0000 0.8462914467
Cu  Cu72      1.0  0.21509  0.28552  0.49930  1.0000 0.8462914467
Cu  Cu73      1.0  0.99930  0.78551  0.71508  1.0000 0.8462914467
Cu  Cu74      1.0  0.99991  0.78492  0.50070  1.0000 0.8462914467
Cu  Cu75      1.0  0.78551  0.99930  0.50009  1.0000 0.8462914467
Cu  Cu76      1.0  0.78492  0.99991  0.71449  1.0000 0.8462914467
Cu  Cu77      1.0  0.71449  0.99991  0.50070  1.0000 0.8462914467
Cu  Cu78      1.0  0.50010  0.71508  0.78551  1.0000 0.8462914467
Cu  Cu79      1.0  0.78492  0.50070  0.99990  1.0000 0.8462914467
Cu  Cu80      1.0  0.71449  0.78492  0.99990  1.0000 0.8462914467
Cu  Cu81      1.0  0.71509  0.50009  0.99930  1.0000 0.8462914467
Cu  Cu82      1.0  0.99991  0.50070  0.71449  1.0000 0.8462914467
Cu  Cu83      1.0  0.71508  0.99930  0.78551  1.0000 0.8462914467
Cu  Cu84      1.0  0.78551  0.71509  0.99930  1.0000 0.8462914467
Cu  Cu85      1.0  0.71508  0.78551  0.50009  1.0000 0.8462914467
Cu  Cu86      1.0  0.50009  0.78552  0.99930  1.0000 0.8462914467
Cu  Cu87      1.0  0.99931  0.50009  0.78551  1.0000 0.8462914467
Cu  Cu88      1.0  0.99931  0.71508  0.50009  1.0000 0.8462914467
Cu  Cu89      1.0  0.78551  0.50009  0.71508  1.0000 0.8462914467
Cu  Cu90      1.0  0.50010  0.99930  0.71508  1.0000 0.8462914467
Cu  Cu91      1.0  0.50070  0.71448  0.99990  1.0000 0.8462914467
Cu  Cu92      1.0  0.71449  0.50070  0.78492  1.0000 0.8462914467
Cu  Cu93      1.0  0.99991  0.71449  0.78492  1.0000 0.8462914467
Cu  Cu94      1.0  0.50070  0.78491  0.71449  1.0000 0.8462914467
Cu  Cu95      1.0  0.50070  0.99991  0.78492  1.0000 0.8462914467
Cu  Cu96      1.0  0.78492  0.71449  0.50070  1.0000 0.8462914467
H   H1        1.0  0.86390  0.36090  0.25810  1.0000 0.1374491877
H   H2        1.0  0.98290  0.24190  0.63610  1.0000 0.1374491877
H   H3        1.0  0.36090  0.86390  0.51710  1.0000 0.1374491877
H   H4        1.0  0.24190  0.98290  0.13910  1.0000 0.1374491877
H   H5        1.0  0.13910  0.98290  0.63610  1.0000 0.1374491877
H   H6        1.0  0.51710  0.25810  0.36090  1.0000 0.1374491877
H   H7        1.0  0.24190  0.63610  0.98290  1.0000 0.1374491877
H   H8        1.0  0.13910  0.24190  0.98290  1.0000 0.1374491877
H   H9        1.0  0.25810  0.51710  0.86390  1.0000 0.1374491877
H   H10       1.0  0.98290  0.63610  0.13910  1.0000 0.1374491877
H   H11       1.0  0.25810  0.86390  0.36090  1.0000 0.1374491877
H   H12       1.0  0.36090  0.25810  0.86390  1.0000 0.1374491877
H   H13       1.0  0.25810  0.36090  0.51710  1.0000 0.1374491877
H   H14       1.0  0.51710  0.36090  0.86390  1.0000 0.1374491877
H   H15       1.0  0.86390  0.51710  0.36090  1.0000 0.1374491877
H   H16       1.0  0.86390  0.25810  0.51710  1.0000 0.1374491877
H   H17       1.0  0.36090  0.51710  0.25810  1.0000 0.1374491877
H   H18       1.0  0.51710  0.86390  0.25810  1.0000 0.1374491877
H   H19       1.0  0.63610  0.13910  0.98290  1.0000 0.1374491877
H   H20       1.0  0.13910  0.63610  0.24190  1.0000 0.1374491877
H   H21       1.0  0.98290  0.13910  0.24190  1.0000 0.1374491877
H   H22       1.0  0.63610  0.24190  0.13910  1.0000 0.1374491877
H   H23       1.0  0.63610  0.98290  0.24190  1.0000 0.1374491877
H   H24       1.0  0.24190  0.13910  0.63610  1.0000 0.1374491877
H   H25       1.0  0.13610  0.63910  0.74190  1.0000 0.1374491877
H   H26       1.0  0.01710  0.75810  0.36390  1.0000 0.1374491877
H   H27       1.0  0.63910  0.13610  0.48290  1.0000 0.1374491877
H   H28       1.0  0.75810  0.01710  0.86090  1.0000 0.1374491877
H   H29       1.0  0.86090  0.01710  0.36390  1.0000 0.1374491877
H   H30       1.0  0.48290  0.74190  0.63910  1.0000 0.1374491877
H   H31       1.0  0.75810  0.36390  0.01710  1.0000 0.1374491877
H   H32       1.0  0.86090  0.75810  0.01710  1.0000 0.1374491877
H   H33       1.0  0.74190  0.48290  0.13610  1.0000 0.1374491877
H   H34       1.0  0.01710  0.36390  0.86090  1.0000 0.1374491877
H   H35       1.0  0.74190  0.13610  0.63910  1.0000 0.1374491877
H   H36       1.0  0.63910  0.74190  0.13610  1.0000 0.1374491877
H   H37       1.0  0.74190  0.63910  0.48290  1.0000 0.1374491877
H   H38       1.0  0.48290  0.63910  0.13610  1.0000 0.1374491877
H   H39       1.0  0.13610  0.48290  0.63910  1.0000 0.1374491877
H   H40       1.0  0.13610  0.74190  0.48290  1.0000 0.1374491877
H   H41       1.0  0.63910  0.48290  0.74190  1.0000 0.1374491877
H   H42       1.0  0.48290  0.13610  0.74190  1.0000 0.1374491877
H   H43       1.0  0.36390  0.86090  0.01710  1.0000 0.1374491877
H   H44       1.0  0.86090  0.36390  0.75810  1.0000 0.1374491877
H   H45       1.0  0.01710  0.86090  0.75810  1.0000 0.1374491877
H   H46       1.0  0.36390  0.75810  0.86090  1.0000 0.1374491877
H   H47       1.0  0.36390  0.01710  0.75810  1.0000 0.1374491877
H   H48       1.0  0.75810  0.86090  0.36390  1.0000 0.1374491877
H   H49       1.0  0.86610  0.25310  0.36870  1.0000 0.1374491877
H   H50       1.0  0.98790  0.13130  0.63390  1.0000 0.1374491877
H   H51       1.0  0.25310  0.86610  0.51210  1.0000 0.1374491877
H   H52       1.0  0.13130  0.98790  0.24690  1.0000 0.1374491877
H   H53       1.0  0.24690  0.98790  0.63390  1.0000 0.1374491877
H   H54       1.0  0.51210  0.36870  0.25310  1.0000 0.1374491877
H   H55       1.0  0.13130  0.63390  0.98790  1.0000 0.1374491877
H   H56       1.0  0.24690  0.13130  0.98790  1.0000 0.1374491877
H   H57       1.0  0.36870  0.51210  0.86610  1.0000 0.1374491877
H   H58       1.0  0.98790  0.63390  0.24690  1.0000 0.1374491877
H   H59       1.0  0.36870  0.86610  0.25310  1.0000 0.1374491877
H   H60       1.0  0.25310  0.36870  0.86610  1.0000 0.1374491877
H   H61       1.0  0.36870  0.25310  0.51210  1.0000 0.1374491877
H   H62       1.0  0.51210  0.25310  0.86610  1.0000 0.1374491877
H   H63       1.0  0.86610  0.51210  0.25310  1.0000 0.1374491877
H   H64       1.0  0.86610  0.36870  0.51210  1.0000 0.1374491877
H   H65       1.0  0.25310  0.51210  0.36870  1.0000 0.1374491877
H   H66       1.0  0.51210  0.86610  0.36870  1.0000 0.1374491877
H   H67       1.0  0.63390  0.24690  0.98790  1.0000 0.1374491877
H   H68       1.0  0.24690  0.63390  0.13130  1.0000 0.1374491877
H   H69       1.0  0.98790  0.24690  0.13130  1.0000 0.1374491877
H   H70       1.0  0.63390  0.13130  0.24690  1.0000 0.1374491877
H   H71       1.0  0.63390  0.98790  0.13130  1.0000 0.1374491877
H   H72       1.0  0.13130  0.24690  0.63390  1.0000 0.1374491877
H   H73       1.0  0.13390  0.74690  0.63130  1.0000 0.1374491877
H   H74       1.0  0.01210  0.86870  0.36610  1.0000 0.1374491877
H   H75       1.0  0.74690  0.13390  0.48790  1.0000 0.1374491877
H   H76       1.0  0.86870  0.01210  0.75310  1.0000 0.1374491877
H   H77       1.0  0.75310  0.01210  0.36610  1.0000 0.1374491877
H   H78       1.0  0.48790  0.63130  0.74690  1.0000 0.1374491877
H   H79       1.0  0.86870  0.36610  0.01210  1.0000 0.1374491877
H   H80       1.0  0.75310  0.86870  0.01210  1.0000 0.1374491877
H   H81       1.0  0.63130  0.48790  0.13390  1.0000 0.1374491877
H   H82       1.0  0.01210  0.36610  0.75310  1.0000 0.1374491877
H   H83       1.0  0.63130  0.13390  0.74690  1.0000 0.1374491877
H   H84       1.0  0.74690  0.63130  0.13390  1.0000 0.1374491877
H   H85       1.0  0.63130  0.74690  0.48790  1.0000 0.1374491877
H   H86       1.0  0.48790  0.74690  0.13390  1.0000 0.1374491877
H   H87       1.0  0.13390  0.48790  0.74690  1.0000 0.1374491877
H   H88       1.0  0.13390  0.63130  0.48790  1.0000 0.1374491877
H   H89       1.0  0.74690  0.48790  0.63130  1.0000 0.1374491877
H   H90       1.0  0.48790  0.13390  0.63130  1.0000 0.1374491877
H   H91       1.0  0.36610  0.75310  0.01210  1.0000 0.1374491877
H   H92       1.0  0.75310  0.36610  0.86870  1.0000 0.1374491877
H   H93       1.0  0.01210  0.75310  0.86870  1.0000 0.1374491877
H   H94       1.0  0.36610  0.86870  0.75310  1.0000 0.1374491877
H   H95       1.0  0.36610  0.01210  0.86870  1.0000 0.1374491877
H   H96       1.0  0.86870  0.75310  0.36610  1.0000 0.1374491877
H   H97       1.0  0.75540  0.36060  0.36800  1.0000 0.1374491877
H   H98       1.0  0.98400  0.13200  0.74460  1.0000 0.1374491877
H   H99       1.0  0.36060  0.75540  0.51600  1.0000 0.1374491877
H   H100      1.0  0.13200  0.98400  0.13940  1.0000 0.1374491877
H   H101      1.0  0.13940  0.98400  0.74460  1.0000 0.1374491877
H   H102      1.0  0.51600  0.36800  0.36060  1.0000 0.1374491877
H   H103      1.0  0.13200  0.74460  0.98400  1.0000 0.1374491877
H   H104      1.0  0.13940  0.13200  0.98400  1.0000 0.1374491877
H   H105      1.0  0.36800  0.51600  0.75540  1.0000 0.1374491877
H   H106      1.0  0.98400  0.74460  0.13940  1.0000 0.1374491877
H   H107      1.0  0.36800  0.75540  0.36060  1.0000 0.1374491877
H   H108      1.0  0.36060  0.36800  0.75540  1.0000 0.1374491877
H   H109      1.0  0.36800  0.36060  0.51600  1.0000 0.1374491877
H   H110      1.0  0.51600  0.36060  0.75540  1.0000 0.1374491877
H   H111      1.0  0.75540  0.51600  0.36060  1.0000 0.1374491877
H   H112      1.0  0.75540  0.36800  0.51600  1.0000 0.1374491877
H   H113      1.0  0.36060  0.51600  0.36800  1.0000 0.1374491877
H   H114      1.0  0.51600  0.75540  0.36800  1.0000 0.1374491877
H   H115      1.0  0.74460  0.13940  0.98400  1.0000 0.1374491877
H   H116      1.0  0.13940  0.74460  0.13200  1.0000 0.1374491877
H   H117      1.0  0.98400  0.13940  0.13200  1.0000 0.1374491877
H   H118      1.0  0.74460  0.13200  0.13940  1.0000 0.1374491877
H   H119      1.0  0.74460  0.98400  0.13200  1.0000 0.1374491877
H   H120      1.0  0.13200  0.13940  0.74460  1.0000 0.1374491877
H   H121      1.0  0.24460  0.63940  0.63200  1.0000 0.1374491877
H   H122      1.0  0.01600  0.86800  0.25540  1.0000 0.1374491877
H   H123      1.0  0.63940  0.24460  0.48400  1.0000 0.1374491877
H   H124      1.0  0.86800  0.01600  0.86060  1.0000 0.1374491877
H   H125      1.0  0.86060  0.01600  0.25540  1.0000 0.1374491877
H   H126      1.0  0.48400  0.63200  0.63940  1.0000 0.1374491877
H   H127      1.0  0.86800  0.25540  0.01600  1.0000 0.1374491877
H   H128      1.0  0.86060  0.86800  0.01600  1.0000 0.1374491877
H   H129      1.0  0.63200  0.48400  0.24460  1.0000 0.1374491877
H   H130      1.0  0.01600  0.25540  0.86060  1.0000 0.1374491877
H   H131      1.0  0.63200  0.24460  0.63940  1.0000 0.1374491877
H   H132      1.0  0.63940  0.63200  0.24460  1.0000 0.1374491877
H   H133      1.0  0.63200  0.63940  0.48400  1.0000 0.1374491877
H   H134      1.0  0.48400  0.63940  0.24460  1.0000 0.1374491877
H   H135      1.0  0.24460  0.48400  0.63940  1.0000 0.1374491877
H   H136      1.0  0.24460  0.63200  0.48400  1.0000 0.1374491877
H   H137      1.0  0.63940  0.48400  0.63200  1.0000 0.1374491877
H   H138      1.0  0.48400  0.24460  0.63200  1.0000 0.1374491877
H   H139      1.0  0.25540  0.86060  0.01600  1.0000 0.1374491877
H   H140      1.0  0.86060  0.25540  0.86800  1.0000 0.1374491877
H   H141      1.0  0.01600  0.86060  0.86800  1.0000 0.1374491877
H   H142      1.0  0.25540  0.86800  0.86060  1.0000 0.1374491877
H   H143      1.0  0.25540  0.01600  0.86800  1.0000 0.1374491877
H   H144      1.0  0.86800  0.86060  0.25540  1.0000 0.1374491877
H   H145      1.0  0.01820  0.36240  0.25440  1.0000 0.1374491877
H   H146      1.0  0.13500  0.24560  0.48180  1.0000 0.1374491877
H   H147      1.0  0.36240  0.01820  0.36500  1.0000 0.1374491877
H   H148      1.0  0.24560  0.13500  0.13760  1.0000 0.1374491877
H   H149      1.0  0.13760  0.13500  0.48180  1.0000 0.1374491877
H   H150      1.0  0.36500  0.25440  0.36240  1.0000 0.1374491877
H   H151      1.0  0.24560  0.48180  0.13500  1.0000 0.1374491877
H   H152      1.0  0.13760  0.24560  0.13500  1.0000 0.1374491877
H   H153      1.0  0.25440  0.36500  0.01820  1.0000 0.1374491877
H   H154      1.0  0.13500  0.48180  0.13760  1.0000 0.1374491877
H   H155      1.0  0.25440  0.01820  0.36240  1.0000 0.1374491877
H   H156      1.0  0.36240  0.25440  0.01820  1.0000 0.1374491877
H   H157      1.0  0.25440  0.36240  0.36500  1.0000 0.1374491877
H   H158      1.0  0.36500  0.36240  0.01820  1.0000 0.1374491877
H   H159      1.0  0.01820  0.36500  0.36240  1.0000 0.1374491877
H   H160      1.0  0.01820  0.25440  0.36500  1.0000 0.1374491877
H   H161      1.0  0.36240  0.36500  0.25440  1.0000 0.1374491877
H   H162      1.0  0.36500  0.01820  0.25440  1.0000 0.1374491877
H   H163      1.0  0.48180  0.13760  0.13500  1.0000 0.1374491877
H   H164      1.0  0.13760  0.48180  0.24560  1.0000 0.1374491877
H   H165      1.0  0.13500  0.13760  0.24560  1.0000 0.1374491877
H   H166      1.0  0.48180  0.24560  0.13760  1.0000 0.1374491877
H   H167      1.0  0.48180  0.13500  0.24560  1.0000 0.1374491877
H   H168      1.0  0.24560  0.13760  0.48180  1.0000 0.1374491877
H   H169      1.0  0.98180  0.63760  0.74560  1.0000 0.1374491877
H   H170      1.0  0.86500  0.75440  0.51820  1.0000 0.1374491877
H   H171      1.0  0.63760  0.98180  0.63500  1.0000 0.1374491877
H   H172      1.0  0.75440  0.86500  0.86240  1.0000 0.1374491877
H   H173      1.0  0.86240  0.86500  0.51820  1.0000 0.1374491877
H   H174      1.0  0.63500  0.74560  0.63760  1.0000 0.1374491877
H   H175      1.0  0.75440  0.51820  0.86500  1.0000 0.1374491877
H   H176      1.0  0.86240  0.75440  0.86500  1.0000 0.1374491877
H   H177      1.0  0.74560  0.63500  0.98180  1.0000 0.1374491877
H   H178      1.0  0.86500  0.51820  0.86240  1.0000 0.1374491877
H   H179      1.0  0.74560  0.98180  0.63760  1.0000 0.1374491877
H   H180      1.0  0.63760  0.74560  0.98180  1.0000 0.1374491877
H   H181      1.0  0.74560  0.63760  0.63500  1.0000 0.1374491877
H   H182      1.0  0.63500  0.63760  0.98180  1.0000 0.1374491877
H   H183      1.0  0.98180  0.63500  0.63760  1.0000 0.1374491877
H   H184      1.0  0.98180  0.74560  0.63500  1.0000 0.1374491877
H   H185      1.0  0.63760  0.63500  0.74560  1.0000 0.1374491877
H   H186      1.0  0.63500  0.98180  0.74560  1.0000 0.1374491877
H   H187      1.0  0.51820  0.86240  0.86500  1.0000 0.1374491877
H   H188      1.0  0.86240  0.51820  0.75440  1.0000 0.1374491877
H   H189      1.0  0.86500  0.86240  0.75440  1.0000 0.1374491877
H   H190      1.0  0.51820  0.75440  0.86240  1.0000 0.1374491877
H   H191      1.0  0.51820  0.86500  0.75440  1.0000 0.1374491877
H   H192      1.0  0.75440  0.86240  0.51820  1.0000 0.1374491877
C   C1        1.0  0.78365  0.41435  0.28649  1.0000 0.5803649052
C   C2        1.0  0.98449  0.21351  0.71635  1.0000 0.5803649052
C   C3        1.0  0.41435  0.78365  0.51551  1.0000 0.5803649052
C   C4        1.0  0.21351  0.98449  0.08565  1.0000 0.5803649052
C   C5        1.0  0.08565  0.98449  0.71635  1.0000 0.5803649052
C   C6        1.0  0.51551  0.28649  0.41435  1.0000 0.5803649052
C   C7        1.0  0.21351  0.71635  0.98449  1.0000 0.5803649052
C   C8        1.0  0.08565  0.21351  0.98449  1.0000 0.5803649052
C   C9        1.0  0.28649  0.51551  0.78365  1.0000 0.5803649052
C   C10       1.0  0.98449  0.71635  0.08565  1.0000 0.5803649052
C   C11       1.0  0.28649  0.78365  0.41435  1.0000 0.5803649052
C   C12       1.0  0.41435  0.28649  0.78365  1.0000 0.5803649052
C   C13       1.0  0.28649  0.41435  0.51551  1.0000 0.5803649052
C   C14       1.0  0.51551  0.41435  0.78365  1.0000 0.5803649052
C   C15       1.0  0.78365  0.51551  0.41435  1.0000 0.5803649052
C   C16       1.0  0.78365  0.28649  0.51551  1.0000 0.5803649052
C   C17       1.0  0.41435  0.51551  0.28649  1.0000 0.5803649052
C   C18       1.0  0.51551  0.78365  0.28649  1.0000 0.5803649052
C   C19       1.0  0.71635  0.08565  0.98449  1.0000 0.5803649052
C   C20       1.0  0.08565  0.71635  0.21351  1.0000 0.5803649052
C   C21       1.0  0.98449  0.08565  0.21351  1.0000 0.5803649052
C   C22       1.0  0.71635  0.21351  0.08565  1.0000 0.5803649052
C   C23       1.0  0.71635  0.98449  0.21351  1.0000 0.5803649052
C   C24       1.0  0.21351  0.08565  0.71635  1.0000 0.5803649052
C   C25       1.0  0.21635  0.58565  0.71351  1.0000 0.5803649052
C   C26       1.0  0.01551  0.78649  0.28365  1.0000 0.5803649052
C   C27       1.0  0.58565  0.21635  0.48449  1.0000 0.5803649052
C   C28       1.0  0.78649  0.01551  0.91435  1.0000 0.5803649052
C   C29       1.0  0.91435  0.01551  0.28365  1.0000 0.5803649052
C   C30       1.0  0.48449  0.71351  0.58565  1.0000 0.5803649052
C   C31       1.0  0.78649  0.28365  0.01551  1.0000 0.5803649052
C   C32       1.0  0.91435  0.78649  0.01551  1.0000 0.5803649052
C   C33       1.0  0.71351  0.48449  0.21635  1.0000 0.5803649052
C   C34       1.0  0.01551  0.28365  0.91435  1.0000 0.5803649052
C   C35       1.0  0.71351  0.21635  0.58565  1.0000 0.5803649052
C   C36       1.0  0.58565  0.71351  0.21635  1.0000 0.5803649052
C   C37       1.0  0.71351  0.58565  0.48449  1.0000 0.5803649052
C   C38       1.0  0.48449  0.58565  0.21635  1.0000 0.5803649052
C   C39       1.0  0.21635  0.48449  0.58565  1.0000 0.5803649052
C   C40       1.0  0.21635  0.71351  0.48449  1.0000 0.5803649052
C   C41       1.0  0.58565  0.48449  0.71351  1.0000 0.5803649052
C   C42       1.0  0.48449  0.21635  0.71351  1.0000 0.5803649052
C   C43       1.0  0.28365  0.91435  0.01551  1.0000 0.5803649052
C   C44       1.0  0.91435  0.28365  0.78649  1.0000 0.5803649052
C   C45       1.0  0.01551  0.91435  0.78649  1.0000 0.5803649052
C   C46       1.0  0.28365  0.78649  0.91435  1.0000 0.5803649052
C   C47       1.0  0.28365  0.01551  0.78649  1.0000 0.5803649052
C   C48       1.0  0.78649  0.91435  0.28365  1.0000 0.5803649052
C   C49       1.0  0.80642  0.36736  0.30938  1.0000 -0.0310610358
C   C50       1.0  0.98316  0.19062  0.69358  1.0000 -0.0310610358
C   C51       1.0  0.36736  0.80642  0.51684  1.0000 -0.0310610358
C   C52       1.0  0.19062  0.98316  0.13264  1.0000 -0.0310610358
C   C53       1.0  0.13264  0.98316  0.69358  1.0000 -0.0310610358
C   C54       1.0  0.51684  0.30938  0.36736  1.0000 -0.0310610358
C   C55       1.0  0.19062  0.69358  0.98316  1.0000 -0.0310610358
C   C56       1.0  0.13264  0.19062  0.98316  1.0000 -0.0310610358
C   C57       1.0  0.30938  0.51684  0.80642  1.0000 -0.0310610358
C   C58       1.0  0.98316  0.69358  0.13264  1.0000 -0.0310610358
C   C59       1.0  0.30938  0.80642  0.36736  1.0000 -0.0310610358
C   C60       1.0  0.36736  0.30938  0.80642  1.0000 -0.0310610358
C   C61       1.0  0.30938  0.36736  0.51684  1.0000 -0.0310610358
C   C62       1.0  0.51684  0.36736  0.80642  1.0000 -0.0310610358
C   C63       1.0  0.80642  0.51684  0.36736  1.0000 -0.0310610358
C   C64       1.0  0.80642  0.30938  0.51684  1.0000 -0.0310610358
C   C65       1.0  0.36736  0.51684  0.30938  1.0000 -0.0310610358
C   C66       1.0  0.51684  0.80642  0.30938  1.0000 -0.0310610358
C   C67       1.0  0.69358  0.13264  0.98316  1.0000 -0.0310610358
C   C68       1.0  0.13264  0.69358  0.19062  1.0000 -0.0310610358
C   C69       1.0  0.98316  0.13264  0.19062  1.0000 -0.0310610358
C   C70       1.0  0.69358  0.19062  0.13264  1.0000 -0.0310610358
C   C71       1.0  0.69358  0.98316  0.19062  1.0000 -0.0310610358
C   C72       1.0  0.19062  0.13264  0.69358  1.0000 -0.0310610358
C   C73       1.0  0.19358  0.63264  0.69062  1.0000 -0.0310610358
C   C74       1.0  0.01684  0.80938  0.30642  1.0000 -0.0310610358
C   C75       1.0  0.63264  0.19358  0.48316  1.0000 -0.0310610358
C   C76       1.0  0.80938  0.01684  0.86736  1.0000 -0.0310610358
C   C77       1.0  0.86736  0.01684  0.30642  1.0000 -0.0310610358
C   C78       1.0  0.48316  0.69062  0.63264  1.0000 -0.0310610358
C   C79       1.0  0.80938  0.30642  0.01684  1.0000 -0.0310610358
C   C80       1.0  0.86736  0.80938  0.01684  1.0000 -0.0310610358
C   C81       1.0  0.69062  0.48316  0.19358  1.0000 -0.0310610358
C   C82       1.0  0.01684  0.30642  0.86736  1.0000 -0.0310610358
C   C83       1.0  0.69062  0.19358  0.63264  1.0000 -0.0310610358
C   C84       1.0  0.63264  0.69062  0.19358  1.0000 -0.0310610358
C   C85       1.0  0.69062  0.63264  0.48316  1.0000 -0.0310610358
C   C86       1.0  0.48316  0.63264  0.19358  1.0000 -0.0310610358
C   C87       1.0  0.19358  0.48316  0.63264  1.0000 -0.0310610358
C   C88       1.0  0.19358  0.69062  0.48316  1.0000 -0.0310610358
C   C89       1.0  0.63264  0.48316  0.69062  1.0000 -0.0310610358
C   C90       1.0  0.48316  0.19358  0.69062  1.0000 -0.0310610358
C   C91       1.0  0.30642  0.86736  0.01684  1.0000 -0.0310610358
C   C92       1.0  0.86736  0.30642  0.80938  1.0000 -0.0310610358
C   C93       1.0  0.01684  0.86736  0.80938  1.0000 -0.0310610358
C   C94       1.0  0.30642  0.80938  0.86736  1.0000 -0.0310610358
C   C95       1.0  0.30642  0.01684  0.80938  1.0000 -0.0310610358
C   C96       1.0  0.80938  0.86736  0.30642  1.0000 -0.0310610358
C   C97       1.0  0.84931  0.34625  0.28779  1.0000 -0.0873844788
C   C98       1.0  0.98335  0.21221  0.65069  1.0000 -0.0873844788
C   C99       1.0  0.34625  0.84931  0.51665  1.0000 -0.0873844788
C   C100      1.0  0.21221  0.98335  0.15375  1.0000 -0.0873844788
C   C101      1.0  0.15375  0.98335  0.65069  1.0000 -0.0873844788
C   C102      1.0  0.51665  0.28779  0.34625  1.0000 -0.0873844788
C   C103      1.0  0.21221  0.65069  0.98335  1.0000 -0.0873844788
C   C104      1.0  0.15375  0.21221  0.98335  1.0000 -0.0873844788
C   C105      1.0  0.28779  0.51665  0.84931  1.0000 -0.0873844788
C   C106      1.0  0.98335  0.65069  0.15375  1.0000 -0.0873844788
C   C107      1.0  0.28779  0.84931  0.34625  1.0000 -0.0873844788
C   C108      1.0  0.34625  0.28779  0.84931  1.0000 -0.0873844788
C   C109      1.0  0.28779  0.34625  0.51665  1.0000 -0.0873844788
C   C110      1.0  0.51665  0.34625  0.84931  1.0000 -0.0873844788
C   C111      1.0  0.84931  0.51665  0.34625  1.0000 -0.0873844788
C   C112      1.0  0.84931  0.28779  0.51665  1.0000 -0.0873844788
C   C113      1.0  0.34625  0.51665  0.28779  1.0000 -0.0873844788
C   C114      1.0  0.51665  0.84931  0.28779  1.0000 -0.0873844788
C   C115      1.0  0.65069  0.15375  0.98335  1.0000 -0.0873844788
C   C116      1.0  0.15375  0.65069  0.21221  1.0000 -0.0873844788
C   C117      1.0  0.98335  0.15375  0.21221  1.0000 -0.0873844788
C   C118      1.0  0.65069  0.21221  0.15375  1.0000 -0.0873844788
C   C119      1.0  0.65069  0.98335  0.21221  1.0000 -0.0873844788
C   C120      1.0  0.21221  0.15375  0.65069  1.0000 -0.0873844788
C   C121      1.0  0.15069  0.65375  0.71221  1.0000 -0.0873844788
C   C122      1.0  0.01665  0.78779  0.34931  1.0000 -0.0873844788
C   C123      1.0  0.65375  0.15069  0.48335  1.0000 -0.0873844788
C   C124      1.0  0.78779  0.01665  0.84625  1.0000 -0.0873844788
C   C125      1.0  0.84625  0.01665  0.34931  1.0000 -0.0873844788
C   C126      1.0  0.48335  0.71221  0.65375  1.0000 -0.0873844788
C   C127      1.0  0.78779  0.34931  0.01665  1.0000 -0.0873844788
C   C128      1.0  0.84625  0.78779  0.01665  1.0000 -0.0873844788
C   C129      1.0  0.71221  0.48335  0.15069  1.0000 -0.0873844788
C   C130      1.0  0.01665  0.34931  0.84625  1.0000 -0.0873844788
C   C131      1.0  0.71221  0.15069  0.65375  1.0000 -0.0873844788
C   C132      1.0  0.65375  0.71221  0.15069  1.0000 -0.0873844788
C   C133      1.0  0.71221  0.65375  0.48335  1.0000 -0.0873844788
C   C134      1.0  0.48335  0.65375  0.15069  1.0000 -0.0873844788
C   C135      1.0  0.15069  0.48335  0.65375  1.0000 -0.0873844788
C   C136      1.0  0.15069  0.71221  0.48335  1.0000 -0.0873844788
C   C137      1.0  0.65375  0.48335  0.71221  1.0000 -0.0873844788
C   C138      1.0  0.48335  0.15069  0.71221  1.0000 -0.0873844788
C   C139      1.0  0.34931  0.84625  0.01665  1.0000 -0.0873844788
C   C140      1.0  0.84625  0.34931  0.78779  1.0000 -0.0873844788
C   C141      1.0  0.01665  0.84625  0.78779  1.0000 -0.0873844788
C   C142      1.0  0.34931  0.78779  0.84625  1.0000 -0.0873844788
C   C143      1.0  0.34931  0.01665  0.78779  1.0000 -0.0873844788
C   C144      1.0  0.78779  0.84625  0.34931  1.0000 -0.0873844788
C   C145      1.0  0.87125  0.30315  0.30989  1.0000 -0.0221729047
C   C146      1.0  0.98429  0.19011  0.62875  1.0000 -0.0221729047
C   C147      1.0  0.30315  0.87125  0.51571  1.0000 -0.0221729047
C   C148      1.0  0.19011  0.98429  0.19685  1.0000 -0.0221729047
C   C149      1.0  0.19685  0.98429  0.62875  1.0000 -0.0221729047
C   C150      1.0  0.51571  0.30989  0.30315  1.0000 -0.0221729047
C   C151      1.0  0.19011  0.62875  0.98429  1.0000 -0.0221729047
C   C152      1.0  0.19685  0.19011  0.98429  1.0000 -0.0221729047
C   C153      1.0  0.30989  0.51571  0.87125  1.0000 -0.0221729047
C   C154      1.0  0.98429  0.62875  0.19685  1.0000 -0.0221729047
C   C155      1.0  0.30989  0.87125  0.30315  1.0000 -0.0221729047
C   C156      1.0  0.30315  0.30989  0.87125  1.0000 -0.0221729047
C   C157      1.0  0.30989  0.30315  0.51571  1.0000 -0.0221729047
C   C158      1.0  0.51571  0.30315  0.87125  1.0000 -0.0221729047
C   C159      1.0  0.87125  0.51571  0.30315  1.0000 -0.0221729047
C   C160      1.0  0.87125  0.30989  0.51571  1.0000 -0.0221729047
C   C161      1.0  0.30315  0.51571  0.30989  1.0000 -0.0221729047
C   C162      1.0  0.51571  0.87125  0.30989  1.0000 -0.0221729047
C   C163      1.0  0.62875  0.19685  0.98429  1.0000 -0.0221729047
C   C164      1.0  0.19685  0.62875  0.19011  1.0000 -0.0221729047
C   C165      1.0  0.98429  0.19685  0.19011  1.0000 -0.0221729047
C   C166      1.0  0.62875  0.19011  0.19685  1.0000 -0.0221729047
C   C167      1.0  0.62875  0.98429  0.19011  1.0000 -0.0221729047
C   C168      1.0  0.19011  0.19685  0.62875  1.0000 -0.0221729047
C   C169      1.0  0.12875  0.69685  0.69011  1.0000 -0.0221729047
C   C170      1.0  0.01571  0.80989  0.37125  1.0000 -0.0221729047
C   C171      1.0  0.69685  0.12875  0.48429  1.0000 -0.0221729047
C   C172      1.0  0.80989  0.01571  0.80315  1.0000 -0.0221729047
C   C173      1.0  0.80315  0.01571  0.37125  1.0000 -0.0221729047
C   C174      1.0  0.48429  0.69011  0.69685  1.0000 -0.0221729047
C   C175      1.0  0.80989  0.37125  0.01571  1.0000 -0.0221729047
C   C176      1.0  0.80315  0.80989  0.01571  1.0000 -0.0221729047
C   C177      1.0  0.69011  0.48429  0.12875  1.0000 -0.0221729047
C   C178      1.0  0.01571  0.37125  0.80315  1.0000 -0.0221729047
C   C179      1.0  0.69011  0.12875  0.69685  1.0000 -0.0221729047
C   C180      1.0  0.69685  0.69011  0.12875  1.0000 -0.0221729047
C   C181      1.0  0.69011  0.69685  0.48429  1.0000 -0.0221729047
C   C182      1.0  0.48429  0.69685  0.12875  1.0000 -0.0221729047
C   C183      1.0  0.12875  0.48429  0.69685  1.0000 -0.0221729047
C   C184      1.0  0.12875  0.69011  0.48429  1.0000 -0.0221729047
C   C185      1.0  0.69685  0.48429  0.69011  1.0000 -0.0221729047
C   C186      1.0  0.48429  0.12875  0.69011  1.0000 -0.0221729047
C   C187      1.0  0.37125  0.80315  0.01571  1.0000 -0.0221729047
C   C188      1.0  0.80315  0.37125  0.80989  1.0000 -0.0221729047
C   C189      1.0  0.01571  0.80315  0.80989  1.0000 -0.0221729047
C   C190      1.0  0.37125  0.80989  0.80315  1.0000 -0.0221729047
C   C191      1.0  0.37125  0.01571  0.80989  1.0000 -0.0221729047
C   C192      1.0  0.80989  0.80315  0.37125  1.0000 -0.0221729047
C   C193      1.0  0.85065  0.28209  0.35373  1.0000 -0.0873844788
C   C194      1.0  0.98647  0.14627  0.64935  1.0000 -0.0873844788
C   C195      1.0  0.28209  0.85065  0.51353  1.0000 -0.0873844788
C   C196      1.0  0.14627  0.98647  0.21791  1.0000 -0.0873844788
C   C197      1.0  0.21791  0.98647  0.64935  1.0000 -0.0873844788
C   C198      1.0  0.51353  0.35373  0.28209  1.0000 -0.0873844788
C   C199      1.0  0.14627  0.64935  0.98647  1.0000 -0.0873844788
C   C200      1.0  0.21791  0.14627  0.98647  1.0000 -0.0873844788
C   C201      1.0  0.35373  0.51353  0.85065  1.0000 -0.0873844788
C   C202      1.0  0.98647  0.64935  0.21791  1.0000 -0.0873844788
C   C203      1.0  0.35373  0.85065  0.28209  1.0000 -0.0873844788
C   C204      1.0  0.28209  0.35373  0.85065  1.0000 -0.0873844788
C   C205      1.0  0.35373  0.28209  0.51353  1.0000 -0.0873844788
C   C206      1.0  0.51353  0.28209  0.85065  1.0000 -0.0873844788
C   C207      1.0  0.85065  0.51353  0.28209  1.0000 -0.0873844788
C   C208      1.0  0.85065  0.35373  0.51353  1.0000 -0.0873844788
C   C209      1.0  0.28209  0.51353  0.35373  1.0000 -0.0873844788
C   C210      1.0  0.51353  0.85065  0.35373  1.0000 -0.0873844788
C   C211      1.0  0.64935  0.21791  0.98647  1.0000 -0.0873844788
C   C212      1.0  0.21791  0.64935  0.14627  1.0000 -0.0873844788
C   C213      1.0  0.98647  0.21791  0.14627  1.0000 -0.0873844788
C   C214      1.0  0.64935  0.14627  0.21791  1.0000 -0.0873844788
C   C215      1.0  0.64935  0.98647  0.14627  1.0000 -0.0873844788
C   C216      1.0  0.14627  0.21791  0.64935  1.0000 -0.0873844788
C   C217      1.0  0.14935  0.71791  0.64627  1.0000 -0.0873844788
C   C218      1.0  0.01353  0.85373  0.35065  1.0000 -0.0873844788
C   C219      1.0  0.71791  0.14935  0.48647  1.0000 -0.0873844788
C   C220      1.0  0.85373  0.01353  0.78209  1.0000 -0.0873844788
C   C221      1.0  0.78209  0.01353  0.35065  1.0000 -0.0873844788
C   C222      1.0  0.48647  0.64627  0.71791  1.0000 -0.0873844788
C   C223      1.0  0.85373  0.35065  0.01353  1.0000 -0.0873844788
C   C224      1.0  0.78209  0.85373  0.01353  1.0000 -0.0873844788
C   C225      1.0  0.64627  0.48647  0.14935  1.0000 -0.0873844788
C   C226      1.0  0.01353  0.35065  0.78209  1.0000 -0.0873844788
C   C227      1.0  0.64627  0.14935  0.71791  1.0000 -0.0873844788
C   C228      1.0  0.71791  0.64627  0.14935  1.0000 -0.0873844788
C   C229      1.0  0.64627  0.71791  0.48647  1.0000 -0.0873844788
C   C230      1.0  0.48647  0.71791  0.14935  1.0000 -0.0873844788
C   C231      1.0  0.14935  0.48647  0.71791  1.0000 -0.0873844788
C   C232      1.0  0.14935  0.64627  0.48647  1.0000 -0.0873844788
C   C233      1.0  0.71791  0.48647  0.64627  1.0000 -0.0873844788
C   C234      1.0  0.48647  0.14935  0.64627  1.0000 -0.0873844788
C   C235      1.0  0.35065  0.78209  0.01353  1.0000 -0.0873844788
C   C236      1.0  0.78209  0.35065  0.85373  1.0000 -0.0873844788
C   C237      1.0  0.01353  0.78209  0.85373  1.0000 -0.0873844788
C   C238      1.0  0.35065  0.85373  0.78209  1.0000 -0.0873844788
C   C239      1.0  0.35065  0.01353  0.85373  1.0000 -0.0873844788
C   C240      1.0  0.85373  0.78209  0.35065  1.0000 -0.0873844788
C   C241      1.0  0.80779  0.30307  0.37561  1.0000 -0.0310610358
C   C242      1.0  0.98647  0.12439  0.69221  1.0000 -0.0310610358
C   C243      1.0  0.30307  0.80779  0.51353  1.0000 -0.0310610358
C   C244      1.0  0.12439  0.98647  0.19693  1.0000 -0.0310610358
C   C245      1.0  0.19693  0.98647  0.69221  1.0000 -0.0310610358
C   C246      1.0  0.51353  0.37561  0.30307  1.0000 -0.0310610358
C   C247      1.0  0.12439  0.69221  0.98647  1.0000 -0.0310610358
C   C248      1.0  0.19693  0.12439  0.98647  1.0000 -0.0310610358
C   C249      1.0  0.37561  0.51353  0.80779  1.0000 -0.0310610358
C   C250      1.0  0.98647  0.69221  0.19693  1.0000 -0.0310610358
C   C251      1.0  0.37561  0.80779  0.30307  1.0000 -0.0310610358
C   C252      1.0  0.30307  0.37561  0.80779  1.0000 -0.0310610358
C   C253      1.0  0.37561  0.30307  0.51353  1.0000 -0.0310610358
C   C254      1.0  0.51353  0.30307  0.80779  1.0000 -0.0310610358
C   C255      1.0  0.80779  0.51353  0.30307  1.0000 -0.0310610358
C   C256      1.0  0.80779  0.37561  0.51353  1.0000 -0.0310610358
C   C257      1.0  0.30307  0.51353  0.37561  1.0000 -0.0310610358
C   C258      1.0  0.51353  0.80779  0.37561  1.0000 -0.0310610358
C   C259      1.0  0.69221  0.19693  0.98647  1.0000 -0.0310610358
C   C260      1.0  0.19693  0.69221  0.12439  1.0000 -0.0310610358
C   C261      1.0  0.98647  0.19693  0.12439  1.0000 -0.0310610358
C   C262      1.0  0.69221  0.12439  0.19693  1.0000 -0.0310610358
C   C263      1.0  0.69221  0.98647  0.12439  1.0000 -0.0310610358
C   C264      1.0  0.12439  0.19693  0.69221  1.0000 -0.0310610358
C   C265      1.0  0.19221  0.69693  0.62439  1.0000 -0.0310610358
C   C266      1.0  0.01353  0.87561  0.30779  1.0000 -0.0310610358
C   C267      1.0  0.69693  0.19221  0.48647  1.0000 -0.0310610358
C   C268      1.0  0.87561  0.01353  0.80307  1.0000 -0.0310610358
C   C269      1.0  0.80307  0.01353  0.30779  1.0000 -0.0310610358
C   C270      1.0  0.48647  0.62439  0.69693  1.0000 -0.0310610358
C   C271      1.0  0.87561  0.30779  0.01353  1.0000 -0.0310610358
C   C272      1.0  0.80307  0.87561  0.01353  1.0000 -0.0310610358
C   C273      1.0  0.62439  0.48647  0.19221  1.0000 -0.0310610358
C   C274      1.0  0.01353  0.30779  0.80307  1.0000 -0.0310610358
C   C275      1.0  0.62439  0.19221  0.69693  1.0000 -0.0310610358
C   C276      1.0  0.69693  0.62439  0.19221  1.0000 -0.0310610358
C   C277      1.0  0.62439  0.69693  0.48647  1.0000 -0.0310610358
C   C278      1.0  0.48647  0.69693  0.19221  1.0000 -0.0310610358
C   C279      1.0  0.19221  0.48647  0.69693  1.0000 -0.0310610358
C   C280      1.0  0.19221  0.62439  0.48647  1.0000 -0.0310610358
C   C281      1.0  0.69693  0.48647  0.62439  1.0000 -0.0310610358
C   C282      1.0  0.48647  0.19221  0.62439  1.0000 -0.0310610358
C   C283      1.0  0.30779  0.80307  0.01353  1.0000 -0.0310610358
C   C284      1.0  0.80307  0.30779  0.87561  1.0000 -0.0310610358
C   C285      1.0  0.01353  0.80307  0.87561  1.0000 -0.0310610358
C   C286      1.0  0.30779  0.87561  0.80307  1.0000 -0.0310610358
C   C287      1.0  0.30779  0.01353  0.87561  1.0000 -0.0310610358
C   C288      1.0  0.87561  0.80307  0.30779  1.0000 -0.0310610358
C   C289      1.0  0.78502  0.34608  0.35336  1.0000 -0.0873844788
C   C290      1.0  0.98446  0.14664  0.71498  1.0000 -0.0873844788
C   C291      1.0  0.34608  0.78502  0.51554  1.0000 -0.0873844788
C   C292      1.0  0.14664  0.98446  0.15392  1.0000 -0.0873844788
C   C293      1.0  0.15392  0.98446  0.71498  1.0000 -0.0873844788
C   C294      1.0  0.51554  0.35336  0.34608  1.0000 -0.0873844788
C   C295      1.0  0.14664  0.71498  0.98446  1.0000 -0.0873844788
C   C296      1.0  0.15392  0.14664  0.98446  1.0000 -0.0873844788
C   C297      1.0  0.35336  0.51554  0.78502  1.0000 -0.0873844788
C   C298      1.0  0.98446  0.71498  0.15392  1.0000 -0.0873844788
C   C299      1.0  0.35336  0.78502  0.34608  1.0000 -0.0873844788
C   C300      1.0  0.34608  0.35336  0.78502  1.0000 -0.0873844788
C   C301      1.0  0.35336  0.34608  0.51554  1.0000 -0.0873844788
C   C302      1.0  0.51554  0.34608  0.78502  1.0000 -0.0873844788
C   C303      1.0  0.78502  0.51554  0.34608  1.0000 -0.0873844788
C   C304      1.0  0.78502  0.35336  0.51554  1.0000 -0.0873844788
C   C305      1.0  0.34608  0.51554  0.35336  1.0000 -0.0873844788
C   C306      1.0  0.51554  0.78502  0.35336  1.0000 -0.0873844788
C   C307      1.0  0.71498  0.15392  0.98446  1.0000 -0.0873844788
C   C308      1.0  0.15392  0.71498  0.14664  1.0000 -0.0873844788
C   C309      1.0  0.98446  0.15392  0.14664  1.0000 -0.0873844788
C   C310      1.0  0.71498  0.14664  0.15392  1.0000 -0.0873844788
C   C311      1.0  0.71498  0.98446  0.14664  1.0000 -0.0873844788
C   C312      1.0  0.14664  0.15392  0.71498  1.0000 -0.0873844788
C   C313      1.0  0.21498  0.65392  0.64664  1.0000 -0.0873844788
C   C314      1.0  0.01554  0.85336  0.28502  1.0000 -0.0873844788
C   C315      1.0  0.65392  0.21498  0.48446  1.0000 -0.0873844788
C   C316      1.0  0.85336  0.01554  0.84608  1.0000 -0.0873844788
C   C317      1.0  0.84608  0.01554  0.28502  1.0000 -0.0873844788
C   C318      1.0  0.48446  0.64664  0.65392  1.0000 -0.0873844788
C   C319      1.0  0.85336  0.28502  0.01554  1.0000 -0.0873844788
C   C320      1.0  0.84608  0.85336  0.01554  1.0000 -0.0873844788
C   C321      1.0  0.64664  0.48446  0.21498  1.0000 -0.0873844788
C   C322      1.0  0.01554  0.28502  0.84608  1.0000 -0.0873844788
C   C323      1.0  0.64664  0.21498  0.65392  1.0000 -0.0873844788
C   C324      1.0  0.65392  0.64664  0.21498  1.0000 -0.0873844788
C   C325      1.0  0.64664  0.65392  0.48446  1.0000 -0.0873844788
C   C326      1.0  0.48446  0.65392  0.21498  1.0000 -0.0873844788
C   C327      1.0  0.21498  0.48446  0.65392  1.0000 -0.0873844788
C   C328      1.0  0.21498  0.64664  0.48446  1.0000 -0.0873844788
C   C329      1.0  0.65392  0.48446  0.64664  1.0000 -0.0873844788
C   C330      1.0  0.48446  0.21498  0.64664  1.0000 -0.0873844788
C   C331      1.0  0.28502  0.84608  0.01554  1.0000 -0.0873844788
C   C332      1.0  0.84608  0.28502  0.85336  1.0000 -0.0873844788
C   C333      1.0  0.01554  0.84608  0.85336  1.0000 -0.0873844788
C   C334      1.0  0.28502  0.85336  0.84608  1.0000 -0.0873844788
C   C335      1.0  0.28502  0.01554  0.85336  1.0000 -0.0873844788
C   C336      1.0  0.85336  0.84608  0.28502  1.0000 -0.0873844788
C   C337      1.0  0.91890  0.28156  0.28734  1.0000 0.5803649052
C   C338      1.0  0.98780  0.21266  0.58110  1.0000 0.5803649052
C   C339      1.0  0.28156  0.91890  0.51220  1.0000 0.5803649052
C   C340      1.0  0.21266  0.98780  0.21844  1.0000 0.5803649052
C   C341      1.0  0.21844  0.98780  0.58110  1.0000 0.5803649052
C   C342      1.0  0.51220  0.28734  0.28156  1.0000 0.5803649052
C   C343      1.0  0.21266  0.58110  0.98780  1.0000 0.5803649052
C   C344      1.0  0.21844  0.21266  0.98780  1.0000 0.5803649052
C   C345      1.0  0.28734  0.51220  0.91890  1.0000 0.5803649052
C   C346      1.0  0.98780  0.58110  0.21844  1.0000 0.5803649052
C   C347      1.0  0.28734  0.91890  0.28156  1.0000 0.5803649052
C   C348      1.0  0.28156  0.28734  0.91890  1.0000 0.5803649052
C   C349      1.0  0.28734  0.28156  0.51220  1.0000 0.5803649052
C   C350      1.0  0.51220  0.28156  0.91890  1.0000 0.5803649052
C   C351      1.0  0.91890  0.51220  0.28156  1.0000 0.5803649052
C   C352      1.0  0.91890  0.28734  0.51220  1.0000 0.5803649052
C   C353      1.0  0.28156  0.51220  0.28734  1.0000 0.5803649052
C   C354      1.0  0.51220  0.91890  0.28734  1.0000 0.5803649052
C   C355      1.0  0.58110  0.21844  0.98780  1.0000 0.5803649052
C   C356      1.0  0.21844  0.58110  0.21266  1.0000 0.5803649052
C   C357      1.0  0.98780  0.21844  0.21266  1.0000 0.5803649052
C   C358      1.0  0.58110  0.21266  0.21844  1.0000 0.5803649052
C   C359      1.0  0.58110  0.98780  0.21266  1.0000 0.5803649052
C   C360      1.0  0.21266  0.21844  0.58110  1.0000 0.5803649052
C   C361      1.0  0.08110  0.71844  0.71266  1.0000 0.5803649052
C   C362      1.0  0.01220  0.78734  0.41890  1.0000 0.5803649052
C   C363      1.0  0.71844  0.08110  0.48780  1.0000 0.5803649052
C   C364      1.0  0.78734  0.01220  0.78156  1.0000 0.5803649052
C   C365      1.0  0.78156  0.01220  0.41890  1.0000 0.5803649052
C   C366      1.0  0.48780  0.71266  0.71844  1.0000 0.5803649052
C   C367      1.0  0.78734  0.41890  0.01220  1.0000 0.5803649052
C   C368      1.0  0.78156  0.78734  0.01220  1.0000 0.5803649052
C   C369      1.0  0.71266  0.48780  0.08110  1.0000 0.5803649052
C   C370      1.0  0.01220  0.41890  0.78156  1.0000 0.5803649052
C   C371      1.0  0.71266  0.08110  0.71844  1.0000 0.5803649052
C   C372      1.0  0.71844  0.71266  0.08110  1.0000 0.5803649052
C   C373      1.0  0.71266  0.71844  0.48780  1.0000 0.5803649052
C   C374      1.0  0.48780  0.71844  0.08110  1.0000 0.5803649052
C   C375      1.0  0.08110  0.48780  0.71844  1.0000 0.5803649052
C   C376      1.0  0.08110  0.71266  0.48780  1.0000 0.5803649052
C   C377      1.0  0.71844  0.48780  0.71266  1.0000 0.5803649052
C   C378      1.0  0.48780  0.08110  0.71266  1.0000 0.5803649052
C   C379      1.0  0.41890  0.78156  0.01220  1.0000 0.5803649052
C   C380      1.0  0.78156  0.41890  0.78734  1.0000 0.5803649052
C   C381      1.0  0.01220  0.78156  0.78734  1.0000 0.5803649052
C   C382      1.0  0.41890  0.78734  0.78156  1.0000 0.5803649052
C   C383      1.0  0.41890  0.01220  0.78734  1.0000 0.5803649052
C   C384      1.0  0.78734  0.78156  0.41890  1.0000 0.5803649052
C   C385      1.0  0.78639  0.28177  0.42361  1.0000 0.5803649052
C   C386      1.0  0.99177  0.07639  0.71361  1.0000 0.5803649052
C   C387      1.0  0.28177  0.78639  0.50823  1.0000 0.5803649052
C   C388      1.0  0.07639  0.99177  0.21823  1.0000 0.5803649052
C   C389      1.0  0.21823  0.99177  0.71361  1.0000 0.5803649052
C   C390      1.0  0.50823  0.42361  0.28177  1.0000 0.5803649052
C   C391      1.0  0.07639  0.71361  0.99177  1.0000 0.5803649052
C   C392      1.0  0.21823  0.07639  0.99177  1.0000 0.5803649052
C   C393      1.0  0.42361  0.50823  0.78639  1.0000 0.5803649052
C   C394      1.0  0.99177  0.71361  0.21823  1.0000 0.5803649052
C   C395      1.0  0.42361  0.78639  0.28177  1.0000 0.5803649052
C   C396      1.0  0.28177  0.42361  0.78639  1.0000 0.5803649052
C   C397      1.0  0.42361  0.28177  0.50823  1.0000 0.5803649052
C   C398      1.0  0.50823  0.28177  0.78639  1.0000 0.5803649052
C   C399      1.0  0.78639  0.50823  0.28177  1.0000 0.5803649052
C   C400      1.0  0.78639  0.42361  0.50823  1.0000 0.5803649052
C   C401      1.0  0.28177  0.50823  0.42361  1.0000 0.5803649052
C   C402      1.0  0.50823  0.78639  0.42361  1.0000 0.5803649052
C   C403      1.0  0.71361  0.21823  0.99177  1.0000 0.5803649052
C   C404      1.0  0.21823  0.71361  0.07639  1.0000 0.5803649052
C   C405      1.0  0.99177  0.21823  0.07639  1.0000 0.5803649052
C   C406      1.0  0.71361  0.07639  0.21823  1.0000 0.5803649052
C   C407      1.0  0.71361  0.99177  0.07639  1.0000 0.5803649052
C   C408      1.0  0.07639  0.21823  0.71361  1.0000 0.5803649052
C   C409      1.0  0.21361  0.71823  0.57639  1.0000 0.5803649052
C   C410      1.0  0.00823  0.92361  0.28639  1.0000 0.5803649052
C   C411      1.0  0.71823  0.21361  0.49177  1.0000 0.5803649052
C   C412      1.0  0.92361  0.00823  0.78177  1.0000 0.5803649052
C   C413      1.0  0.78177  0.00823  0.28639  1.0000 0.5803649052
C   C414      1.0  0.49177  0.57639  0.71823  1.0000 0.5803649052
C   C415      1.0  0.92361  0.28639  0.00823  1.0000 0.5803649052
C   C416      1.0  0.78177  0.92361  0.00823  1.0000 0.5803649052
C   C417      1.0  0.57639  0.49177  0.21361  1.0000 0.5803649052
C   C418      1.0  0.00823  0.28639  0.78177  1.0000 0.5803649052
C   C419      1.0  0.57639  0.21361  0.71823  1.0000 0.5803649052
C   C420      1.0  0.71823  0.57639  0.21361  1.0000 0.5803649052
C   C421      1.0  0.57639  0.71823  0.49177  1.0000 0.5803649052
C   C422      1.0  0.49177  0.71823  0.21361  1.0000 0.5803649052
C   C423      1.0  0.21361  0.49177  0.71823  1.0000 0.5803649052
C   C424      1.0  0.21361  0.57639  0.49177  1.0000 0.5803649052
C   C425      1.0  0.71823  0.49177  0.57639  1.0000 0.5803649052
C   C426      1.0  0.49177  0.21361  0.57639  1.0000 0.5803649052
C   C427      1.0  0.28639  0.78177  0.00823  1.0000 0.5803649052
C   C428      1.0  0.78177  0.28639  0.92361  1.0000 0.5803649052
C   C429      1.0  0.00823  0.78177  0.92361  1.0000 0.5803649052
C   C430      1.0  0.28639  0.92361  0.78177  1.0000 0.5803649052
C   C431      1.0  0.28639  0.00823  0.92361  1.0000 0.5803649052
C   C432      1.0  0.92361  0.78177  0.28639  1.0000 0.5803649052
C   C433      1.0  0.01361  0.28263  0.28505  1.0000 0.5803649052
C   C434      1.0  0.08129  0.21495  0.48639  1.0000 0.5803649052
C   C435      1.0  0.28263  0.01361  0.41871  1.0000 0.5803649052
C   C436      1.0  0.21495  0.08129  0.21737  1.0000 0.5803649052
C   C437      1.0  0.21737  0.08129  0.48639  1.0000 0.5803649052
C   C438      1.0  0.41871  0.28505  0.28263  1.0000 0.5803649052
C   C439      1.0  0.21495  0.48639  0.08129  1.0000 0.5803649052
C   C440      1.0  0.21737  0.21495  0.08129  1.0000 0.5803649052
C   C441      1.0  0.28505  0.41871  0.01361  1.0000 0.5803649052
C   C442      1.0  0.08129  0.48639  0.21737  1.0000 0.5803649052
C   C443      1.0  0.28505  0.01361  0.28263  1.0000 0.5803649052
C   C444      1.0  0.28263  0.28505  0.01361  1.0000 0.5803649052
C   C445      1.0  0.28505  0.28263  0.41871  1.0000 0.5803649052
C   C446      1.0  0.41871  0.28263  0.01361  1.0000 0.5803649052
C   C447      1.0  0.01361  0.41871  0.28263  1.0000 0.5803649052
C   C448      1.0  0.01361  0.28505  0.41871  1.0000 0.5803649052
C   C449      1.0  0.28263  0.41871  0.28505  1.0000 0.5803649052
C   C450      1.0  0.41871  0.01361  0.28505  1.0000 0.5803649052
C   C451      1.0  0.48639  0.21737  0.08129  1.0000 0.5803649052
C   C452      1.0  0.21737  0.48639  0.21495  1.0000 0.5803649052
C   C453      1.0  0.08129  0.21737  0.21495  1.0000 0.5803649052
C   C454      1.0  0.48639  0.21495  0.21737  1.0000 0.5803649052
C   C455      1.0  0.48639  0.08129  0.21495  1.0000 0.5803649052
C   C456      1.0  0.21495  0.21737  0.48639  1.0000 0.5803649052
C   C457      1.0  0.98639  0.71737  0.71495  1.0000 0.5803649052
C   C458      1.0  0.91871  0.78505  0.51361  1.0000 0.5803649052
C   C459      1.0  0.71737  0.98639  0.58129  1.0000 0.5803649052
C   C460      1.0  0.78505  0.91871  0.78263  1.0000 0.5803649052
C   C461      1.0  0.78263  0.91871  0.51361  1.0000 0.5803649052
C   C462      1.0  0.58129  0.71495  0.71737  1.0000 0.5803649052
C   C463      1.0  0.78505  0.51361  0.91871  1.0000 0.5803649052
C   C464      1.0  0.78263  0.78505  0.91871  1.0000 0.5803649052
C   C465      1.0  0.71495  0.58129  0.98639  1.0000 0.5803649052
C   C466      1.0  0.91871  0.51361  0.78263  1.0000 0.5803649052
C   C467      1.0  0.71495  0.98639  0.71737  1.0000 0.5803649052
C   C468      1.0  0.71737  0.71495  0.98639  1.0000 0.5803649052
C   C469      1.0  0.71495  0.71737  0.58129  1.0000 0.5803649052
C   C470      1.0  0.58129  0.71737  0.98639  1.0000 0.5803649052
C   C471      1.0  0.98639  0.58129  0.71737  1.0000 0.5803649052
C   C472      1.0  0.98639  0.71495  0.58129  1.0000 0.5803649052
C   C473      1.0  0.71737  0.58129  0.71495  1.0000 0.5803649052
C   C474      1.0  0.58129  0.98639  0.71495  1.0000 0.5803649052
C   C475      1.0  0.51361  0.78263  0.91871  1.0000 0.5803649052
C   C476      1.0  0.78263  0.51361  0.78505  1.0000 0.5803649052
C   C477      1.0  0.91871  0.78263  0.78505  1.0000 0.5803649052
C   C478      1.0  0.51361  0.78505  0.78263  1.0000 0.5803649052
C   C479      1.0  0.51361  0.91871  0.78505  1.0000 0.5803649052
C   C480      1.0  0.78505  0.78263  0.51361  1.0000 0.5803649052
C   C481      1.0  0.01777  0.30451  0.30657  1.0000 -0.0310610358
C   C482      1.0  0.12885  0.19343  0.48223  1.0000 -0.0310610358
C   C483      1.0  0.30451  0.01777  0.37115  1.0000 -0.0310610358
C   C484      1.0  0.19343  0.12885  0.19549  1.0000 -0.0310610358
C   C485      1.0  0.19549  0.12885  0.48223  1.0000 -0.0310610358
C   C486      1.0  0.37115  0.30657  0.30451  1.0000 -0.0310610358
C   C487      1.0  0.19343  0.48223  0.12885  1.0000 -0.0310610358
C   C488      1.0  0.19549  0.19343  0.12885  1.0000 -0.0310610358
C   C489      1.0  0.30657  0.37115  0.01777  1.0000 -0.0310610358
C   C490      1.0  0.12885  0.48223  0.19549  1.0000 -0.0310610358
C   C491      1.0  0.30657  0.01777  0.30451  1.0000 -0.0310610358
C   C492      1.0  0.30451  0.30657  0.01777  1.0000 -0.0310610358
C   C493      1.0  0.30657  0.30451  0.37115  1.0000 -0.0310610358
C   C494      1.0  0.37115  0.30451  0.01777  1.0000 -0.0310610358
C   C495      1.0  0.01777  0.37115  0.30451  1.0000 -0.0310610358
C   C496      1.0  0.01777  0.30657  0.37115  1.0000 -0.0310610358
C   C497      1.0  0.30451  0.37115  0.30657  1.0000 -0.0310610358
C   C498      1.0  0.37115  0.01777  0.30657  1.0000 -0.0310610358
C   C499      1.0  0.48223  0.19549  0.12885  1.0000 -0.0310610358
C   C500      1.0  0.19549  0.48223  0.19343  1.0000 -0.0310610358
C   C501      1.0  0.12885  0.19549  0.19343  1.0000 -0.0310610358
C   C502      1.0  0.48223  0.19343  0.19549  1.0000 -0.0310610358
C   C503      1.0  0.48223  0.12885  0.19343  1.0000 -0.0310610358
C   C504      1.0  0.19343  0.19549  0.48223  1.0000 -0.0310610358
C   C505      1.0  0.98223  0.69549  0.69343  1.0000 -0.0310610358
C   C506      1.0  0.87115  0.80657  0.51777  1.0000 -0.0310610358
C   C507      1.0  0.69549  0.98223  0.62885  1.0000 -0.0310610358
C   C508      1.0  0.80657  0.87115  0.80451  1.0000 -0.0310610358
C   C509      1.0  0.80451  0.87115  0.51777  1.0000 -0.0310610358
C   C510      1.0  0.62885  0.69343  0.69549  1.0000 -0.0310610358
C   C511      1.0  0.80657  0.51777  0.87115  1.0000 -0.0310610358
C   C512      1.0  0.80451  0.80657  0.87115  1.0000 -0.0310610358
C   C513      1.0  0.69343  0.62885  0.98223  1.0000 -0.0310610358
C   C514      1.0  0.87115  0.51777  0.80451  1.0000 -0.0310610358
C   C515      1.0  0.69343  0.98223  0.69549  1.0000 -0.0310610358
C   C516      1.0  0.69549  0.69343  0.98223  1.0000 -0.0310610358
C   C517      1.0  0.69343  0.69549  0.62885  1.0000 -0.0310610358
C   C518      1.0  0.62885  0.69549  0.98223  1.0000 -0.0310610358
C   C519      1.0  0.98223  0.62885  0.69549  1.0000 -0.0310610358
C   C520      1.0  0.98223  0.69343  0.62885  1.0000 -0.0310610358
C   C521      1.0  0.69549  0.62885  0.69343  1.0000 -0.0310610358
C   C522      1.0  0.62885  0.98223  0.69343  1.0000 -0.0310610358
C   C523      1.0  0.51777  0.80451  0.87115  1.0000 -0.0310610358
C   C524      1.0  0.80451  0.51777  0.80657  1.0000 -0.0310610358
C   C525      1.0  0.87115  0.80451  0.80657  1.0000 -0.0310610358
C   C526      1.0  0.51777  0.80657  0.80451  1.0000 -0.0310610358
C   C527      1.0  0.51777  0.87115  0.80657  1.0000 -0.0310610358
C   C528      1.0  0.80657  0.80451  0.51777  1.0000 -0.0310610358
C   C529      1.0  0.01795  0.34833  0.28393  1.0000 -0.0873844788
C   C530      1.0  0.15021  0.21607  0.48205  1.0000 -0.0873844788
C   C531      1.0  0.34833  0.01795  0.34979  1.0000 -0.0873844788
C   C532      1.0  0.21607  0.15021  0.15167  1.0000 -0.0873844788
C   C533      1.0  0.15167  0.15021  0.48205  1.0000 -0.0873844788
C   C534      1.0  0.34979  0.28393  0.34833  1.0000 -0.0873844788
C   C535      1.0  0.21607  0.48205  0.15021  1.0000 -0.0873844788
C   C536      1.0  0.15167  0.21607  0.15021  1.0000 -0.0873844788
C   C537      1.0  0.28393  0.34979  0.01795  1.0000 -0.0873844788
C   C538      1.0  0.15021  0.48205  0.15167  1.0000 -0.0873844788
C   C539      1.0  0.28393  0.01795  0.34833  1.0000 -0.0873844788
C   C540      1.0  0.34833  0.28393  0.01795  1.0000 -0.0873844788
C   C541      1.0  0.28393  0.34833  0.34979  1.0000 -0.0873844788
C   C542      1.0  0.34979  0.34833  0.01795  1.0000 -0.0873844788
C   C543      1.0  0.01795  0.34979  0.34833  1.0000 -0.0873844788
C   C544      1.0  0.01795  0.28393  0.34979  1.0000 -0.0873844788
C   C545      1.0  0.34833  0.34979  0.28393  1.0000 -0.0873844788
C   C546      1.0  0.34979  0.01795  0.28393  1.0000 -0.0873844788
C   C547      1.0  0.48205  0.15167  0.15021  1.0000 -0.0873844788
C   C548      1.0  0.15167  0.48205  0.21607  1.0000 -0.0873844788
C   C549      1.0  0.15021  0.15167  0.21607  1.0000 -0.0873844788
C   C550      1.0  0.48205  0.21607  0.15167  1.0000 -0.0873844788
C   C551      1.0  0.48205  0.15021  0.21607  1.0000 -0.0873844788
C   C552      1.0  0.21607  0.15167  0.48205  1.0000 -0.0873844788
C   C553      1.0  0.98205  0.65167  0.71607  1.0000 -0.0873844788
C   C554      1.0  0.84979  0.78393  0.51795  1.0000 -0.0873844788
C   C555      1.0  0.65167  0.98205  0.65021  1.0000 -0.0873844788
C   C556      1.0  0.78393  0.84979  0.84833  1.0000 -0.0873844788
C   C557      1.0  0.84833  0.84979  0.51795  1.0000 -0.0873844788
C   C558      1.0  0.65021  0.71607  0.65167  1.0000 -0.0873844788
C   C559      1.0  0.78393  0.51795  0.84979  1.0000 -0.0873844788
C   C560      1.0  0.84833  0.78393  0.84979  1.0000 -0.0873844788
C   C561      1.0  0.71607  0.65021  0.98205  1.0000 -0.0873844788
C   C562      1.0  0.84979  0.51795  0.84833  1.0000 -0.0873844788
C   C563      1.0  0.71607  0.98205  0.65167  1.0000 -0.0873844788
C   C564      1.0  0.65167  0.71607  0.98205  1.0000 -0.0873844788
C   C565      1.0  0.71607  0.65167  0.65021  1.0000 -0.0873844788
C   C566      1.0  0.65021  0.65167  0.98205  1.0000 -0.0873844788
C   C567      1.0  0.98205  0.65021  0.65167  1.0000 -0.0873844788
C   C568      1.0  0.98205  0.71607  0.65021  1.0000 -0.0873844788
C   C569      1.0  0.65167  0.65021  0.71607  1.0000 -0.0873844788
C   C570      1.0  0.65021  0.98205  0.71607  1.0000 -0.0873844788
C   C571      1.0  0.51795  0.84833  0.84979  1.0000 -0.0873844788
C   C572      1.0  0.84833  0.51795  0.78393  1.0000 -0.0873844788
C   C573      1.0  0.84979  0.84833  0.78393  1.0000 -0.0873844788
C   C574      1.0  0.51795  0.78393  0.84833  1.0000 -0.0873844788
C   C575      1.0  0.51795  0.84979  0.78393  1.0000 -0.0873844788
C   C576      1.0  0.78393  0.84833  0.51795  1.0000 -0.0873844788
O   O1        1.0  0.74491  0.43279  0.30769  1.0000 -0.5204602282
O   O2        1.0  0.98539  0.19231  0.75509  1.0000 -0.5204602282
O   O3        1.0  0.43279  0.74491  0.51461  1.0000 -0.5204602282
O   O4        1.0  0.19231  0.98539  0.06721  1.0000 -0.5204602282
O   O5        1.0  0.06721  0.98539  0.75509  1.0000 -0.5204602282
O   O6        1.0  0.51461  0.30769  0.43279  1.0000 -0.5204602282
O   O7        1.0  0.19231  0.75509  0.98539  1.0000 -0.5204602282
O   O8        1.0  0.06721  0.19231  0.98539  1.0000 -0.5204602282
O   O9        1.0  0.30769  0.51461  0.74491  1.0000 -0.5204602282
O   O10       1.0  0.98539  0.75509  0.06721  1.0000 -0.5204602282
O   O11       1.0  0.30769  0.74491  0.43279  1.0000 -0.5204602282
O   O12       1.0  0.43279  0.30769  0.74491  1.0000 -0.5204602282
O   O13       1.0  0.30769  0.43279  0.51461  1.0000 -0.5204602282
O   O14       1.0  0.51461  0.43279  0.74491  1.0000 -0.5204602282
O   O15       1.0  0.74491  0.51461  0.43279  1.0000 -0.5204602282
O   O16       1.0  0.74491  0.30769  0.51461  1.0000 -0.5204602282
O   O17       1.0  0.43279  0.51461  0.30769  1.0000 -0.5204602282
O   O18       1.0  0.51461  0.74491  0.30769  1.0000 -0.5204602282
O   O19       1.0  0.75509  0.06721  0.98539  1.0000 -0.5204602282
O   O20       1.0  0.06721  0.75509  0.19231  1.0000 -0.5204602282
O   O21       1.0  0.98539  0.06721  0.19231  1.0000 -0.5204602282
O   O22       1.0  0.75509  0.19231  0.06721  1.0000 -0.5204602282
O   O23       1.0  0.75509  0.98539  0.19231  1.0000 -0.5204602282
O   O24       1.0  0.19231  0.06721  0.75509  1.0000 -0.5204602282
O   O25       1.0  0.25509  0.56721  0.69231  1.0000 -0.5102407644
O   O26       1.0  0.01461  0.80769  0.24491  1.0000 -0.5204602282
O   O27       1.0  0.56721  0.25509  0.48539  1.0000 -0.5204602282
O   O28       1.0  0.80769  0.01461  0.93279  1.0000 -0.5204602282
O   O29       1.0  0.93279  0.01461  0.24491  1.0000 -0.5204602282
O   O30       1.0  0.48539  0.69231  0.56721  1.0000 -0.5204602282
O   O31       1.0  0.80769  0.24491  0.01461  1.0000 -0.5204602282
O   O32       1.0  0.93279  0.80769  0.01461  1.0000 -0.5204602282
O   O33       1.0  0.69231  0.48539  0.25509  1.0000 -0.5204602282
O   O34       1.0  0.01461  0.24491  0.93279  1.0000 -0.5204602282
O   O35       1.0  0.69231  0.25509  0.56721  1.0000 -0.5204602282
O   O36       1.0  0.56721  0.69231  0.25509  1.0000 -0.5102407644
O   O37       1.0  0.69231  0.56721  0.48539  1.0000 -0.5204602282
O   O38       1.0  0.48539  0.56721  0.25509  1.0000 -0.5102407644
O   O39       1.0  0.25509  0.48539  0.56721  1.0000 -0.5204602282
O   O40       1.0  0.25509  0.69231  0.48539  1.0000 -0.5204602282
O   O41       1.0  0.56721  0.48539  0.69231  1.0000 -0.5204602282
O   O42       1.0  0.48539  0.25509  0.69231  1.0000 -0.5204602282
O   O43       1.0  0.24491  0.93279  0.01461  1.0000 -0.5204602282
O   O44       1.0  0.93279  0.24491  0.80769  1.0000 -0.5204602282
O   O45       1.0  0.01461  0.93279  0.80769  1.0000 -0.5204602282
O   O46       1.0  0.24491  0.80769  0.93279  1.0000 -0.5204602282
O   O47       1.0  0.24491  0.01461  0.80769  1.0000 -0.5204602282
O   O48       1.0  0.80769  0.93279  0.24491  1.0000 -0.5204602282
O   O49       1.0  0.80504  0.43190  0.24806  1.0000 -0.5102407644
O   O50       1.0  0.98500  0.25194  0.69496  1.0000 -0.5102407644
O   O51       1.0  0.43190  0.80504  0.51500  1.0000 -0.5102407644
O   O52       1.0  0.25194  0.98500  0.06810  1.0000 -0.5102407644
O   O53       1.0  0.06810  0.98500  0.69496  1.0000 -0.5102407644
O   O54       1.0  0.51500  0.24806  0.43190  1.0000 -0.5102407644
O   O55       1.0  0.25194  0.69496  0.98500  1.0000 -0.5102407644
O   O56       1.0  0.06810  0.25194  0.98500  1.0000 -0.5102407644
O   O57       1.0  0.24806  0.51500  0.80504  1.0000 -0.5102407644
O   O58       1.0  0.98500  0.69496  0.06810  1.0000 -0.5102407644
O   O59       1.0  0.24806  0.80504  0.43190  1.0000 -0.5102407644
O   O60       1.0  0.43190  0.24806  0.80504  1.0000 -0.5102407644
O   O61       1.0  0.24806  0.43190  0.51500  1.0000 -0.5102407644
O   O62       1.0  0.51500  0.43190  0.80504  1.0000 -0.5102407644
O   O63       1.0  0.80504  0.51500  0.43190  1.0000 -0.5102407644
O   O64       1.0  0.80504  0.24806  0.51500  1.0000 -0.5102407644
O   O65       1.0  0.43190  0.51500  0.24806  1.0000 -0.5102407644
O   O66       1.0  0.51500  0.80504  0.24806  1.0000 -0.5102407644
O   O67       1.0  0.69496  0.06810  0.98500  1.0000 -0.5102407644
O   O68       1.0  0.06810  0.69496  0.25194  1.0000 -0.5102407644
O   O69       1.0  0.98500  0.06810  0.25194  1.0000 -0.5102407644
O   O70       1.0  0.69496  0.25194  0.06810  1.0000 -0.5102407644
O   O71       1.0  0.69496  0.98500  0.25194  1.0000 -0.5102407644
O   O72       1.0  0.25194  0.06810  0.69496  1.0000 -0.5102407644
O   O73       1.0  0.19496  0.56810  0.75194  1.0000 -0.5102407644
O   O74       1.0  0.01500  0.74806  0.30504  1.0000 -0.5102407644
O   O75       1.0  0.56810  0.19496  0.48500  1.0000 -0.5102407644
O   O76       1.0  0.74806  0.01500  0.93190  1.0000 -0.5102407644
O   O77       1.0  0.93190  0.01500  0.30504  1.0000 -0.5102407644
O   O78       1.0  0.48500  0.75194  0.56810  1.0000 -0.5102407644
O   O79       1.0  0.74806  0.30504  0.01500  1.0000 -0.5102407644
O   O80       1.0  0.93190  0.74806  0.01500  1.0000 -0.5102407644
O   O81       1.0  0.75194  0.48500  0.19496  1.0000 -0.5102407644
O   O82       1.0  0.01500  0.30504  0.93190  1.0000 -0.5102407644
O   O83       1.0  0.75194  0.19496  0.56810  1.0000 -0.5102407644
O   O84       1.0  0.56810  0.75194  0.19496  1.0000 -0.5102407644
O   O85       1.0  0.75194  0.56810  0.48500  1.0000 -0.5102407644
O   O86       1.0  0.48500  0.56810  0.19496  1.0000 -0.5102407644
O   O87       1.0  0.19496  0.48500  0.56810  1.0000 -0.5102407644
O   O88       1.0  0.19496  0.75194  0.48500  1.0000 -0.5102407644
O   O89       1.0  0.56810  0.48500  0.75194  1.0000 -0.5102407644
O   O90       1.0  0.48500  0.19496  0.75194  1.0000 -0.5102407644
O   O91       1.0  0.30504  0.93190  0.01500  1.0000 -0.5102407644
O   O92       1.0  0.93190  0.30504  0.74806  1.0000 -0.5102407644
O   O93       1.0  0.01500  0.93190  0.74806  1.0000 -0.5102407644
O   O94       1.0  0.30504  0.74806  0.93190  1.0000 -0.5102407644
O   O95       1.0  0.30504  0.01500  0.74806  1.0000 -0.5102407644
O   O96       1.0  0.74806  0.93190  0.30504  1.0000 -0.5102407644
O   O97       1.0  0.93740  0.30484  0.25026  1.0000 -0.5204602282
O   O98       1.0  0.99250  0.24974  0.56260  1.0000 -0.5204602282
O   O99       1.0  0.30484  0.93740  0.50750  1.0000 -0.5204602282
O   O100      1.0  0.24974  0.99250  0.19516  1.0000 -0.5204602282
O   O101      1.0  0.19516  0.99250  0.56260  1.0000 -0.5204602282
O   O102      1.0  0.50750  0.25026  0.30484  1.0000 -0.5204602282
O   O103      1.0  0.24974  0.56260  0.99250  1.0000 -0.5204602282
O   O104      1.0  0.19516  0.24974  0.99250  1.0000 -0.5204602282
O   O105      1.0  0.25026  0.50750  0.93740  1.0000 -0.5204602282
O   O106      1.0  0.99250  0.56260  0.19516  1.0000 -0.5204602282
O   O107      1.0  0.25026  0.93740  0.30484  1.0000 -0.5204602282
O   O108      1.0  0.30484  0.25026  0.93740  1.0000 -0.5204602282
O   O109      1.0  0.25026  0.30484  0.50750  1.0000 -0.5204602282
O   O110      1.0  0.50750  0.30484  0.93740  1.0000 -0.5204602282
O   O111      1.0  0.93740  0.50750  0.30484  1.0000 -0.5204602282
O   O112      1.0  0.93740  0.25026  0.50750  1.0000 -0.5204602282
O   O113      1.0  0.30484  0.50750  0.25026  1.0000 -0.5204602282
O   O114      1.0  0.50750  0.93740  0.25026  1.0000 -0.5204602282
O   O115      1.0  0.56260  0.19516  0.99250  1.0000 -0.5204602282
O   O116      1.0  0.19516  0.56260  0.24974  1.0000 -0.5204602282
O   O117      1.0  0.99250  0.19516  0.24974  1.0000 -0.5204602282
O   O118      1.0  0.56260  0.24974  0.19516  1.0000 -0.5204602282
O   O119      1.0  0.56260  0.99250  0.24974  1.0000 -0.5204602282
O   O120      1.0  0.24974  0.19516  0.56260  1.0000 -0.5204602282
O   O121      1.0  0.06260  0.69516  0.74974  1.0000 -0.5204602282
O   O122      1.0  0.00750  0.75026  0.43740  1.0000 -0.5204602282
O   O123      1.0  0.69516  0.06260  0.49250  1.0000 -0.5204602282
O   O124      1.0  0.75026  0.00750  0.80484  1.0000 -0.5204602282
O   O125      1.0  0.80484  0.00750  0.43740  1.0000 -0.5204602282
O   O126      1.0  0.49250  0.74974  0.69516  1.0000 -0.5204602282
O   O127      1.0  0.75026  0.43740  0.00750  1.0000 -0.5204602282
O   O128      1.0  0.80484  0.75026  0.00750  1.0000 -0.5204602282
O   O129      1.0  0.74974  0.49250  0.06260  1.0000 -0.5204602282
O   O130      1.0  0.00750  0.43740  0.80484  1.0000 -0.5204602282
O   O131      1.0  0.74974  0.06260  0.69516  1.0000 -0.5204602282
O   O132      1.0  0.69516  0.74974  0.06260  1.0000 -0.5204602282
O   O133      1.0  0.74974  0.69516  0.49250  1.0000 -0.5204602282
O   O134      1.0  0.49250  0.69516  0.06260  1.0000 -0.5204602282
O   O135      1.0  0.06260  0.49250  0.69516  1.0000 -0.5204602282
O   O136      1.0  0.06260  0.74974  0.49250  1.0000 -0.5204602282
O   O137      1.0  0.69516  0.49250  0.74974  1.0000 -0.5204602282
O   O138      1.0  0.49250  0.06260  0.74974  1.0000 -0.5204602282
O   O139      1.0  0.43740  0.80484  0.00750  1.0000 -0.5204602282
O   O140      1.0  0.80484  0.43740  0.75026  1.0000 -0.5204602282
O   O141      1.0  0.00750  0.80484  0.75026  1.0000 -0.5204602282
O   O142      1.0  0.43740  0.75026  0.80484  1.0000 -0.5204602282
O   O143      1.0  0.43740  0.00750  0.75026  1.0000 -0.5204602282
O   O144      1.0  0.75026  0.80484  0.43740  1.0000 -0.5204602282
O   O145      1.0  0.93706  0.24194  0.30706  1.0000 -0.5102407644
O   O146      1.0  0.98606  0.19294  0.56294  1.0000 -0.5102407644
O   O147      1.0  0.24194  0.93706  0.51394  1.0000 -0.5102407644
O   O148      1.0  0.19294  0.98606  0.25806  1.0000 -0.5102407644
O   O149      1.0  0.25806  0.98606  0.56294  1.0000 -0.5102407644
O   O150      1.0  0.51394  0.30706  0.24194  1.0000 -0.5102407644
O   O151      1.0  0.19294  0.56294  0.98606  1.0000 -0.5102407644
O   O152      1.0  0.25806  0.19294  0.98606  1.0000 -0.5102407644
O   O153      1.0  0.30706  0.51394  0.93706  1.0000 -0.5102407644
O   O154      1.0  0.98606  0.56294  0.25806  1.0000 -0.5102407644
O   O155      1.0  0.30706  0.93706  0.24194  1.0000 -0.5102407644
O   O156      1.0  0.24194  0.30706  0.93706  1.0000 -0.5102407644
O   O157      1.0  0.30706  0.24194  0.51394  1.0000 -0.5102407644
O   O158      1.0  0.51394  0.24194  0.93706  1.0000 -0.5102407644
O   O159      1.0  0.93706  0.51394  0.24194  1.0000 -0.5102407644
O   O160      1.0  0.93706  0.30706  0.51394  1.0000 -0.5102407644
O   O161      1.0  0.24194  0.51394  0.30706  1.0000 -0.5102407644
O   O162      1.0  0.51394  0.93706  0.30706  1.0000 -0.5102407644
O   O163      1.0  0.56294  0.25806  0.98606  1.0000 -0.5102407644
O   O164      1.0  0.25806  0.56294  0.19294  1.0000 -0.5102407644
O   O165      1.0  0.98606  0.25806  0.19294  1.0000 -0.5102407644
O   O166      1.0  0.56294  0.19294  0.25806  1.0000 -0.5102407644
O   O167      1.0  0.56294  0.98606  0.19294  1.0000 -0.5102407644
O   O168      1.0  0.19294  0.25806  0.56294  1.0000 -0.5102407644
O   O169      1.0  0.06294  0.75806  0.69294  1.0000 -0.5102407644
O   O170      1.0  0.01394  0.80706  0.43706  1.0000 -0.5102407644
O   O171      1.0  0.75806  0.06294  0.48606  1.0000 -0.5102407644
O   O172      1.0  0.80706  0.01394  0.74194  1.0000 -0.5102407644
O   O173      1.0  0.74194  0.01394  0.43706  1.0000 -0.5102407644
O   O174      1.0  0.48606  0.69294  0.75806  1.0000 -0.5102407644
O   O175      1.0  0.80706  0.43706  0.01394  1.0000 -0.5102407644
O   O176      1.0  0.74194  0.80706  0.01394  1.0000 -0.5102407644
O   O177      1.0  0.69294  0.48606  0.06294  1.0000 -0.5102407644
O   O178      1.0  0.01394  0.43706  0.74194  1.0000 -0.5102407644
O   O179      1.0  0.69294  0.06294  0.75806  1.0000 -0.5102407644
O   O180      1.0  0.75806  0.69294  0.06294  1.0000 -0.5102407644
O   O181      1.0  0.69294  0.75806  0.48606  1.0000 -0.5102407644
O   O182      1.0  0.48606  0.75806  0.06294  1.0000 -0.5102407644
O   O183      1.0  0.06294  0.48606  0.75806  1.0000 -0.5102407644
O   O184      1.0  0.06294  0.69294  0.48606  1.0000 -0.5102407644
O   O185      1.0  0.75806  0.48606  0.69294  1.0000 -0.5102407644
O   O186      1.0  0.48606  0.06294  0.69294  1.0000 -0.5102407644
O   O187      1.0  0.43706  0.74194  0.01394  1.0000 -0.5102407644
O   O188      1.0  0.74194  0.43706  0.80706  1.0000 -0.5102407644
O   O189      1.0  0.01394  0.74194  0.80706  1.0000 -0.5102407644
O   O190      1.0  0.43706  0.80706  0.74194  1.0000 -0.5102407644
O   O191      1.0  0.43706  0.01394  0.80706  1.0000 -0.5102407644
O   O192      1.0  0.80706  0.74194  0.43706  1.0000 -0.5102407644
O   O193      1.0  0.80800  0.24406  0.44198  1.0000 -0.5037058764
O   O194      1.0  0.99404  0.05802  0.69200  1.0000 -0.5037058764
O   O195      1.0  0.24406  0.80800  0.50596  1.0000 -0.5037058764
O   O196      1.0  0.05802  0.99404  0.25594  1.0000 -0.5037058764
O   O197      1.0  0.25594  0.99404  0.69200  1.0000 -0.5037058764
O   O198      1.0  0.50596  0.44198  0.24406  1.0000 -0.5037058764
O   O199      1.0  0.05802  0.69200  0.99404  1.0000 -0.5037058764
O   O200      1.0  0.25594  0.05802  0.99404  1.0000 -0.5037058764
O   O201      1.0  0.44198  0.50596  0.80800  1.0000 -0.5037058764
O   O202      1.0  0.99404  0.69200  0.25594  1.0000 -0.5037058764
O   O203      1.0  0.44198  0.80800  0.24406  1.0000 -0.5037058764
O   O204      1.0  0.24406  0.44198  0.80800  1.0000 -0.5037058764
O   O205      1.0  0.44198  0.24406  0.50596  1.0000 -0.5037058764
O   O206      1.0  0.50596  0.24406  0.80800  1.0000 -0.5037058764
O   O207      1.0  0.80800  0.50596  0.24406  1.0000 -0.5037058764
O   O208      1.0  0.80800  0.44198  0.50596  1.0000 -0.5037058764
O   O209      1.0  0.24406  0.50596  0.44198  1.0000 -0.5037058764
O   O210      1.0  0.50596  0.80800  0.44198  1.0000 -0.5037058764
O   O211      1.0  0.69200  0.25594  0.99404  1.0000 -0.5037058764
O   O212      1.0  0.25594  0.69200  0.05802  1.0000 -0.5037058764
O   O213      1.0  0.99404  0.25594  0.05802  1.0000 -0.5037058764
O   O214      1.0  0.69200  0.05802  0.25594  1.0000 -0.5037058764
O   O215      1.0  0.69200  0.99404  0.05802  1.0000 -0.5037058764
O   O216      1.0  0.05802  0.25594  0.69200  1.0000 -0.5037058764
O   O217      1.0  0.19200  0.75594  0.55802  1.0000 -0.5102407644
O   O218      1.0  0.00596  0.94198  0.30800  1.0000 -0.5037058764
O   O219      1.0  0.75594  0.19200  0.49404  1.0000 -0.5037058764
O   O220      1.0  0.94198  0.00596  0.74406  1.0000 -0.5037058764
O   O221      1.0  0.74406  0.00596  0.30800  1.0000 -0.5037058764
O   O222      1.0  0.49404  0.55802  0.75594  1.0000 -0.5037058764
O   O223      1.0  0.94198  0.30800  0.00596  1.0000 -0.5037058764
O   O224      1.0  0.74406  0.94198  0.00596  1.0000 -0.5037058764
O   O225      1.0  0.55802  0.49404  0.19200  1.0000 -0.5037058764
O   O226      1.0  0.00596  0.30800  0.74406  1.0000 -0.5037058764
O   O227      1.0  0.55802  0.19200  0.75594  1.0000 -0.5037058764
O   O228      1.0  0.75594  0.55802  0.19200  1.0000 -0.5037058764
O   O229      1.0  0.55802  0.75594  0.49404  1.0000 -0.5037058764
O   O230      1.0  0.49404  0.75594  0.19200  1.0000 -0.5037058764
O   O231      1.0  0.19200  0.49404  0.75594  1.0000 -0.5037058764
O   O232      1.0  0.19200  0.55802  0.49404  1.0000 -0.5037058764
O   O233      1.0  0.75594  0.49404  0.55802  1.0000 -0.5037058764
O   O234      1.0  0.49404  0.19200  0.55802  1.0000 -0.5037058764
O   O235      1.0  0.30800  0.74406  0.00596  1.0000 -0.5037058764
O   O236      1.0  0.74406  0.30800  0.94198  1.0000 -0.5037058764
O   O237      1.0  0.00596  0.74406  0.94198  1.0000 -0.5037058764
O   O238      1.0  0.30800  0.94198  0.74406  1.0000 -0.5037058764
O   O239      1.0  0.30800  0.00596  0.94198  1.0000 -0.5037058764
O   O240      1.0  0.94198  0.74406  0.30800  1.0000 -0.5037058764
O   O241      1.0  0.74792  0.30412  0.44136  1.0000 -0.5204602282
O   O242      1.0  0.99340  0.05864  0.75208  1.0000 -0.5204602282
O   O243      1.0  0.30412  0.74792  0.50660  1.0000 -0.5204602282
O   O244      1.0  0.05864  0.99340  0.19588  1.0000 -0.5204602282
O   O245      1.0  0.19588  0.99340  0.75208  1.0000 -0.5204602282
O   O246      1.0  0.50660  0.44136  0.30412  1.0000 -0.5204602282
O   O247      1.0  0.05864  0.75208  0.99340  1.0000 -0.5204602282
O   O248      1.0  0.19588  0.05864  0.99340  1.0000 -0.5204602282
O   O249      1.0  0.44136  0.50660  0.74792  1.0000 -0.5204602282
O   O250      1.0  0.99340  0.75208  0.19588  1.0000 -0.5204602282
O   O251      1.0  0.44136  0.74792  0.30412  1.0000 -0.5204602282
O   O252      1.0  0.30412  0.44136  0.74792  1.0000 -0.5204602282
O   O253      1.0  0.44136  0.30412  0.50660  1.0000 -0.5204602282
O   O254      1.0  0.50660  0.30412  0.74792  1.0000 -0.5204602282
O   O255      1.0  0.74792  0.50660  0.30412  1.0000 -0.5204602282
O   O256      1.0  0.74792  0.44136  0.50660  1.0000 -0.5204602282
O   O257      1.0  0.30412  0.50660  0.44136  1.0000 -0.5204602282
O   O258      1.0  0.50660  0.74792  0.44136  1.0000 -0.5204602282
O   O259      1.0  0.75208  0.19588  0.99340  1.0000 -0.5204602282
O   O260      1.0  0.19588  0.75208  0.05864  1.0000 -0.5204602282
O   O261      1.0  0.99340  0.19588  0.05864  1.0000 -0.5204602282
O   O262      1.0  0.75208  0.05864  0.19588  1.0000 -0.5204602282
O   O263      1.0  0.75208  0.99340  0.05864  1.0000 -0.5204602282
O   O264      1.0  0.05864  0.19588  0.75208  1.0000 -0.5204602282
O   O265      1.0  0.25208  0.69588  0.55864  1.0000 -0.5204602282
O   O266      1.0  0.00660  0.94136  0.24792  1.0000 -0.5204602282
O   O267      1.0  0.69588  0.25208  0.49340  1.0000 -0.5204602282
O   O268      1.0  0.94136  0.00660  0.80412  1.0000 -0.5204602282
O   O269      1.0  0.80412  0.00660  0.24792  1.0000 -0.5204602282
O   O270      1.0  0.49340  0.55864  0.69588  1.0000 -0.5204602282
O   O271      1.0  0.94136  0.24792  0.00660  1.0000 -0.5204602282
O   O272      1.0  0.80412  0.94136  0.00660  1.0000 -0.5204602282
O   O273      1.0  0.55864  0.49340  0.25208  1.0000 -0.5204602282
O   O274      1.0  0.00660  0.24792  0.80412  1.0000 -0.5204602282
O   O275      1.0  0.55864  0.25208  0.69588  1.0000 -0.5204602282
O   O276      1.0  0.69588  0.55864  0.25208  1.0000 -0.5204602282
O   O277      1.0  0.55864  0.69588  0.49340  1.0000 -0.5204602282
O   O278      1.0  0.49340  0.69588  0.25208  1.0000 -0.5204602282
O   O279      1.0  0.25208  0.49340  0.69588  1.0000 -0.5204602282
O   O280      1.0  0.25208  0.55864  0.49340  1.0000 -0.5204602282
O   O281      1.0  0.69588  0.49340  0.55864  1.0000 -0.5204602282
O   O282      1.0  0.49340  0.25208  0.55864  1.0000 -0.5204602282
O   O283      1.0  0.24792  0.80412  0.00660  1.0000 -0.5204602282
O   O284      1.0  0.80412  0.24792  0.94136  1.0000 -0.5204602282
O   O285      1.0  0.00660  0.80412  0.94136  1.0000 -0.5204602282
O   O286      1.0  0.24792  0.94136  0.80412  1.0000 -0.5204602282
O   O287      1.0  0.24792  0.00660  0.94136  1.0000 -0.5204602282
O   O288      1.0  0.94136  0.80412  0.24792  1.0000 -0.5204602282
O   O289      1.0  0.00777  0.24641  0.30905  1.0000 -0.5102407644
O   O290      1.0  0.06323  0.19095  0.49223  1.0000 -0.5102407644
O   O291      1.0  0.24641  0.00777  0.43677  1.0000 -0.5102407644
O   O292      1.0  0.19095  0.06323  0.25359  1.0000 -0.5102407644
O   O293      1.0  0.25359  0.06323  0.49223  1.0000 -0.5102407644
O   O294      1.0  0.43677  0.30905  0.24641  1.0000 -0.5102407644
O   O295      1.0  0.19095  0.49223  0.06323  1.0000 -0.5102407644
O   O296      1.0  0.25359  0.19095  0.06323  1.0000 -0.5102407644
O   O297      1.0  0.30905  0.43677  0.00777  1.0000 -0.5102407644
O   O298      1.0  0.06323  0.49223  0.25359  1.0000 -0.5102407644
O   O299      1.0  0.30905  0.00777  0.24641  1.0000 -0.5102407644
O   O300      1.0  0.24641  0.30905  0.00777  1.0000 -0.5102407644
O   O301      1.0  0.30905  0.24641  0.43677  1.0000 -0.5102407644
O   O302      1.0  0.43677  0.24641  0.00777  1.0000 -0.5102407644
O   O303      1.0  0.00777  0.43677  0.24641  1.0000 -0.5102407644
O   O304      1.0  0.00777  0.30905  0.43677  1.0000 -0.5102407644
O   O305      1.0  0.24641  0.43677  0.30905  1.0000 -0.5102407644
O   O306      1.0  0.43677  0.00777  0.30905  1.0000 -0.5102407644
O   O307      1.0  0.49223  0.25359  0.06323  1.0000 -0.5102407644
O   O308      1.0  0.25359  0.49223  0.19095  1.0000 -0.5102407644
O   O309      1.0  0.06323  0.25359  0.19095  1.0000 -0.5102407644
O   O310      1.0  0.49223  0.19095  0.25359  1.0000 -0.5102407644
O   O311      1.0  0.49223  0.06323  0.19095  1.0000 -0.5102407644
O   O312      1.0  0.19095  0.25359  0.49223  1.0000 -0.5102407644
O   O313      1.0  0.99223  0.75359  0.69095  1.0000 -0.5102407644
O   O314      1.0  0.93677  0.80905  0.50777  1.0000 -0.5102407644
O   O315      1.0  0.75359  0.99223  0.56323  1.0000 -0.5102407644
O   O316      1.0  0.80905  0.93677  0.74641  1.0000 -0.5102407644
O   O317      1.0  0.74641  0.93677  0.50777  1.0000 -0.5102407644
O   O318      1.0  0.56323  0.69095  0.75359  1.0000 -0.5102407644
O   O319      1.0  0.80905  0.50777  0.93677  1.0000 -0.5102407644
O   O320      1.0  0.74641  0.80905  0.93677  1.0000 -0.5102407644
O   O321      1.0  0.69095  0.56323  0.99223  1.0000 -0.5102407644
O   O322      1.0  0.93677  0.50777  0.74641  1.0000 -0.5102407644
O   O323      1.0  0.69095  0.99223  0.75359  1.0000 -0.5102407644
O   O324      1.0  0.75359  0.69095  0.99223  1.0000 -0.5102407644
O   O325      1.0  0.69095  0.75359  0.56323  1.0000 -0.5102407644
O   O326      1.0  0.56323  0.75359  0.99223  1.0000 -0.5102407644
O   O327      1.0  0.99223  0.56323  0.75359  1.0000 -0.5102407644
O   O328      1.0  0.99223  0.69095  0.56323  1.0000 -0.5102407644
O   O329      1.0  0.75359  0.56323  0.69095  1.0000 -0.5102407644
O   O330      1.0  0.56323  0.99223  0.69095  1.0000 -0.5102407644
O   O331      1.0  0.50777  0.74641  0.93677  1.0000 -0.5102407644
O   O332      1.0  0.74641  0.50777  0.80905  1.0000 -0.5102407644
O   O333      1.0  0.93677  0.74641  0.80905  1.0000 -0.5102407644
O   O334      1.0  0.50777  0.80905  0.74641  1.0000 -0.5102407644
O   O335      1.0  0.50777  0.93677  0.80905  1.0000 -0.5102407644
O   O336      1.0  0.80905  0.74641  0.50777  1.0000 -0.5102407644
O   O337      1.0  0.01471  0.30307  0.24631  1.0000 -0.5102407644
O   O338      1.0  0.06409  0.25369  0.48529  1.0000 -0.5102407644
O   O339      1.0  0.30307  0.01471  0.43591  1.0000 -0.5102407644
O   O340      1.0  0.25369  0.06409  0.19693  1.0000 -0.5102407644
O   O341      1.0  0.19693  0.06409  0.48529  1.0000 -0.5102407644
O   O342      1.0  0.43591  0.24631  0.30307  1.0000 -0.5102407644
O   O343      1.0  0.25369  0.48529  0.06409  1.0000 -0.5102407644
O   O344      1.0  0.19693  0.25369  0.06409  1.0000 -0.5102407644
O   O345      1.0  0.24631  0.43591  0.01471  1.0000 -0.5102407644
O   O346      1.0  0.06409  0.48529  0.19693  1.0000 -0.5102407644
O   O347      1.0  0.24631  0.01471  0.30307  1.0000 -0.5102407644
O   O348      1.0  0.30307  0.24631  0.01471  1.0000 -0.5102407644
O   O349      1.0  0.24631  0.30307  0.43591  1.0000 -0.5102407644
O   O350      1.0  0.43591  0.30307  0.01471  1.0000 -0.5102407644
O   O351      1.0  0.01471  0.43591  0.30307  1.0000 -0.5102407644
O   O352      1.0  0.01471  0.24631  0.43591  1.0000 -0.5102407644
O   O353      1.0  0.30307  0.43591  0.24631  1.0000 -0.5102407644
O   O354      1.0  0.43591  0.01471  0.24631  1.0000 -0.5102407644
O   O355      1.0  0.48529  0.19693  0.06409  1.0000 -0.5102407644
O   O356      1.0  0.19693  0.48529  0.25369  1.0000 -0.5102407644
O   O357      1.0  0.06409  0.19693  0.25369  1.0000 -0.5102407644
O   O358      1.0  0.48529  0.25369  0.19693  1.0000 -0.5102407644
O   O359      1.0  0.48529  0.06409  0.25369  1.0000 -0.5102407644
O   O360      1.0  0.25369  0.19693  0.48529  1.0000 -0.5102407644
O   O361      1.0  0.98529  0.69693  0.75369  1.0000 -0.5102407644
O   O362      1.0  0.93591  0.74631  0.51471  1.0000 -0.5102407644
O   O363      1.0  0.69693  0.98529  0.56409  1.0000 -0.5102407644
O   O364      1.0  0.74631  0.93591  0.80307  1.0000 -0.5102407644
O   O365      1.0  0.80307  0.93591  0.51471  1.0000 -0.5102407644
O   O366      1.0  0.56409  0.75369  0.69693  1.0000 -0.5102407644
O   O367      1.0  0.74631  0.51471  0.93591  1.0000 -0.5102407644
O   O368      1.0  0.80307  0.74631  0.93591  1.0000 -0.5102407644
O   O369      1.0  0.75369  0.56409  0.98529  1.0000 -0.5102407644
O   O370      1.0  0.93591  0.51471  0.80307  1.0000 -0.5102407644
O   O371      1.0  0.75369  0.98529  0.69693  1.0000 -0.5102407644
O   O372      1.0  0.69693  0.75369  0.98529  1.0000 -0.5102407644
O   O373      1.0  0.75369  0.69693  0.56409  1.0000 -0.5102407644
O   O374      1.0  0.56409  0.69693  0.98529  1.0000 -0.5102407644
O   O375      1.0  0.98529  0.56409  0.69693  1.0000 -0.5102407644
O   O376      1.0  0.98529  0.75369  0.56409  1.0000 -0.5102407644
O   O377      1.0  0.69693  0.56409  0.75369  1.0000 -0.5102407644
O   O378      1.0  0.56409  0.98529  0.75369  1.0000 -0.5102407644
O   O379      1.0  0.51471  0.80307  0.93591  1.0000 -0.5102407644
O   O380      1.0  0.80307  0.51471  0.74631  1.0000 -0.5102407644
O   O381      1.0  0.93591  0.80307  0.74631  1.0000 -0.5102407644
O   O382      1.0  0.51471  0.74631  0.80307  1.0000 -0.5102407644
O   O383      1.0  0.51471  0.93591  0.74631  1.0000 -0.5102407644
O   O384      1.0  0.74631  0.80307  0.51471  1.0000 -0.5102407644
