# DDEC6 charges by PACMAN v1.1 (https://github.com/mtap-research/PACMAN-charge/)
data_2014[Cd][pcu]3[ASR]2
_chemical_formula_sum              "Cd6 H32 C48 N20 O16"
_cell_length_a       9.615
_cell_length_b       21.122
_cell_length_c       13.152
_cell_angle_alpha    90
_cell_angle_beta     91.126
_cell_angle_gamma    90

_symmetry_space_group_name_H-M    "P 1"
_symmetry_Int_Tables_number       1

loop_
  _symmetry_equiv_pos_as_xyz
  'x, y, z'

loop_
  _atom_site_type_symbol
  _atom_site_label
  _atom_site_symmetry_multiplicity
  _atom_site_fract_x
  _atom_site_fract_y
  _atom_site_fract_z
  _atom_site_occupancy
  _atom_site_charge
Cd  Cd1       1.0  0.00000  0.00000  0.00000  1.0000 0.9958278085
Cd  Cd2       1.0  0.00000  0.50000  0.50000  1.0000 0.9958278085
Cd  Cd3       1.0  0.10259  0.91031  0.77244  1.0000 0.8278565551
Cd  Cd4       1.0  0.89741  0.41031  0.72756  1.0000 0.8278565551
Cd  Cd5       1.0  0.89741  0.08969  0.22756  1.0000 0.8278565551
Cd  Cd6       1.0  0.10259  0.58969  0.27244  1.0000 0.8278565551
H   H1        1.0  0.00230  0.73240  0.27490  1.0000 0.1157132904
H   H2        1.0  0.99770  0.23240  0.22510  1.0000 0.1157132904
H   H3        1.0  0.99770  0.26760  0.72510  1.0000 0.1157132904
H   H4        1.0  0.00230  0.76760  0.77490  1.0000 0.1157132904
H   H5        1.0  0.00260  0.82630  0.18600  1.0000 0.1403597141
H   H6        1.0  0.99740  0.32630  0.31400  1.0000 0.1403597141
H   H7        1.0  0.99740  0.17370  0.81400  1.0000 0.1403597141
H   H8        1.0  0.00260  0.67370  0.68600  1.0000 0.1403597141
H   H9        1.0  0.17910  0.73660  0.95720  1.0000 0.1347481305
H   H10       1.0  0.82090  0.23660  0.54280  1.0000 0.1347481305
H   H11       1.0  0.82090  0.26340  0.04280  1.0000 0.1347481305
H   H12       1.0  0.17910  0.76340  0.45720  1.0000 0.1347481305
H   H13       1.0  0.18890  0.64640  0.05540  1.0000 0.0963654113
H   H14       1.0  0.81110  0.14640  0.44460  1.0000 0.0963654113
H   H15       1.0  0.81110  0.35360  0.94460  1.0000 0.0963654113
H   H16       1.0  0.18890  0.85360  0.55540  1.0000 0.0963654113
H   H17       1.0  0.34630  0.92610  0.93310  1.0000 0.1079409714
H   H18       1.0  0.65370  0.42610  0.56690  1.0000 0.1079409714
H   H19       1.0  0.65370  0.07390  0.06690  1.0000 0.1079409714
H   H20       1.0  0.34630  0.57390  0.43310  1.0000 0.1079409714
H   H21       1.0  0.57850  0.94050  0.96000  1.0000 0.1403597141
H   H22       1.0  0.42150  0.44050  0.54000  1.0000 0.1403597141
H   H23       1.0  0.42150  0.05950  0.04000  1.0000 0.1403597141
H   H24       1.0  0.57850  0.55950  0.46000  1.0000 0.1403597141
H   H25       1.0  0.63920  0.89090  0.67170  1.0000 0.1403597141
H   H26       1.0  0.36080  0.39090  0.82830  1.0000 0.1403597141
H   H27       1.0  0.36080  0.10910  0.32830  1.0000 0.1403597141
H   H28       1.0  0.63920  0.60910  0.17170  1.0000 0.1403597141
H   H29       1.0  0.40460  0.88240  0.65000  1.0000 0.0963654113
H   H30       1.0  0.59540  0.38240  0.85000  1.0000 0.0963654113
H   H31       1.0  0.59540  0.11760  0.35000  1.0000 0.0963654113
H   H32       1.0  0.40460  0.61760  0.15000  1.0000 0.0963654113
C   C1        1.0  0.04140  0.73340  0.21080  1.0000 0.0814217249
C   C2        1.0  0.95860  0.23340  0.28920  1.0000 0.0814217249
C   C3        1.0  0.95860  0.26660  0.78920  1.0000 0.0814217249
C   C4        1.0  0.04140  0.76660  0.71080  1.0000 0.0814217249
C   C5        1.0  0.03940  0.79000  0.15710  1.0000 -0.1534216446
C   C6        1.0  0.96060  0.29000  0.34290  1.0000 -0.1534216446
C   C7        1.0  0.96060  0.21000  0.84290  1.0000 -0.1534216446
C   C8        1.0  0.03940  0.71000  0.65710  1.0000 -0.1534216446
C   C9        1.0  0.09210  0.79170  0.06150  1.0000 0.0167293185
C   C10       1.0  0.90790  0.29170  0.43850  1.0000 0.0167293185
C   C11       1.0  0.90790  0.20830  0.93850  1.0000 0.0167293185
C   C12       1.0  0.09210  0.70830  0.56150  1.0000 0.0167293185
C   C13       1.0  0.14520  0.73730  0.02290  1.0000 -0.1678079744
C   C14       1.0  0.85480  0.23730  0.47710  1.0000 -0.1678079744
C   C15       1.0  0.85480  0.26270  0.97710  1.0000 -0.1678079744
C   C16       1.0  0.14520  0.76270  0.52290  1.0000 -0.1678079744
C   C17       1.0  0.14870  0.68270  0.08190  1.0000 0.0484418813
C   C18       1.0  0.85130  0.18270  0.41810  1.0000 0.0484418813
C   C19       1.0  0.85130  0.31730  0.91810  1.0000 0.0484418813
C   C20       1.0  0.14870  0.81730  0.58190  1.0000 0.0484418813
C   C21       1.0  0.09150  0.85220  0.00100  1.0000 0.5772300209
C   C22       1.0  0.90850  0.35220  0.49900  1.0000 0.5772300209
C   C23       1.0  0.90850  0.14780  0.99900  1.0000 0.5772300209
C   C24       1.0  0.09150  0.64780  0.50100  1.0000 0.5772300209
C   C25       1.0  0.40620  0.92020  0.87920  1.0000 0.0731825153
C   C26       1.0  0.59380  0.42020  0.62080  1.0000 0.0731825153
C   C27       1.0  0.59380  0.07980  0.12080  1.0000 0.0731825153
C   C28       1.0  0.40620  0.57980  0.37920  1.0000 0.0731825153
C   C29       1.0  0.54550  0.92780  0.89630  1.0000 -0.1534216446
C   C30       1.0  0.45450  0.42780  0.60370  1.0000 -0.1534216446
C   C31       1.0  0.45450  0.07220  0.10370  1.0000 -0.1534216446
C   C32       1.0  0.54550  0.57220  0.39630  1.0000 -0.1534216446
C   C33       1.0  0.63790  0.91660  0.81900  1.0000 0.0288042496
C   C34       1.0  0.36210  0.41660  0.68100  1.0000 0.0288042496
C   C35       1.0  0.36210  0.08340  0.18100  1.0000 0.0288042496
C   C36       1.0  0.63790  0.58340  0.31900  1.0000 0.0288042496
C   C37       1.0  0.58130  0.89910  0.72600  1.0000 -0.1569711757
C   C38       1.0  0.41870  0.39910  0.77400  1.0000 -0.1569711757
C   C39       1.0  0.41870  0.10090  0.27400  1.0000 -0.1569711757
C   C40       1.0  0.58130  0.60090  0.22600  1.0000 -0.1569711757
C   C41       1.0  0.44060  0.89390  0.71350  1.0000 0.0484418813
C   C42       1.0  0.55940  0.39390  0.78650  1.0000 0.0484418813
C   C43       1.0  0.55940  0.10610  0.28650  1.0000 0.0484418813
C   C44       1.0  0.44060  0.60610  0.21350  1.0000 0.0484418813
C   C45       1.0  0.79250  0.92670  0.83440  1.0000 0.5772300209
C   C46       1.0  0.20750  0.42670  0.66560  1.0000 0.5772300209
C   C47       1.0  0.20750  0.07330  0.16560  1.0000 0.5772300209
C   C48       1.0  0.79250  0.57330  0.33440  1.0000 0.5772300209
N   N1        1.0  0.09700  0.68030  0.17420  1.0000 -0.2211718117
N   N2        1.0  0.90300  0.18030  0.32580  1.0000 -0.2211718117
N   N3        1.0  0.90300  0.31970  0.82580  1.0000 -0.2211718117
N   N4        1.0  0.09700  0.81970  0.67420  1.0000 -0.2211718117
N   N5        1.0  0.35230  0.90480  0.78880  1.0000 -0.2314630417
N   N6        1.0  0.64770  0.40480  0.71120  1.0000 -0.2314630417
N   N7        1.0  0.64770  0.09520  0.21120  1.0000 -0.2314630417
N   N8        1.0  0.35230  0.59520  0.28880  1.0000 -0.2314630417
N   N9        1.0  0.12460  0.00370  0.85690  1.0000 -0.5551254009
N   N10       1.0  0.87540  0.50370  0.64310  1.0000 -0.5511211338
N   N11       1.0  0.87540  0.99630  0.14310  1.0000 -0.5511211338
N   N12       1.0  0.12460  0.49630  0.35690  1.0000 -0.5511211338
N   N13       1.0  0.19820  0.04590  0.83630  1.0000 0.4315454955
N   N14       1.0  0.80180  0.54590  0.66370  1.0000 0.4315454955
N   N15       1.0  0.80180  0.95410  0.16370  1.0000 0.4315454955
N   N16       1.0  0.19820  0.45410  0.33630  1.0000 0.4315454955
N   N17       1.0  0.26370  0.08810  0.81400  1.0000 -0.3731298898
N   N18       1.0  0.73630  0.58810  0.68600  1.0000 -0.3731298898
N   N19       1.0  0.73630  0.91190  0.18600  1.0000 -0.3731298898
N   N20       1.0  0.26370  0.41190  0.31400  1.0000 -0.3731298898
O   O1        1.0  0.08800  0.90310  0.04970  1.0000 -0.5511211338
O   O2        1.0  0.91200  0.40310  0.45030  1.0000 -0.5511211338
O   O3        1.0  0.91200  0.09690  0.95030  1.0000 -0.5511211338
O   O4        1.0  0.08800  0.59690  0.54970  1.0000 -0.5511211338
O   O5        1.0  0.10270  0.84550  0.90730  1.0000 -0.5511211338
O   O6        1.0  0.89730  0.34550  0.59270  1.0000 -0.5511211338
O   O7        1.0  0.89730  0.15450  0.09270  1.0000 -0.5511211338
O   O8        1.0  0.10270  0.65450  0.40730  1.0000 -0.5511211338
O   O9        1.0  0.82670  0.94880  0.91710  1.0000 -0.5354773854
O   O10       1.0  0.17330  0.44880  0.58290  1.0000 -0.5354773854
O   O11       1.0  0.17330  0.05120  0.08290  1.0000 -0.5354773854
O   O12       1.0  0.82670  0.55120  0.41710  1.0000 -0.5354773854
O   O13       1.0  0.86780  0.91160  0.76380  1.0000 -0.5337808883
O   O14       1.0  0.13220  0.41160  0.73620  1.0000 -0.5337808883
O   O15       1.0  0.13220  0.08840  0.23620  1.0000 -0.5337808883
O   O16       1.0  0.86780  0.58840  0.26380  1.0000 -0.5337808883
