# DDEC6 charges by PACMAN v1.1 (https://github.com/mtap-research/PACMAN-charge/)
data_2014[Zn][pcu]3[ASR]22
_chemical_formula_sum              "Zn4 H48 C54 O13"
_cell_length_a       17.1607
_cell_length_b       17.1607
_cell_length_c       17.1607
_cell_angle_alpha    90
_cell_angle_beta     90
_cell_angle_gamma    90

_symmetry_space_group_name_H-M    "P 1"
_symmetry_Int_Tables_number       1

loop_
  _symmetry_equiv_pos_as_xyz
  'x, y, z'

loop_
  _atom_site_type_symbol
  _atom_site_label
  _atom_site_symmetry_multiplicity
  _atom_site_fract_x
  _atom_site_fract_y
  _atom_site_fract_z
  _atom_site_occupancy
  _atom_site_charge
Zn  Zn1       1.0  0.56568  0.43432  0.43432  1.0000 0.9572646284
Zn  Zn2       1.0  0.43432  0.56568  0.43432  1.0000 0.9572646284
Zn  Zn3       1.0  0.43432  0.43432  0.56568  1.0000 0.9572646284
Zn  Zn4       1.0  0.56568  0.56568  0.56568  1.0000 0.9572646284
H   H1        1.0  0.35994  0.99948  0.56580  1.0000 0.1294165565
H   H2        1.0  0.64006  0.00052  0.56580  1.0000 0.1294165565
H   H3        1.0  0.64006  0.99948  0.43420  1.0000 0.1294165565
H   H4        1.0  0.35994  0.00052  0.43420  1.0000 0.1294165565
H   H5        1.0  0.56580  0.35994  0.99948  1.0000 0.1294165565
H   H6        1.0  0.56580  0.64006  0.00052  1.0000 0.1294165565
H   H7        1.0  0.43420  0.64006  0.99948  1.0000 0.1294165565
H   H8        1.0  0.43420  0.35994  0.00052  1.0000 0.1294165565
H   H9        1.0  0.99948  0.56580  0.35994  1.0000 0.1294165565
H   H10       1.0  0.00052  0.56580  0.64006  1.0000 0.1294165565
H   H11       1.0  0.99948  0.43420  0.64006  1.0000 0.1294165565
H   H12       1.0  0.00052  0.43420  0.35994  1.0000 0.1294165565
H   H13       1.0  0.99948  0.35994  0.56580  1.0000 0.1294165565
H   H14       1.0  0.00052  0.64006  0.56580  1.0000 0.1294165565
H   H15       1.0  0.99948  0.64006  0.43420  1.0000 0.1294165565
H   H16       1.0  0.00052  0.35994  0.43420  1.0000 0.1294165565
H   H17       1.0  0.35994  0.56580  0.99948  1.0000 0.1294165565
H   H18       1.0  0.64006  0.56580  0.00052  1.0000 0.1294165565
H   H19       1.0  0.64006  0.43420  0.99948  1.0000 0.1294165565
H   H20       1.0  0.35994  0.43420  0.00052  1.0000 0.1294165565
H   H21       1.0  0.56580  0.99948  0.35994  1.0000 0.1294165565
H   H22       1.0  0.56580  0.00052  0.64006  1.0000 0.1294165565
H   H23       1.0  0.43420  0.99948  0.64006  1.0000 0.1294165565
H   H24       1.0  0.43420  0.00052  0.35994  1.0000 0.1294165565
H   H25       1.0  0.41171  0.20200  0.58829  1.0000 0.1192619348
H   H26       1.0  0.36019  0.07690  0.63981  1.0000 0.1294165565
H   H27       1.0  0.58829  0.79800  0.58829  1.0000 0.1192619348
H   H28       1.0  0.63981  0.92310  0.63981  1.0000 0.1294165565
H   H29       1.0  0.58829  0.20200  0.41171  1.0000 0.1192619348
H   H30       1.0  0.63981  0.07690  0.36019  1.0000 0.1294165565
H   H31       1.0  0.41171  0.79800  0.41171  1.0000 0.1192619348
H   H32       1.0  0.36019  0.92310  0.36019  1.0000 0.1294165565
H   H33       1.0  0.58829  0.41171  0.20200  1.0000 0.1192619348
H   H34       1.0  0.63981  0.36019  0.07690  1.0000 0.1294165565
H   H35       1.0  0.58829  0.58829  0.79800  1.0000 0.1192619348
H   H36       1.0  0.63981  0.63981  0.92310  1.0000 0.1294165565
H   H37       1.0  0.41171  0.58829  0.20200  1.0000 0.1192619348
H   H38       1.0  0.36019  0.63981  0.07690  1.0000 0.1294165565
H   H39       1.0  0.41171  0.41171  0.79800  1.0000 0.1192619348
H   H40       1.0  0.36019  0.36019  0.92310  1.0000 0.1294165565
H   H41       1.0  0.20200  0.58829  0.41171  1.0000 0.1192619348
H   H42       1.0  0.07690  0.63981  0.36019  1.0000 0.1294165565
H   H43       1.0  0.79800  0.58829  0.58829  1.0000 0.1192619348
H   H44       1.0  0.92310  0.63981  0.63981  1.0000 0.1294165565
H   H45       1.0  0.20200  0.41171  0.58829  1.0000 0.1192619348
H   H46       1.0  0.07690  0.36019  0.63981  1.0000 0.1294165565
H   H47       1.0  0.79800  0.41171  0.41171  1.0000 0.1192619348
H   H48       1.0  0.92310  0.36019  0.36019  1.0000 0.1294165565
C   C1        1.0  0.44949  0.16638  0.55051  1.0000 -0.1631426102
C   C2        1.0  0.44988  0.08570  0.55012  1.0000 0.1192619348
C   C3        1.0  0.39625  0.03742  0.60375  1.0000 -0.3897716663
C   C4        1.0  0.55051  0.83362  0.55051  1.0000 -0.1631426102
C   C5        1.0  0.55012  0.91430  0.55012  1.0000 0.1192619348
C   C6        1.0  0.60375  0.96258  0.60375  1.0000 -0.3897716663
C   C7        1.0  0.55051  0.16638  0.44949  1.0000 -0.1631426102
C   C8        1.0  0.55012  0.08570  0.44988  1.0000 0.1192619348
C   C9        1.0  0.60375  0.03742  0.39625  1.0000 -0.3897716663
C   C10       1.0  0.44949  0.83362  0.44949  1.0000 -0.1631426102
C   C11       1.0  0.44988  0.91430  0.44988  1.0000 0.1192619348
C   C12       1.0  0.39625  0.96258  0.39625  1.0000 -0.3897716663
C   C13       1.0  0.55051  0.44949  0.16638  1.0000 -0.1631426102
C   C14       1.0  0.55012  0.44988  0.08570  1.0000 0.1192619348
C   C15       1.0  0.60375  0.39625  0.03742  1.0000 -0.3897716663
C   C16       1.0  0.55051  0.55051  0.83362  1.0000 -0.1631426102
C   C17       1.0  0.55012  0.55012  0.91430  1.0000 0.1192619348
C   C18       1.0  0.60375  0.60375  0.96258  1.0000 -0.3897716663
C   C19       1.0  0.44949  0.55051  0.16638  1.0000 -0.1631426102
C   C20       1.0  0.44988  0.55012  0.08570  1.0000 0.1192619348
C   C21       1.0  0.39625  0.60375  0.03742  1.0000 -0.3897716663
C   C22       1.0  0.44949  0.44949  0.83362  1.0000 -0.1631426102
C   C23       1.0  0.44988  0.44988  0.91430  1.0000 0.1192619348
C   C24       1.0  0.39625  0.39625  0.96258  1.0000 -0.3897716663
C   C25       1.0  0.16638  0.55051  0.44949  1.0000 -0.1631426102
C   C26       1.0  0.08570  0.55012  0.44988  1.0000 0.1192619348
C   C27       1.0  0.03742  0.60375  0.39625  1.0000 -0.3897716663
C   C28       1.0  0.83362  0.55051  0.55051  1.0000 -0.1631426102
C   C29       1.0  0.91430  0.55012  0.55012  1.0000 0.1192619348
C   C30       1.0  0.96258  0.60375  0.60375  1.0000 -0.3897716663
C   C31       1.0  0.16638  0.44949  0.55051  1.0000 -0.1631426102
C   C32       1.0  0.08570  0.44988  0.55012  1.0000 0.1192619348
C   C33       1.0  0.03742  0.39625  0.60375  1.0000 -0.3897716663
C   C34       1.0  0.83362  0.44949  0.44949  1.0000 -0.1631426102
C   C35       1.0  0.91430  0.44988  0.44988  1.0000 0.1192619348
C   C36       1.0  0.96258  0.39625  0.39625  1.0000 -0.3897716663
C   C37       1.0  0.50000  0.29196  0.50000  1.0000 0.5817824268
C   C38       1.0  0.50000  0.20839  0.50000  1.0000 -0.0725581906
C   C39       1.0  0.50000  0.04262  0.50000  1.0000 -0.0297440898
C   C40       1.0  0.50000  0.70804  0.50000  1.0000 0.5817824268
C   C41       1.0  0.50000  0.79161  0.50000  1.0000 -0.0725581906
C   C42       1.0  0.50000  0.95738  0.50000  1.0000 -0.0297440898
C   C43       1.0  0.50000  0.50000  0.29196  1.0000 0.5817824268
C   C44       1.0  0.50000  0.50000  0.20839  1.0000 -0.0725581906
C   C45       1.0  0.50000  0.50000  0.04262  1.0000 -0.0297440898
C   C46       1.0  0.50000  0.50000  0.70804  1.0000 0.5817824268
C   C47       1.0  0.50000  0.50000  0.79161  1.0000 -0.0725581906
C   C48       1.0  0.50000  0.50000  0.95738  1.0000 -0.0297440898
C   C49       1.0  0.29196  0.50000  0.50000  1.0000 0.5817824268
C   C50       1.0  0.20839  0.50000  0.50000  1.0000 -0.0725581906
C   C51       1.0  0.04262  0.50000  0.50000  1.0000 -0.0297440898
C   C52       1.0  0.70804  0.50000  0.50000  1.0000 0.5817824268
C   C53       1.0  0.79161  0.50000  0.50000  1.0000 -0.0725581906
C   C54       1.0  0.95738  0.50000  0.50000  1.0000 -0.0297440898
O   O1        1.0  0.54793  0.32563  0.45207  1.0000 -0.5481564141
O   O2        1.0  0.45207  0.67437  0.45207  1.0000 -0.5481564141
O   O3        1.0  0.45207  0.32563  0.54793  1.0000 -0.5481564141
O   O4        1.0  0.54793  0.67437  0.54793  1.0000 -0.5481564141
O   O5        1.0  0.45207  0.54793  0.32563  1.0000 -0.5481564141
O   O6        1.0  0.45207  0.45207  0.67437  1.0000 -0.5481564141
O   O7        1.0  0.54793  0.45207  0.32563  1.0000 -0.5481564141
O   O8        1.0  0.54793  0.54793  0.67437  1.0000 -0.5481564141
O   O9        1.0  0.32563  0.45207  0.54793  1.0000 -0.5481564141
O   O10       1.0  0.67437  0.45207  0.45207  1.0000 -0.5481564141
O   O11       1.0  0.32563  0.54793  0.45207  1.0000 -0.5481564141
O   O12       1.0  0.67437  0.54793  0.54793  1.0000 -0.5481564141
O   O13       1.0  0.50000  0.50000  0.50000  1.0000 -1.0143735743
