# DDEC6 charges by PACMAN v1.1 (https://github.com/mtap-research/PACMAN-charge/)
data_2014[Zn][pcu]3[ASR]13
_chemical_formula_sum              "Zn8 H24 C48 O26"
_cell_length_a       18.0449
_cell_length_b       18.0449
_cell_length_c       18.0449
_cell_angle_alpha    60
_cell_angle_beta     60
_cell_angle_gamma    60

_symmetry_space_group_name_H-M    "P 1"
_symmetry_Int_Tables_number       1

loop_
  _symmetry_equiv_pos_as_xyz
  'x, y, z'

loop_
  _atom_site_type_symbol
  _atom_site_label
  _atom_site_symmetry_multiplicity
  _atom_site_fract_x
  _atom_site_fract_y
  _atom_site_fract_z
  _atom_site_occupancy
  _atom_site_charge
Zn  Zn1       1.0  0.38137  0.20621  0.20621  1.0000 0.9325358824
Zn  Zn2       1.0  0.20621  0.38137  0.20621  1.0000 0.9325358824
Zn  Zn3       1.0  0.20621  0.20621  0.38137  1.0000 0.9325358824
Zn  Zn4       1.0  0.20621  0.20621  0.20621  1.0000 0.9325358824
Zn  Zn5       1.0  0.79379  0.61863  0.79379  1.0000 0.9325358824
Zn  Zn6       1.0  0.61863  0.79379  0.79379  1.0000 0.9325358824
Zn  Zn7       1.0  0.79379  0.79379  0.61863  1.0000 0.9325358824
Zn  Zn8       1.0  0.79379  0.79379  0.79379  1.0000 0.9325358824
H   H1        1.0  0.56398  0.34055  0.04774  1.0000 0.1057768368
H   H2        1.0  0.34055  0.56398  0.04774  1.0000 0.1044230268
H   H3        1.0  0.04774  0.04774  0.56398  1.0000 0.1057768368
H   H4        1.0  0.04774  0.04774  0.34055  1.0000 0.1057768368
H   H5        1.0  0.34055  0.04774  0.04774  1.0000 0.1044230268
H   H6        1.0  0.04774  0.56398  0.34055  1.0000 0.1044230268
H   H7        1.0  0.04774  0.34055  0.56398  1.0000 0.1057768368
H   H8        1.0  0.56398  0.04774  0.34055  1.0000 0.1057768368
H   H9        1.0  0.34055  0.04774  0.56398  1.0000 0.1057768368
H   H10       1.0  0.04774  0.34055  0.04774  1.0000 0.1057768368
H   H11       1.0  0.04774  0.56398  0.04774  1.0000 0.1044230268
H   H12       1.0  0.65945  0.43602  0.95226  1.0000 0.1057768368
H   H13       1.0  0.43602  0.65945  0.95226  1.0000 0.1044230268
H   H14       1.0  0.95226  0.95226  0.43602  1.0000 0.1057768368
H   H15       1.0  0.95226  0.95226  0.65945  1.0000 0.1057768368
H   H16       1.0  0.95226  0.43602  0.95226  1.0000 0.1057768368
H   H17       1.0  0.95226  0.65945  0.95226  1.0000 0.1044230268
H   H18       1.0  0.43602  0.95226  0.65945  1.0000 0.1057768368
H   H19       1.0  0.65945  0.95226  0.43602  1.0000 0.1057768368
H   H20       1.0  0.95226  0.65945  0.43602  1.0000 0.1057768368
H   H21       1.0  0.65945  0.95226  0.95226  1.0000 0.1057768368
H   H22       1.0  0.43602  0.95226  0.95226  1.0000 0.1057768368
H   H23       1.0  0.95226  0.43602  0.65945  1.0000 0.1057768368
H   H24       1.0  0.56398  0.04774  0.04774  1.0000 0.1044230268
C   C1        1.0  0.53160  0.41760  0.02540  1.0000 -0.0604799439
C   C2        1.0  0.41760  0.53160  0.02540  1.0000 -0.0604799439
C   C3        1.0  0.02540  0.02540  0.53160  1.0000 -0.0604799439
C   C4        1.0  0.02540  0.02540  0.41760  1.0000 -0.0604799439
C   C5        1.0  0.53160  0.02540  0.02540  1.0000 -0.0604799439
C   C6        1.0  0.41760  0.02540  0.02540  1.0000 -0.0604799439
C   C7        1.0  0.02540  0.53160  0.41760  1.0000 -0.0604799439
C   C8        1.0  0.02540  0.41760  0.53160  1.0000 -0.0604799439
C   C9        1.0  0.53160  0.02540  0.41760  1.0000 -0.0604799439
C   C10       1.0  0.41760  0.02540  0.53160  1.0000 -0.0604799439
C   C11       1.0  0.02540  0.41760  0.02540  1.0000 -0.0547975346
C   C12       1.0  0.02540  0.53160  0.02540  1.0000 -0.0604799439
C   C13       1.0  0.58240  0.46840  0.97460  1.0000 -0.0604799439
C   C14       1.0  0.46840  0.58240  0.97460  1.0000 -0.0604799439
C   C15       1.0  0.97460  0.97460  0.46840  1.0000 -0.0547975346
C   C16       1.0  0.97460  0.97460  0.58240  1.0000 -0.0547975346
C   C17       1.0  0.97460  0.46840  0.97460  1.0000 -0.0604799439
C   C18       1.0  0.97460  0.58240  0.97460  1.0000 -0.0604799439
C   C19       1.0  0.46840  0.97460  0.58240  1.0000 -0.0604799439
C   C20       1.0  0.58240  0.97460  0.46840  1.0000 -0.0604799439
C   C21       1.0  0.97460  0.46840  0.58240  1.0000 -0.0604799439
C   C22       1.0  0.97460  0.58240  0.46840  1.0000 -0.0604799439
C   C23       1.0  0.58240  0.97460  0.97460  1.0000 -0.0604799439
C   C24       1.0  0.46840  0.97460  0.97460  1.0000 -0.0604799439
C   C25       1.0  0.44560  0.44560  0.05440  1.0000 -0.096689932
C   C26       1.0  0.38970  0.38970  0.11030  1.0000 0.5783329165
C   C27       1.0  0.05440  0.05440  0.44560  1.0000 -0.0947228193
C   C28       1.0  0.11030  0.11030  0.38970  1.0000 0.5783329165
C   C29       1.0  0.44560  0.05440  0.05440  1.0000 -0.096689932
C   C30       1.0  0.38970  0.11030  0.11030  1.0000 0.5783329165
C   C31       1.0  0.05440  0.44560  0.44560  1.0000 -0.096689932
C   C32       1.0  0.11030  0.38970  0.38970  1.0000 0.5783329165
C   C33       1.0  0.44560  0.05440  0.44560  1.0000 -0.096689932
C   C34       1.0  0.38970  0.11030  0.38970  1.0000 0.5783329165
C   C35       1.0  0.05440  0.44560  0.05440  1.0000 -0.096689932
C   C36       1.0  0.11030  0.38970  0.11030  1.0000 0.5783329165
C   C37       1.0  0.55440  0.55440  0.94560  1.0000 -0.096689932
C   C38       1.0  0.61030  0.61030  0.88970  1.0000 0.5783329165
C   C39       1.0  0.94560  0.94560  0.55440  1.0000 -0.096689932
C   C40       1.0  0.88970  0.88970  0.61030  1.0000 0.5783329165
C   C41       1.0  0.94560  0.55440  0.94560  1.0000 -0.096689932
C   C42       1.0  0.88970  0.61030  0.88970  1.0000 0.5783329165
C   C43       1.0  0.55440  0.94560  0.55440  1.0000 -0.0947228193
C   C44       1.0  0.61030  0.88970  0.61030  1.0000 0.5783329165
C   C45       1.0  0.94560  0.55440  0.55440  1.0000 -0.096689932
C   C46       1.0  0.88970  0.61030  0.61030  1.0000 0.5783329165
C   C47       1.0  0.55440  0.94560  0.94560  1.0000 -0.096689932
C   C48       1.0  0.61030  0.88970  0.88970  1.0000 0.5783329165
O   O1        1.0  0.25000  0.25000  0.25000  1.0000 -1.0376877382
O   O2        1.0  0.75000  0.75000  0.75000  1.0000 -1.0376877382
O   O3        1.0  0.42550  0.30590  0.13430  1.0000 -0.5109690671
O   O4        1.0  0.30590  0.42550  0.13430  1.0000 -0.5109690671
O   O5        1.0  0.13430  0.13430  0.42550  1.0000 -0.5109690671
O   O6        1.0  0.13430  0.13430  0.30590  1.0000 -0.5109690671
O   O7        1.0  0.42550  0.13430  0.13430  1.0000 -0.5109690671
O   O8        1.0  0.30590  0.13430  0.13430  1.0000 -0.5109690671
O   O9        1.0  0.13430  0.42550  0.30590  1.0000 -0.5109690671
O   O10       1.0  0.13430  0.30590  0.42550  1.0000 -0.5109690671
O   O11       1.0  0.42550  0.13430  0.30590  1.0000 -0.5109690671
O   O12       1.0  0.30590  0.13430  0.42550  1.0000 -0.5109690671
O   O13       1.0  0.13430  0.30590  0.13430  1.0000 -0.5109690671
O   O14       1.0  0.13430  0.42550  0.13430  1.0000 -0.5109690671
O   O15       1.0  0.69410  0.57450  0.86570  1.0000 -0.5109690671
O   O16       1.0  0.57450  0.69410  0.86570  1.0000 -0.5109690671
O   O17       1.0  0.86570  0.86570  0.57450  1.0000 -0.5109690671
O   O18       1.0  0.86570  0.86570  0.69410  1.0000 -0.5109690671
O   O19       1.0  0.86570  0.57450  0.86570  1.0000 -0.5109690671
O   O20       1.0  0.86570  0.69410  0.86570  1.0000 -0.5109690671
O   O21       1.0  0.57450  0.86570  0.69410  1.0000 -0.5109690671
O   O22       1.0  0.69410  0.86570  0.57450  1.0000 -0.5109690671
O   O23       1.0  0.86570  0.57450  0.69410  1.0000 -0.5109690671
O   O24       1.0  0.86570  0.69410  0.57450  1.0000 -0.5109690671
O   O25       1.0  0.69410  0.86570  0.86570  1.0000 -0.5109690671
O   O26       1.0  0.57450  0.86570  0.86570  1.0000 -0.5109690671
