# DDEC6 charges by PACMAN v1.1 (https://github.com/mtap-research/PACMAN-charge/)
data_2014[Zn][nan]3[ASR]24
_chemical_formula_sum              "Zn4 H66 C96 N14 O12"
_cell_length_a       8.4804
_cell_length_b       14.1017
_cell_length_c       20.7617
_cell_angle_alpha    83.472
_cell_angle_beta     81.241
_cell_angle_gamma    82.823

_symmetry_space_group_name_H-M    "P 1"
_symmetry_Int_Tables_number       1

loop_
  _symmetry_equiv_pos_as_xyz
  'x, y, z'

loop_
  _atom_site_type_symbol
  _atom_site_label
  _atom_site_symmetry_multiplicity
  _atom_site_fract_x
  _atom_site_fract_y
  _atom_site_fract_z
  _atom_site_occupancy
  _atom_site_charge
Zn  Zn1       1.0  0.80240  0.38528  0.08453  1.0000 0.7671178515
Zn  Zn2       1.0  0.19760  0.61472  0.91547  1.0000 0.7671178515
Zn  Zn3       1.0  0.95977  0.36078  0.27634  1.0000 0.7541648682
Zn  Zn4       1.0  0.04023  0.63922  0.72366  1.0000 0.7541648682
H   H1        1.0  0.04120  0.80920  0.11320  1.0000 0.1106741049
H   H2        1.0  0.95880  0.19080  0.88680  1.0000 0.1106741049
H   H3        1.0  0.89610  0.73530  0.30300  1.0000 0.1106741049
H   H4        1.0  0.10390  0.26470  0.69700  1.0000 0.1106741049
H   H5        1.0  0.85330  0.58760  0.27890  1.0000 0.1038026671
H   H6        1.0  0.14670  0.41240  0.72110  1.0000 0.1038026671
H   H7        1.0  0.62010  0.31640  0.98120  1.0000 0.1106741049
H   H8        1.0  0.37990  0.68360  0.01880  1.0000 0.1106741049
H   H9        1.0  0.70580  0.33290  0.70240  1.0000 0.1188849156
H   H10       1.0  0.29420  0.66710  0.29760  1.0000 0.1188849156
H   H11       1.0  0.98740  0.66340  0.08820  1.0000 0.1188849156
H   H12       1.0  0.01260  0.33660  0.91180  1.0000 0.1188849156
H   H13       1.0  0.29040  0.82010  0.87210  1.0000 0.1188849156
H   H14       1.0  0.70960  0.17990  0.12790  1.0000 0.1188849156
H   H15       1.0  0.75520  0.42460  0.78180  1.0000 0.1188849156
H   H16       1.0  0.24480  0.57540  0.21820  1.0000 0.1188849156
H   H17       1.0  0.05820  0.99990  0.34630  1.0000 0.1188849156
H   H18       1.0  0.94180  0.00010  0.65370  1.0000 0.1106741049
H   H19       1.0  0.44990  0.41120  0.54160  1.0000 0.1106741049
H   H20       1.0  0.55010  0.58880  0.45840  1.0000 0.1106741049
H   H21       1.0  0.99180  0.11130  0.16590  1.0000 0.1106741049
H   H22       1.0  0.00820  0.88870  0.83410  1.0000 0.1106741049
H   H23       1.0  0.41670  0.30470  0.90910  1.0000 0.1281585373
H   H24       1.0  0.58330  0.69530  0.09090  1.0000 0.1281585373
H   H25       1.0  0.63890  0.08480  0.80440  1.0000 0.1188849156
H   H26       1.0  0.36110  0.91520  0.19560  1.0000 0.1188849156
H   H27       1.0  0.96570  0.95970  0.13900  1.0000 0.1106741049
H   H28       1.0  0.03430  0.04030  0.86100  1.0000 0.1106741049
H   H29       1.0  0.69460  0.11710  0.61510  1.0000 0.1281585373
H   H30       1.0  0.30540  0.88290  0.38490  1.0000 0.1281585373
H   H31       1.0  0.36800  0.21300  0.83030  1.0000 0.1281585373
H   H32       1.0  0.63200  0.78700  0.16970  1.0000 0.1281585373
H   H33       1.0  0.53480  0.14140  0.02970  1.0000 0.1106741049
H   H34       1.0  0.46520  0.85860  0.97030  1.0000 0.1106741049
H   H35       1.0  0.03820  0.84950  0.32040  1.0000 0.1106741049
H   H36       1.0  0.96180  0.15050  0.67960  1.0000 0.1106741049
H   H37       1.0  0.79050  0.56410  0.96930  1.0000 0.1281585373
H   H38       1.0  0.20950  0.43590  0.03070  1.0000 0.1281585373
H   H39       1.0  0.71320  0.54830  0.86340  1.0000 0.1281585373
H   H40       1.0  0.28680  0.45170  0.13660  1.0000 0.1281585373
H   H41       1.0  0.61190  0.92410  0.83690  1.0000 0.1188849156
H   H42       1.0  0.38810  0.07590  0.16310  1.0000 0.1188849156
H   H43       1.0  0.30990  0.24850  0.05070  1.0000 0.1106741049
H   H44       1.0  0.69010  0.75150  0.94930  1.0000 0.1106741049
H   H45       1.0  0.34190  0.91950  0.69520  1.0000 0.1281585373
H   H46       1.0  0.65810  0.08050  0.30480  1.0000 0.1281585373
H   H47       1.0  0.36430  0.08050  0.66430  1.0000 0.1188849156
H   H48       1.0  0.63570  0.91950  0.33570  1.0000 0.1188849156
H   H49       1.0  0.39770  0.35400  0.64970  1.0000 0.1188849156
H   H50       1.0  0.60230  0.64600  0.35030  1.0000 0.1188849156
H   H51       1.0  0.43600  0.42520  0.42540  1.0000 0.1281585373
H   H52       1.0  0.56400  0.57480  0.57460  1.0000 0.1281585373
H   H53       1.0  0.48640  0.58890  0.79170  1.0000 0.1106741049
H   H54       1.0  0.51360  0.41110  0.20830  1.0000 0.1106741049
H   H55       1.0  0.74050  0.17180  0.50570  1.0000 0.1281585373
H   H56       1.0  0.25950  0.82820  0.49430  1.0000 0.1281585373
H   H57       1.0  0.59130  0.45600  0.31670  1.0000 0.1188849156
H   H58       1.0  0.40870  0.54400  0.68330  1.0000 0.1188849156
H   H59       1.0  0.86220  0.27530  0.41900  1.0000 0.1188849156
H   H60       1.0  0.13780  0.72470  0.58100  1.0000 0.1188849156
H   H61       1.0  0.59420  0.72370  0.72440  1.0000 0.1374573346
H   H62       1.0  0.40580  0.27630  0.27560  1.0000 0.1374573346
H   H63       1.0  0.26710  0.95620  0.98150  1.0000 0.1188849156
H   H64       1.0  0.73290  0.04380  0.01850  1.0000 0.1188849156
H   H65       1.0  0.04570  0.06640  0.99690  1.0000 0.1106741049
H   H66       1.0  0.95430  0.93360  0.00310  1.0000 0.1106741049
C   C1        1.0  0.87220  0.51610  0.16410  1.0000 0.5607709225
C   C2        1.0  0.12780  0.48390  0.83590  1.0000 0.5607709225
C   C3        1.0  0.53930  0.26020  0.75890  1.0000 0.1702965583
C   C4        1.0  0.46070  0.73980  0.24110  1.0000 0.1702965583
C   C5        1.0  0.50370  0.09930  0.73140  1.0000 0.1702965583
C   C6        1.0  0.49630  0.90070  0.26860  1.0000 0.1702965583
C   C7        1.0  0.00000  0.76560  0.14670  1.0000 -0.1501638108
C   C8        1.0  0.00000  0.23440  0.85330  1.0000 -0.1501638108
C   C9        1.0  0.91510  0.72110  0.25970  1.0000 -0.1595694362
C   C10       1.0  0.08490  0.27890  0.74030  1.0000 -0.1595694362
C   C11       1.0  0.88760  0.63300  0.24520  1.0000 -0.1314168934
C   C12       1.0  0.11240  0.36700  0.75480  1.0000 -0.1314168934
C   C13       1.0  0.65200  0.37650  0.96540  1.0000 0.1106741049
C   C14       1.0  0.34800  0.62350  0.03460  1.0000 0.1106741049
C   C15       1.0  0.00170  0.23410  0.04110  1.0000 0.5391170617
C   C16       1.0  0.99830  0.76590  0.95890  1.0000 0.5391170617
C   C17       1.0  0.97150  0.79090  0.21060  1.0000 0.0654729764
C   C18       1.0  0.02850  0.20910  0.78940  1.0000 0.0654729764
C   C19       1.0  0.64980  0.32560  0.74450  1.0000 -0.1777189587
C   C20       1.0  0.35020  0.67440  0.25550  1.0000 -0.1777189587
C   C21       1.0  0.96890  0.67760  0.13160  1.0000 -0.1019024607
C   C22       1.0  0.03110  0.32240  0.86840  1.0000 -0.1019024607
C   C23       1.0  0.91040  0.61010  0.18030  1.0000 -0.0557053637
C   C24       1.0  0.08960  0.38990  0.81970  1.0000 -0.0557053637
C   C25       1.0  0.47360  0.90710  0.76850  1.0000 0.1458452876
C   C26       1.0  0.52640  0.09290  0.23150  1.0000 0.1458452876
C   C27       1.0  0.35170  0.77910  0.84350  1.0000 0.1188849156
C   C28       1.0  0.64830  0.22090  0.15650  1.0000 0.1188849156
C   C29       1.0  0.67940  0.38100  0.79170  1.0000 -0.1595694362
C   C30       1.0  0.32060  0.61900  0.20830  1.0000 -0.1595694362
C   C31       1.0  0.59420  0.37000  0.85350  1.0000 0.1374573346
C   C32       1.0  0.40580  0.63000  0.14650  1.0000 0.1374573346
C   C33       1.0  0.03850  0.99220  0.30450  1.0000 -0.1096350436
C   C34       1.0  0.96150  0.00780  0.69550  1.0000 -0.1096350436
C   C35       1.0  0.99650  0.88670  0.22670  1.0000 0.0644015308
C   C36       1.0  0.00350  0.11330  0.77330  1.0000 0.0644015308
C   C37       1.0  0.49930  0.35170  0.55630  1.0000 -0.1697427546
C   C38       1.0  0.50070  0.64830  0.44370  1.0000 -0.1697427546
C   C39       1.0  0.99840  0.05890  0.19730  1.0000 -0.1019024607
C   C40       1.0  0.00160  0.94110  0.80270  1.0000 -0.1019024607
C   C41       1.0  0.47690  0.30900  0.86770  1.0000 -0.1595694362
C   C42       1.0  0.52310  0.69100  0.13230  1.0000 -0.1595694362
C   C43       1.0  0.54380  0.23030  0.64420  1.0000 0.1631215002
C   C44       1.0  0.45620  0.76970  0.35580  1.0000 0.1631215002
C   C45       1.0  0.15180  0.16830  0.02680  1.0000 -0.0327930415
C   C46       1.0  0.84820  0.83170  0.97320  1.0000 -0.0327930415
C   C47       1.0  0.02460  0.17090  0.27940  1.0000 0.5391170617
C   C48       1.0  0.97540  0.82910  0.72060  1.0000 0.5391170617
C   C49       1.0  0.57810  0.05180  0.78270  1.0000 -0.1595694362
C   C50       1.0  0.42190  0.94820  0.21730  1.0000 -0.1595694362
C   C51       1.0  0.98400  0.96730  0.18100  1.0000 -0.1501638108
C   C52       1.0  0.01600  0.03270  0.81900  1.0000 -0.1501638108
C   C53       1.0  0.42830  0.03580  0.00520  1.0000 0.0761234361
C   C54       1.0  0.57170  0.96420  0.99480  1.0000 0.0761234361
C   C55       1.0  0.60140  0.29850  0.51320  1.0000 0.1281585373
C   C56       1.0  0.39860  0.70150  0.48680  1.0000 0.1281585373
C   C57       1.0  0.64490  0.17650  0.60040  1.0000 -0.1697427546
C   C58       1.0  0.35510  0.82350  0.39960  1.0000 -0.1697427546
C   C59       1.0  0.44800  0.25400  0.82080  1.0000 -0.1595694362
C   C60       1.0  0.55200  0.74600  0.17920  1.0000 -0.1595694362
C   C61       1.0  0.43550  0.12420  0.02440  1.0000 -0.1595694362
C   C62       1.0  0.56450  0.87580  0.97560  1.0000 -0.1595694362
C   C63       1.0  0.02640  0.90160  0.28910  1.0000 -0.1595694362
C   C64       1.0  0.97360  0.09840  0.71090  1.0000 -0.1595694362
C   C65       1.0  0.74610  0.51200  0.95850  1.0000 -0.0327930415
C   C66       1.0  0.25390  0.48800  0.04150  1.0000 -0.0327930415
C   C67       1.0  0.02250  0.07210  0.26040  1.0000 -0.0327930415
C   C68       1.0  0.97750  0.92790  0.73960  1.0000 -0.0327930415
C   C69       1.0  0.70260  0.50390  0.90010  1.0000 -0.1019024607
C   C70       1.0  0.29740  0.49610  0.09990  1.0000 -0.1019024607
C   C71       1.0  0.56300  0.95560  0.80210  1.0000 -0.1595694362
C   C72       1.0  0.43700  0.04440  0.19790  1.0000 -0.1595694362
C   C73       1.0  0.30010  0.18970  0.03620  1.0000 -0.1096350436
C   C74       1.0  0.69990  0.81030  0.96380  1.0000 -0.1096350436
C   C75       1.0  0.40080  0.95300  0.71740  1.0000 -0.1501638108
C   C76       1.0  0.59920  0.04700  0.28260  1.0000 -0.1501638108
C   C77       1.0  0.41470  0.04920  0.69880  1.0000 -0.1697427546
C   C78       1.0  0.58530  0.95080  0.30120  1.0000 -0.1697427546
C   C79       1.0  0.46910  0.31780  0.62100  1.0000 -0.1697427546
C   C80       1.0  0.53090  0.68220  0.37900  1.0000 -0.1697427546
C   C81       1.0  0.53980  0.39890  0.41110  1.0000 -0.1314168934
C   C82       1.0  0.46020  0.60110  0.58890  1.0000 -0.1314168934
C   C83       1.0  0.45960  0.65310  0.79920  1.0000 -0.0543872443
C   C84       1.0  0.54040  0.34690  0.20080  1.0000 -0.0543872443
C   C85       1.0  0.67350  0.20930  0.53490  1.0000 -0.1697427546
C   C86       1.0  0.32650  0.79070  0.46510  1.0000 -0.1697427546
C   C87       1.0  0.62750  0.41540  0.35120  1.0000 -0.0366114591
C   C88       1.0  0.37250  0.58460  0.64880  1.0000 -0.0366114591
C   C89       1.0  0.77540  0.31690  0.40670  1.0000 0.0860725839
C   C90       1.0  0.22460  0.68310  0.59330  1.0000 0.0860725839
C   C91       1.0  0.51980  0.72670  0.76220  1.0000 -0.1019024607
C   C92       1.0  0.48020  0.27330  0.23780  1.0000 -0.1019024607
C   C93       1.0  0.27760  0.01530  0.99520  1.0000 -0.1595694362
C   C94       1.0  0.72240  0.98470  0.00480  1.0000 -0.1595694362
C   C95       1.0  0.14390  0.08150  0.00520  1.0000 -0.1019024607
C   C96       1.0  0.85610  0.91850  0.99480  1.0000 -0.1096350436
N   N1        1.0  0.63910  0.41720  0.90455  1.0000 -0.0008098903
N   N2        1.0  0.36090  0.58280  0.09545  1.0000 -0.0008098903
N   N3        1.0  0.35140  0.68610  0.85015  1.0000 -0.2868289192
N   N4        1.0  0.64860  0.31390  0.14985  1.0000 -0.2868289192
N   N5        1.0  0.71430  0.43040  0.00018  1.0000 -0.2868289192
N   N6        1.0  0.28570  0.56960  0.99982  1.0000 -0.2868289192
N   N7        1.0  0.45120  0.80840  0.79050  1.0000 0.0030605329
N   N8        1.0  0.54880  0.19160  0.20950  1.0000 0.0030605329
N   N9        1.0  0.51660  0.19850  0.71210  1.0000 -0.1974832181
N   N10       1.0  0.48340  0.80150  0.28790  1.0000 -0.1974832181
N   N11       1.0  0.63900  0.33450  0.44586  1.0000 0.0107318434
N   N12       1.0  0.36100  0.66550  0.55414  1.0000 0.0107318434
N   N13       1.0  0.77480  0.36450  0.34840  1.0000 -0.2952966456
N   N14       1.0  0.22520  0.63550  0.65160  1.0000 -0.2952966456
O   O1        1.0  0.84520  0.51110  0.10704  1.0000 -0.5065264766
O   O2        1.0  0.15480  0.48890  0.89296  1.0000 -0.5065264766
O   O3        1.0  0.01410  0.31370  0.06294  1.0000 -0.534234411
O   O4        1.0  0.98590  0.68630  0.93706  1.0000 -0.534234411
O   O5        1.0  0.86000  0.44700  0.20733  1.0000 -0.5643742148
O   O6        1.0  0.14000  0.55300  0.79267  1.0000 -0.5643742148
O   O7        1.0  0.87240  0.20950  0.03131  1.0000 -0.5819729034
O   O8        1.0  0.12760  0.79050  0.96869  1.0000 -0.5819729034
O   O9        1.0  0.99370  0.24060  0.23680  1.0000 -0.5449979369
O   O10       1.0  0.00630  0.75940  0.76320  1.0000 -0.5449979369
O   O11       1.0  0.05060  0.18240  0.33410  1.0000 -0.5643742148
O   O12       1.0  0.94940  0.81760  0.66590  1.0000 -0.5643742148
