# DDEC6 charges by PACMAN v1.1 (https://github.com/mtap-research/PACMAN-charge/)
data_2014[Zn][dia]3[ASR]11
_chemical_formula_sum              "Zn2 H12 C8 N16"
_cell_length_a       9.53003
_cell_length_b       9.53003
_cell_length_c       9.5631
_cell_angle_alpha    65.2822
_cell_angle_beta     114.718
_cell_angle_gamma    88.4376

_symmetry_space_group_name_H-M    "P 1"
_symmetry_Int_Tables_number       1

loop_
  _symmetry_equiv_pos_as_xyz
  'x, y, z'

loop_
  _atom_site_type_symbol
  _atom_site_label
  _atom_site_symmetry_multiplicity
  _atom_site_fract_x
  _atom_site_fract_y
  _atom_site_fract_z
  _atom_site_occupancy
  _atom_site_charge
Zn  Zn1       1.0  0.47715  0.80995  0.12990  1.0000 0.6600988135
Zn  Zn2       1.0  0.19005  0.52285  0.62990  1.0000 0.6600988135
H   H1        1.0  0.61840  0.64700  0.53610  1.0000 0.1583105996
H   H2        1.0  0.35300  0.38160  0.03610  1.0000 0.1583105996
H   H3        1.0  0.53310  0.66350  0.63940  1.0000 0.1680585742
H   H4        1.0  0.33650  0.46690  0.13940  1.0000 0.1680585742
H   H5        1.0  0.58170  0.49710  0.65490  1.0000 0.1680585742
H   H6        1.0  0.50290  0.41830  0.15490  1.0000 0.1680585742
H   H7        1.0  0.13330  0.00510  0.89750  1.0000 0.1544855013
H   H8        1.0  0.99490  0.86670  0.39750  1.0000 0.1544855013
H   H9        1.0  0.06260  0.17700  0.85490  1.0000 0.1680585742
H   H10       1.0  0.82300  0.93740  0.35490  1.0000 0.1680585742
H   H11       1.0  0.06180  0.14540  0.70640  1.0000 0.1680585742
H   H12       1.0  0.85460  0.93820  0.20640  1.0000 0.1680585742
C   C1        1.0  0.54380  0.60980  0.57770  1.0000 -0.500492312
C   C2        1.0  0.39020  0.45620  0.07770  1.0000 -0.500492312
C   C3        1.0  0.28110  0.15230  0.86770  1.0000 0.3575064763
C   C4        1.0  0.84770  0.71890  0.36770  1.0000 0.3575064763
C   C5        1.0  0.38780  0.64320  0.42820  1.0000 0.3517946526
C   C6        1.0  0.35680  0.61220  0.92820  1.0000 0.3517946526
C   C7        1.0  0.12010  0.11670  0.82800  1.0000 -0.4845350161
C   C8        1.0  0.88330  0.87990  0.32800  1.0000 -0.4845350161
N   N1        1.0  0.30550  0.29370  0.79110  1.0000 -0.2703684717
N   N2        1.0  0.70630  0.69450  0.29110  1.0000 -0.2703684717
N   N3        1.0  0.41930  0.04430  0.97930  1.0000 -0.2703684717
N   N4        1.0  0.95570  0.58070  0.47930  1.0000 -0.2703684717
N   N5        1.0  0.35430  0.71570  0.26180  1.0000 -0.2601073757
N   N6        1.0  0.28430  0.64570  0.76180  1.0000 -0.2601073757
N   N7        1.0  0.25600  0.60860  0.43780  1.0000 -0.2601073757
N   N8        1.0  0.39140  0.74400  0.93780  1.0000 -0.2601073757
N   N9        1.0  0.14070  0.66270  0.27040  1.0000 -0.0788185919
N   N10       1.0  0.33730  0.85930  0.77040  1.0000 -0.0788185919
N   N11       1.0  0.46740  0.27200  0.86310  1.0000 -0.0788185919
N   N12       1.0  0.72800  0.53260  0.36310  1.0000 -0.0788185919
N   N13       1.0  0.19930  0.72510  0.16520  1.0000 -0.0788185919
N   N14       1.0  0.27490  0.80070  0.66520  1.0000 -0.0788185919
N   N15       1.0  0.53360  0.12500  0.97390  1.0000 -0.0719955414
N   N16       1.0  0.87500  0.46640  0.47390  1.0000 -0.0719955414
