# DDEC6 charges by PACMAN v1.1 (https://github.com/mtap-research/PACMAN-charge/)
data_2014[Cu][nbo]3[ASR]4
_chemical_formula_sum              "Cu24 H96 C216 N24 O120"
_cell_length_a       27.9161
_cell_length_b       18.6627
_cell_length_c       32.3643
_cell_angle_alpha    90
_cell_angle_beta     112.655
_cell_angle_gamma    90

_symmetry_space_group_name_H-M    "P 1"
_symmetry_Int_Tables_number       1

loop_
  _symmetry_equiv_pos_as_xyz
  'x, y, z'

loop_
  _atom_site_type_symbol
  _atom_site_label
  _atom_site_symmetry_multiplicity
  _atom_site_fract_x
  _atom_site_fract_y
  _atom_site_fract_z
  _atom_site_occupancy
  _atom_site_charge
Cu  Cu1       1.0  0.70527  0.75541  0.49040  1.0000 0.8614956448
Cu  Cu2       1.0  0.29473  0.25541  0.00960  1.0000 0.8614956448
Cu  Cu3       1.0  0.29473  0.24459  0.50960  1.0000 0.8614956448
Cu  Cu4       1.0  0.70527  0.74459  0.99040  1.0000 0.8614956448
Cu  Cu5       1.0  0.79026  0.68589  0.49514  1.0000 0.8711362738
Cu  Cu6       1.0  0.20974  0.18589  0.00486  1.0000 0.8711362738
Cu  Cu7       1.0  0.20974  0.31411  0.50486  1.0000 0.8711362738
Cu  Cu8       1.0  0.79026  0.81411  0.99514  1.0000 0.8711362738
Cu  Cu9       1.0  0.79824  0.50197  0.26959  1.0000 0.8614956448
Cu  Cu10      1.0  0.20176  0.00197  0.23041  1.0000 0.8614956448
Cu  Cu11      1.0  0.20176  0.49803  0.73041  1.0000 0.8614956448
Cu  Cu12      1.0  0.79824  0.99803  0.76959  1.0000 0.8614956448
Cu  Cu13      1.0  0.71284  0.50715  0.19524  1.0000 0.8614956448
Cu  Cu14      1.0  0.28716  0.00715  0.30476  1.0000 0.8614956448
Cu  Cu15      1.0  0.28716  0.49285  0.80476  1.0000 0.8614956448
Cu  Cu16      1.0  0.71284  0.99285  0.69524  1.0000 0.8614956448
Cu  Cu17      1.0  0.29699  0.69087  0.03183  1.0000 0.8711362738
Cu  Cu18      1.0  0.70301  0.19087  0.46817  1.0000 0.8711362738
Cu  Cu19      1.0  0.70301  0.30913  0.96817  1.0000 0.8711362738
Cu  Cu20      1.0  0.29699  0.80913  0.53183  1.0000 0.8711362738
Cu  Cu21      1.0  0.21037  0.76168  0.02526  1.0000 0.8795072098
Cu  Cu22      1.0  0.78963  0.26168  0.47474  1.0000 0.8795072098
Cu  Cu23      1.0  0.78963  0.23832  0.97474  1.0000 0.8795072098
Cu  Cu24      1.0  0.21037  0.73832  0.52526  1.0000 0.8795072098
H   H1        1.0  0.54740  0.70670  0.23730  1.0000 0.2993954529
H   H2        1.0  0.45260  0.20670  0.26270  1.0000 0.2993954529
H   H3        1.0  0.45260  0.29330  0.76270  1.0000 0.2993954529
H   H4        1.0  0.54740  0.79330  0.73730  1.0000 0.2993954529
H   H5        1.0  0.44190  0.75380  0.28690  1.0000 0.2993954529
H   H6        1.0  0.55810  0.25380  0.21310  1.0000 0.2993954529
H   H7        1.0  0.55810  0.24620  0.71310  1.0000 0.2993954529
H   H8        1.0  0.44190  0.74620  0.78690  1.0000 0.2993954529
H   H9        1.0  0.74710  0.63490  0.35550  1.0000 0.1413883154
H   H10       1.0  0.25290  0.13490  0.14450  1.0000 0.1413883154
H   H11       1.0  0.25290  0.36510  0.64450  1.0000 0.1413883154
H   H12       1.0  0.74710  0.86510  0.85550  1.0000 0.1413883154
H   H13       1.0  0.62000  0.63950  0.24000  1.0000 0.1413883154
H   H14       1.0  0.38000  0.13950  0.26000  1.0000 0.1413883154
H   H15       1.0  0.38000  0.36050  0.76000  1.0000 0.1413883154
H   H16       1.0  0.62000  0.86050  0.74000  1.0000 0.1413883154
H   H17       1.0  0.61640  0.73390  0.35160  1.0000 0.1459954374
H   H18       1.0  0.38360  0.23390  0.14840  1.0000 0.1459954374
H   H19       1.0  0.38360  0.26610  0.64840  1.0000 0.1459954374
H   H20       1.0  0.61640  0.76610  0.85160  1.0000 0.1459954374
H   H21       1.0  0.37560  0.71610  0.17380  1.0000 0.1413883154
H   H22       1.0  0.62440  0.21610  0.32620  1.0000 0.1413883154
H   H23       1.0  0.62440  0.28390  0.82620  1.0000 0.1459954374
H   H24       1.0  0.37560  0.78390  0.67380  1.0000 0.1459954374
H   H25       1.0  0.24980  0.84150  0.15800  1.0000 0.1413883154
H   H26       1.0  0.75020  0.34150  0.34200  1.0000 0.1413883154
H   H27       1.0  0.75020  0.15850  0.84200  1.0000 0.1413883154
H   H28       1.0  0.24980  0.65850  0.65800  1.0000 0.1413883154
H   H29       1.0  0.37140  0.83190  0.27850  1.0000 0.1413883154
H   H30       1.0  0.62860  0.33190  0.22150  1.0000 0.1413883154
H   H31       1.0  0.62860  0.16810  0.72150  1.0000 0.1413883154
H   H32       1.0  0.37140  0.66810  0.77850  1.0000 0.1413883154
H   H33       1.0  0.94560  0.69350  0.70380  1.0000 0.2940762673
H   H34       1.0  0.05440  0.19350  0.79620  1.0000 0.2940762673
H   H35       1.0  0.05440  0.30650  0.29620  1.0000 0.2940762673
H   H36       1.0  0.94560  0.80650  0.20380  1.0000 0.2940762673
H   H37       1.0  0.05140  0.76470  0.82010  1.0000 0.2993954529
H   H38       1.0  0.94860  0.26470  0.67990  1.0000 0.2993954529
H   H39       1.0  0.94860  0.23530  0.17990  1.0000 0.2993954529
H   H40       1.0  0.05140  0.73530  0.32010  1.0000 0.2993954529
H   H41       1.0  0.75600  0.82850  0.62540  1.0000 0.1413883154
H   H42       1.0  0.24400  0.32850  0.87460  1.0000 0.1413883154
H   H43       1.0  0.24400  0.17150  0.37460  1.0000 0.1413883154
H   H44       1.0  0.75600  0.67150  0.12540  1.0000 0.1413883154
H   H45       1.0  0.88420  0.82660  0.74080  1.0000 0.1459954374
H   H46       1.0  0.11580  0.32660  0.75920  1.0000 0.1459954374
H   H47       1.0  0.11580  0.17340  0.25920  1.0000 0.1459954374
H   H48       1.0  0.88420  0.67340  0.24080  1.0000 0.1459954374
H   H49       1.0  0.87840  0.70270  0.63580  1.0000 0.1413883154
H   H50       1.0  0.12160  0.20270  0.86420  1.0000 0.1413883154
H   H51       1.0  0.12160  0.29730  0.36420  1.0000 0.1413883154
H   H52       1.0  0.87840  0.79730  0.13580  1.0000 0.1413883154
H   H53       1.0  0.12060  0.74640  0.88800  1.0000 0.1413883154
H   H54       1.0  0.87940  0.24640  0.61200  1.0000 0.1413883154
H   H55       1.0  0.87940  0.25360  0.11200  1.0000 0.1413883154
H   H56       1.0  0.12060  0.75360  0.38800  1.0000 0.1413883154
H   H57       1.0  0.24260  0.62680  0.89180  1.0000 0.1413883154
H   H58       1.0  0.75740  0.12680  0.60820  1.0000 0.1413883154
H   H59       1.0  0.75740  0.37320  0.10820  1.0000 0.1413883154
H   H60       1.0  0.24260  0.87320  0.39180  1.0000 0.1413883154
H   H61       1.0  0.11570  0.64500  0.77550  1.0000 0.1459954374
H   H62       1.0  0.88430  0.14500  0.72450  1.0000 0.1459954374
H   H63       1.0  0.88430  0.35500  0.22450  1.0000 0.1459954374
H   H64       1.0  0.11570  0.85500  0.27550  1.0000 0.1459954374
H   H65       1.0  0.94630  0.92690  0.46510  1.0000 0.2940762673
H   H66       1.0  0.05370  0.42690  0.03490  1.0000 0.2940762673
H   H67       1.0  0.05370  0.07310  0.53490  1.0000 0.2940762673
H   H68       1.0  0.94630  0.57310  0.96510  1.0000 0.2940762673
H   H69       1.0  0.74800  0.97190  0.46730  1.0000 0.1413883154
H   H70       1.0  0.25200  0.47190  0.03270  1.0000 0.1413883154
H   H71       1.0  0.25200  0.02810  0.53270  1.0000 0.1413883154
H   H72       1.0  0.74800  0.52810  0.96730  1.0000 0.1413883154
H   H73       1.0  0.87570  0.07640  0.46680  1.0000 0.1413883154
H   H74       1.0  0.12430  0.57640  0.03320  1.0000 0.1413883154
H   H75       1.0  0.12430  0.92360  0.53320  1.0000 0.1413883154
H   H76       1.0  0.87570  0.42360  0.96680  1.0000 0.1413883154
H   H77       1.0  0.87690  0.85930  0.48060  1.0000 0.1413883154
H   H78       1.0  0.12310  0.35930  0.01940  1.0000 0.1413883154
H   H79       1.0  0.12310  0.14070  0.51940  1.0000 0.1413883154
H   H80       1.0  0.87690  0.64070  0.98060  1.0000 0.1413883154
H   H81       1.0  0.54200  0.41900  0.49220  1.0000 0.2993954529
H   H82       1.0  0.45800  0.91900  0.00780  1.0000 0.2993954529
H   H83       1.0  0.45800  0.58100  0.50780  1.0000 0.2993954529
H   H84       1.0  0.54200  0.08100  0.99220  1.0000 0.2993954529
H   H85       1.0  0.73900  0.47260  0.49390  1.0000 0.1413883154
H   H86       1.0  0.26100  0.97260  0.00610  1.0000 0.1413883154
H   H87       1.0  0.26100  0.52740  0.50610  1.0000 0.1413883154
H   H88       1.0  0.73900  0.02740  0.99390  1.0000 0.1413883154
H   H89       1.0  0.61120  0.35990  0.48800  1.0000 0.1413883154
H   H90       1.0  0.38880  0.85990  0.01200  1.0000 0.1413883154
H   H91       1.0  0.38880  0.64010  0.51200  1.0000 0.1413883154
H   H92       1.0  0.61120  0.14010  0.98800  1.0000 0.1413883154
H   H93       1.0  0.61610  0.57740  0.50390  1.0000 0.1459954374
H   H94       1.0  0.38390  0.07740  0.99610  1.0000 0.1459954374
H   H95       1.0  0.38390  0.42260  0.49610  1.0000 0.1459954374
H   H96       1.0  0.61610  0.92260  0.00390  1.0000 0.1459954374
C   C1        1.0  0.71000  0.69800  0.41004  1.0000 0.5814346643
C   C2        1.0  0.29000  0.19800  0.08996  1.0000 0.5814346643
C   C3        1.0  0.29000  0.30200  0.58996  1.0000 0.5814346643
C   C4        1.0  0.71000  0.80200  0.91004  1.0000 0.5814346643
C   C5        1.0  0.68520  0.68250  0.36120  1.0000 -0.0188769826
C   C6        1.0  0.31480  0.18250  0.13880  1.0000 -0.0188769826
C   C7        1.0  0.31480  0.31750  0.63880  1.0000 -0.0188769826
C   C8        1.0  0.68520  0.81750  0.86120  1.0000 -0.0188769826
C   C9        1.0  0.71180  0.64760  0.33947  1.0000 -0.111223888
C   C10       1.0  0.28820  0.14760  0.16053  1.0000 -0.111223888
C   C11       1.0  0.28820  0.35240  0.66053  1.0000 -0.111223888
C   C12       1.0  0.71180  0.85240  0.83947  1.0000 -0.111223888
C   C13       1.0  0.68770  0.63030  0.29390  1.0000 -0.0097211734
C   C14       1.0  0.31230  0.13030  0.20610  1.0000 -0.0097211734
C   C15       1.0  0.31230  0.36970  0.70610  1.0000 -0.0097211734
C   C16       1.0  0.68770  0.86970  0.79390  1.0000 -0.0097211734
C   C17       1.0  0.63680  0.65050  0.27100  1.0000 -0.2012022432
C   C18       1.0  0.36320  0.15050  0.22900  1.0000 -0.2012022432
C   C19       1.0  0.36320  0.34950  0.72900  1.0000 -0.1946758371
C   C20       1.0  0.63680  0.84950  0.77100  1.0000 -0.1946758371
C   C21       1.0  0.61020  0.68610  0.29230  1.0000 0.21277391
C   C22       1.0  0.38980  0.18610  0.20770  1.0000 0.21277391
C   C23       1.0  0.38980  0.31390  0.70770  1.0000 0.21277391
C   C24       1.0  0.61020  0.81390  0.79230  1.0000 0.21277391
C   C25       1.0  0.63420  0.70580  0.33750  1.0000 -0.1691344516
C   C26       1.0  0.36580  0.20580  0.16250  1.0000 -0.1691344516
C   C27       1.0  0.36580  0.29420  0.66250  1.0000 -0.1691344516
C   C28       1.0  0.63420  0.79420  0.83750  1.0000 -0.1691344516
C   C29       1.0  0.71420  0.58720  0.26993  1.0000 0.5814346643
C   C30       1.0  0.28580  0.08720  0.23007  1.0000 0.5814346643
C   C31       1.0  0.28580  0.41280  0.73007  1.0000 0.5814346643
C   C32       1.0  0.71420  0.91280  0.76993  1.0000 0.5814346643
C   C33       1.0  0.52210  0.72020  0.28200  1.0000 0.4085382864
C   C34       1.0  0.47790  0.22020  0.21800  1.0000 0.4085382864
C   C35       1.0  0.47790  0.27980  0.71800  1.0000 0.4085382864
C   C36       1.0  0.52210  0.77980  0.78200  1.0000 0.4085382864
C   C37       1.0  0.46820  0.73700  0.24440  1.0000 0.4085382864
C   C38       1.0  0.53180  0.23700  0.25560  1.0000 0.4018078869
C   C39       1.0  0.53180  0.26300  0.75560  1.0000 0.4018078869
C   C40       1.0  0.46820  0.76300  0.74440  1.0000 0.4085382864
C   C41       1.0  0.38150  0.77570  0.23020  1.0000 0.2001824487
C   C42       1.0  0.61850  0.27570  0.26980  1.0000 0.2001824487
C   C43       1.0  0.61850  0.22430  0.76980  1.0000 0.2001824487
C   C44       1.0  0.38150  0.72430  0.73020  1.0000 0.2001824487
C   C45       1.0  0.35840  0.74980  0.18530  1.0000 -0.1820016262
C   C46       1.0  0.64160  0.24980  0.31470  1.0000 -0.1820016262
C   C47       1.0  0.64160  0.25020  0.81470  1.0000 -0.1820016262
C   C48       1.0  0.35840  0.75020  0.68530  1.0000 -0.1820016262
C   C49       1.0  0.30760  0.77770  0.15830  1.0000 -0.0188769826
C   C50       1.0  0.69240  0.27770  0.34170  1.0000 -0.0188769826
C   C51       1.0  0.69240  0.22230  0.84170  1.0000 -0.0188769826
C   C52       1.0  0.30760  0.72230  0.65830  1.0000 -0.0188769826
C   C53       1.0  0.28350  0.82450  0.17617  1.0000 -0.111223888
C   C54       1.0  0.71650  0.32450  0.32383  1.0000 -0.1042201833
C   C55       1.0  0.71650  0.17550  0.82383  1.0000 -0.1042201833
C   C56       1.0  0.28350  0.67550  0.67617  1.0000 -0.1042201833
C   C57       1.0  0.30680  0.84840  0.22056  1.0000 -0.0188769826
C   C58       1.0  0.69320  0.34840  0.27944  1.0000 -0.0188769826
C   C59       1.0  0.69320  0.15160  0.77944  1.0000 -0.0188769826
C   C60       1.0  0.30680  0.65160  0.72056  1.0000 -0.0188769826
C   C61       1.0  0.35620  0.81970  0.24767  1.0000 -0.2012022432
C   C62       1.0  0.64380  0.31970  0.25233  1.0000 -0.2012022432
C   C63       1.0  0.64380  0.18030  0.75233  1.0000 -0.2012022432
C   C64       1.0  0.35620  0.68030  0.74767  1.0000 -0.2012022432
C   C65       1.0  0.28590  0.75530  0.11080  1.0000 0.5814346643
C   C66       1.0  0.71410  0.25530  0.38920  1.0000 0.5814346643
C   C67       1.0  0.71410  0.24470  0.88920  1.0000 0.5814346643
C   C68       1.0  0.28590  0.74470  0.61080  1.0000 0.5814346643
C   C69       1.0  0.28154  0.90280  0.23840  1.0000 0.5814346643
C   C70       1.0  0.71846  0.40280  0.26160  1.0000 0.5814346643
C   C71       1.0  0.71846  0.09720  0.76160  1.0000 0.5814346643
C   C72       1.0  0.28154  0.59720  0.73840  1.0000 0.5814346643
C   C73       1.0  0.78650  0.74370  0.57475  1.0000 0.5814346643
C   C74       1.0  0.21350  0.24370  0.92525  1.0000 0.5814346643
C   C75       1.0  0.21350  0.25630  0.42525  1.0000 0.5814346643
C   C76       1.0  0.78650  0.75630  0.07475  1.0000 0.5814346643
C   C77       1.0  0.81360  0.76430  0.62384  1.0000 0.0012668971
C   C78       1.0  0.18640  0.26430  0.87616  1.0000 0.0012668971
C   C79       1.0  0.18640  0.23570  0.37616  1.0000 0.0012668971
C   C80       1.0  0.81360  0.73570  0.12384  1.0000 0.0012668971
C   C81       1.0  0.79020  0.81170  0.64228  1.0000 -0.111223888
C   C82       1.0  0.20980  0.31170  0.85772  1.0000 -0.111223888
C   C83       1.0  0.20980  0.18830  0.35772  1.0000 -0.111223888
C   C84       1.0  0.79020  0.68830  0.14228  1.0000 -0.1185066989
C   C85       1.0  0.81720  0.83550  0.68653  1.0000 -0.0097211734
C   C86       1.0  0.18280  0.33550  0.81347  1.0000 -0.0097211734
C   C87       1.0  0.18280  0.16450  0.31347  1.0000 -0.0097211734
C   C88       1.0  0.81720  0.66450  0.18653  1.0000 -0.0097211734
C   C89       1.0  0.86590  0.80970  0.71120  1.0000 -0.1691344516
C   C90       1.0  0.13410  0.30970  0.78880  1.0000 -0.1691344516
C   C91       1.0  0.13410  0.19030  0.28880  1.0000 -0.1691344516
C   C92       1.0  0.86590  0.69030  0.21120  1.0000 -0.1691344516
C   C93       1.0  0.88850  0.75870  0.69280  1.0000 0.2185508493
C   C94       1.0  0.11150  0.25870  0.80720  1.0000 0.2185508493
C   C95       1.0  0.11150  0.24130  0.30720  1.0000 0.2185508493
C   C96       1.0  0.88850  0.74130  0.19280  1.0000 0.2185508493
C   C97       1.0  0.86280  0.73650  0.64880  1.0000 -0.2129958983
C   C98       1.0  0.13720  0.23650  0.85120  1.0000 -0.2129958983
C   C99       1.0  0.13720  0.26350  0.35120  1.0000 -0.2129958983
C   C100      1.0  0.86280  0.76350  0.14880  1.0000 -0.2129958983
C   C101      1.0  0.79350  0.89290  0.70447  1.0000 0.5814346643
C   C102      1.0  0.20650  0.39290  0.79553  1.0000 0.5814346643
C   C103      1.0  0.20650  0.10710  0.29553  1.0000 0.5814346643
C   C104      1.0  0.79350  0.60710  0.20447  1.0000 0.5814346643
C   C105      1.0  0.97500  0.75200  0.75480  1.0000 0.3909852762
C   C106      1.0  0.02500  0.25200  0.74520  1.0000 0.3909852762
C   C107      1.0  0.02500  0.24800  0.24520  1.0000 0.3909852762
C   C108      1.0  0.97500  0.74800  0.25480  1.0000 0.3909852762
C   C109      1.0  0.02410  0.70830  0.76860  1.0000 0.4018078869
C   C110      1.0  0.97590  0.20830  0.73140  1.0000 0.4018078869
C   C111      1.0  0.97590  0.29170  0.23140  1.0000 0.4018078869
C   C112      1.0  0.02410  0.79170  0.26860  1.0000 0.4018078869
C   C113      1.0  0.11010  0.70150  0.82820  1.0000 0.21277391
C   C114      1.0  0.88990  0.20150  0.67180  1.0000 0.21277391
C   C115      1.0  0.88990  0.29850  0.17180  1.0000 0.21277391
C   C116      1.0  0.11010  0.79850  0.32820  1.0000 0.21277391
C   C117      1.0  0.13660  0.71720  0.87290  1.0000 -0.2012022432
C   C118      1.0  0.86340  0.21720  0.62710  1.0000 -0.2012022432
C   C119      1.0  0.86340  0.28280  0.12710  1.0000 -0.2012022432
C   C120      1.0  0.13660  0.78280  0.37290  1.0000 -0.2012022432
C   C121      1.0  0.18610  0.69110  0.89597  1.0000 -0.0097211734
C   C122      1.0  0.81390  0.19110  0.60403  1.0000 -0.0097211734
C   C123      1.0  0.81390  0.30890  0.10403  1.0000 -0.0097211734
C   C124      1.0  0.18610  0.80890  0.39597  1.0000 -0.0097211734
C   C125      1.0  0.20910  0.64620  0.87553  1.0000 -0.1185066989
C   C126      1.0  0.79090  0.14620  0.62447  1.0000 -0.1185066989
C   C127      1.0  0.79090  0.35380  0.12447  1.0000 -0.1185066989
C   C128      1.0  0.20910  0.85380  0.37553  1.0000 -0.1185066989
C   C129      1.0  0.18250  0.62970  0.83059  1.0000 -0.0022382246
C   C130      1.0  0.81750  0.12970  0.66941  1.0000 -0.0022382246
C   C131      1.0  0.81750  0.37030  0.16941  1.0000 -0.0022382246
C   C132      1.0  0.18250  0.87030  0.33059  1.0000 -0.0022382246
C   C133      1.0  0.13330  0.65660  0.80627  1.0000 -0.1691344516
C   C134      1.0  0.86670  0.15660  0.69373  1.0000 -0.1691344516
C   C135      1.0  0.86670  0.34340  0.19373  1.0000 -0.1691344516
C   C136      1.0  0.13330  0.84340  0.30627  1.0000 -0.1820016262
C   C137      1.0  0.21280  0.70760  0.94528  1.0000 0.5814346643
C   C138      1.0  0.78720  0.20760  0.55472  1.0000 0.5814346643
C   C139      1.0  0.78720  0.29240  0.05472  1.0000 0.5814346643
C   C140      1.0  0.21280  0.79240  0.44528  1.0000 0.5814346643
C   C141      1.0  0.20690  0.57930  0.80758  1.0000 0.5814346643
C   C142      1.0  0.79310  0.07930  0.69242  1.0000 0.5814346643
C   C143      1.0  0.79310  0.42070  0.19242  1.0000 0.5814346643
C   C144      1.0  0.20690  0.92070  0.30758  1.0000 0.5814346643
C   C145      1.0  0.78460  0.83860  0.48040  1.0000 0.5814346643
C   C146      1.0  0.21540  0.33860  0.01960  1.0000 0.5814346643
C   C147      1.0  0.21540  0.16140  0.51960  1.0000 0.5814346643
C   C148      1.0  0.78460  0.66140  0.98040  1.0000 0.5814346643
C   C149      1.0  0.80970  0.90750  0.47490  1.0000 -0.0097211734
C   C150      1.0  0.19030  0.40750  0.02510  1.0000 -0.0097211734
C   C151      1.0  0.19030  0.09250  0.52510  1.0000 -0.0097211734
C   C152      1.0  0.80970  0.59250  0.97490  1.0000 -0.0097211734
C   C153      1.0  0.78290  0.97130  0.46930  1.0000 -0.111223888
C   C154      1.0  0.21710  0.47130  0.03070  1.0000 -0.111223888
C   C155      1.0  0.21710  0.02870  0.53070  1.0000 -0.111223888
C   C156      1.0  0.78290  0.52870  0.96930  1.0000 -0.111223888
C   C157      1.0  0.80770  0.03420  0.46680  1.0000 -0.0188769826
C   C158      1.0  0.19230  0.53420  0.03320  1.0000 -0.0188769826
C   C159      1.0  0.19230  0.96580  0.53320  1.0000 -0.0188769826
C   C160      1.0  0.80770  0.46580  0.96680  1.0000 -0.0188769826
C   C161      1.0  0.85860  0.03320  0.46860  1.0000 -0.1629617851
C   C162      1.0  0.14140  0.53320  0.03140  1.0000 -0.1629617851
C   C163      1.0  0.14140  0.96680  0.53140  1.0000 -0.1629617851
C   C164      1.0  0.85860  0.46680  0.96860  1.0000 -0.1629617851
C   C165      1.0  0.88400  0.96670  0.47310  1.0000 0.21277391
C   C166      1.0  0.11600  0.46670  0.02690  1.0000 0.21277391
C   C167      1.0  0.11600  0.03330  0.52690  1.0000 0.21277391
C   C168      1.0  0.88400  0.53330  0.97310  1.0000 0.21277391
C   C169      1.0  0.85950  0.90400  0.47680  1.0000 -0.1946758371
C   C170      1.0  0.14050  0.40400  0.02320  1.0000 -0.1946758371
C   C171      1.0  0.14050  0.09600  0.52320  1.0000 -0.1946758371
C   C172      1.0  0.85950  0.59600  0.97680  1.0000 -0.1946758371
C   C173      1.0  0.78210  0.10510  0.46339  1.0000 0.5814346643
C   C174      1.0  0.21790  0.60510  0.03661  1.0000 0.5814346643
C   C175      1.0  0.21790  0.89490  0.53661  1.0000 0.5814346643
C   C176      1.0  0.78210  0.39490  0.96339  1.0000 0.5814346643
C   C177      1.0  0.97420  0.01290  0.50060  1.0000 0.3909852762
C   C178      1.0  0.02580  0.51290  0.99940  1.0000 0.3909852762
C   C179      1.0  0.02580  0.98710  0.49940  1.0000 0.3909852762
C   C180      1.0  0.97420  0.48710  0.00060  1.0000 0.3909852762
C   C181      1.0  0.70810  0.60390  0.50124  1.0000 0.5814346643
C   C182      1.0  0.29190  0.10390  0.99876  1.0000 0.5814346643
C   C183      1.0  0.29190  0.39610  0.49876  1.0000 0.5814346643
C   C184      1.0  0.70810  0.89610  0.00124  1.0000 0.5814346643
C   C185      1.0  0.68100  0.53320  0.50000  1.0000 -0.0022382246
C   C186      1.0  0.31900  0.03320  0.00000  1.0000 -0.0022382246
C   C187      1.0  0.31900  0.46680  0.50000  1.0000 -0.0022382246
C   C188      1.0  0.68100  0.96680  0.00000  1.0000 -0.0022382246
C   C189      1.0  0.70530  0.47080  0.49460  1.0000 -0.1185066989
C   C190      1.0  0.29470  0.97080  0.00540  1.0000 -0.1185066989
C   C191      1.0  0.29470  0.52920  0.50540  1.0000 -0.1185066989
C   C192      1.0  0.70530  0.02920  0.99460  1.0000 -0.1185066989
C   C193      1.0  0.67980  0.40620  0.49020  1.0000 -0.0022382246
C   C194      1.0  0.32020  0.90620  0.00980  1.0000 -0.0022382246
C   C195      1.0  0.32020  0.59380  0.50980  1.0000 -0.0022382246
C   C196      1.0  0.67980  0.09380  0.99020  1.0000 -0.0022382246
C   C197      1.0  0.62920  0.40410  0.49130  1.0000 -0.2247193794
C   C198      1.0  0.37080  0.90410  0.00870  1.0000 -0.2261319052
C   C199      1.0  0.37080  0.59590  0.50870  1.0000 -0.2247193794
C   C200      1.0  0.62920  0.09590  0.99130  1.0000 -0.2247193794
C   C201      1.0  0.60670  0.46710  0.49740  1.0000 0.2185508493
C   C202      1.0  0.39330  0.96710  0.00260  1.0000 0.2185508493
C   C203      1.0  0.39330  0.53290  0.50260  1.0000 0.2185508493
C   C204      1.0  0.60670  0.03290  0.99740  1.0000 0.2185508493
C   C205      1.0  0.63220  0.53380  0.50090  1.0000 -0.1820016262
C   C206      1.0  0.36780  0.03380  0.99910  1.0000 -0.1820016262
C   C207      1.0  0.36780  0.46620  0.49910  1.0000 -0.1820016262
C   C208      1.0  0.63220  0.96620  0.00090  1.0000 -0.1820016262
C   C209      1.0  0.70300  0.33790  0.48230  1.0000 0.5814346643
C   C210      1.0  0.29700  0.83790  0.01770  1.0000 0.5814346643
C   C211      1.0  0.29700  0.66210  0.51770  1.0000 0.5814346643
C   C212      1.0  0.70300  0.16210  0.98230  1.0000 0.5814346643
C   C213      1.0  0.52650  0.51190  0.50150  1.0000 0.4018078869
C   C214      1.0  0.47350  0.01190  0.99850  1.0000 0.4018078869
C   C215      1.0  0.47350  0.48810  0.49850  1.0000 0.4018078869
C   C216      1.0  0.52650  0.98810  0.00150  1.0000 0.4085382864
N   N1        1.0  0.55700  0.70520  0.26660  1.0000 -0.3360929269
N   N2        1.0  0.44300  0.20520  0.23340  1.0000 -0.3360929269
N   N3        1.0  0.44300  0.29480  0.73340  1.0000 -0.3360929269
N   N4        1.0  0.55700  0.79480  0.76660  1.0000 -0.3360929269
N   N5        1.0  0.43370  0.75440  0.25782  1.0000 -0.3215102222
N   N6        1.0  0.56630  0.25440  0.24218  1.0000 -0.3215102222
N   N7        1.0  0.56630  0.24560  0.74218  1.0000 -0.3215102222
N   N8        1.0  0.43370  0.74560  0.75782  1.0000 -0.3215102222
N   N9        1.0  0.93760  0.73110  0.71630  1.0000 -0.3123720105
N   N10       1.0  0.06240  0.23110  0.78370  1.0000 -0.3123720105
N   N11       1.0  0.06240  0.26890  0.28370  1.0000 -0.3123720105
N   N12       1.0  0.93760  0.76890  0.21630  1.0000 -0.3123720105
N   N13       1.0  0.05990  0.72900  0.80650  1.0000 -0.3215102222
N   N14       1.0  0.94010  0.22900  0.69350  1.0000 -0.3215102222
N   N15       1.0  0.94010  0.27100  0.19350  1.0000 -0.3215102222
N   N16       1.0  0.05990  0.77100  0.30650  1.0000 -0.3215102222
N   N17       1.0  0.93690  0.96320  0.47770  1.0000 -0.3360929269
N   N18       1.0  0.06310  0.46320  0.02230  1.0000 -0.3360929269
N   N19       1.0  0.06310  0.03680  0.52230  1.0000 -0.3360929269
N   N20       1.0  0.93690  0.53680  0.97770  1.0000 -0.3360929269
N   N21       1.0  0.55560  0.46230  0.49660  1.0000 -0.3215102222
N   N22       1.0  0.44440  0.96230  0.00340  1.0000 -0.3215102222
N   N23       1.0  0.44440  0.53770  0.50340  1.0000 -0.3215102222
N   N24       1.0  0.55560  0.03770  0.99660  1.0000 -0.3215102222
O   O1        1.0  0.68284  0.73090  0.42720  1.0000 -0.5206835877
O   O2        1.0  0.31716  0.23090  0.07280  1.0000 -0.5206835877
O   O3        1.0  0.31716  0.26910  0.57280  1.0000 -0.5206835877
O   O4        1.0  0.68284  0.76910  0.92720  1.0000 -0.5206835877
O   O5        1.0  0.75565  0.67800  0.42964  1.0000 -0.5095417212
O   O6        1.0  0.24435  0.17800  0.07036  1.0000 -0.5095417212
O   O7        1.0  0.24435  0.32200  0.57036  1.0000 -0.5095417212
O   O8        1.0  0.75565  0.82200  0.92964  1.0000 -0.5095417212
O   O9        1.0  0.76079  0.56970  0.29304  1.0000 -0.5296560511
O   O10       1.0  0.23921  0.06970  0.20696  1.0000 -0.5296560511
O   O11       1.0  0.23921  0.43030  0.70696  1.0000 -0.5296560511
O   O12       1.0  0.76079  0.93030  0.79304  1.0000 -0.5296560511
O   O13       1.0  0.68840  0.56970  0.23101  1.0000 -0.5095417212
O   O14       1.0  0.31160  0.06970  0.26899  1.0000 -0.5095417212
O   O15       1.0  0.31160  0.43030  0.76899  1.0000 -0.5095417212
O   O16       1.0  0.68840  0.93030  0.73101  1.0000 -0.5095417212
O   O17       1.0  0.52620  0.72130  0.31960  1.0000 -0.4469730746
O   O18       1.0  0.47380  0.22130  0.18040  1.0000 -0.4469730746
O   O19       1.0  0.47380  0.27870  0.68040  1.0000 -0.4469730746
O   O20       1.0  0.52620  0.77870  0.81960  1.0000 -0.4469730746
O   O21       1.0  0.46310  0.72820  0.20560  1.0000 -0.470373113
O   O22       1.0  0.53690  0.22820  0.29440  1.0000 -0.470373113
O   O23       1.0  0.53690  0.27180  0.79440  1.0000 -0.470373113
O   O24       1.0  0.46310  0.77180  0.70560  1.0000 -0.470373113
O   O25       1.0  0.31281  0.72090  0.09578  1.0000 -0.5095417212
O   O26       1.0  0.68719  0.22090  0.40422  1.0000 -0.5095417212
O   O27       1.0  0.68719  0.27910  0.90422  1.0000 -0.5095417212
O   O28       1.0  0.31281  0.77910  0.59578  1.0000 -0.5095417212
O   O29       1.0  0.23896  0.77550  0.08925  1.0000 -0.5296560511
O   O30       1.0  0.76104  0.27550  0.41075  1.0000 -0.5296560511
O   O31       1.0  0.76104  0.22450  0.91075  1.0000 -0.5296560511
O   O32       1.0  0.23896  0.72450  0.58925  1.0000 -0.5296560511
O   O33       1.0  0.23702  0.92320  0.21368  1.0000 -0.5095417212
O   O34       1.0  0.76298  0.42320  0.28632  1.0000 -0.5095417212
O   O35       1.0  0.76298  0.07680  0.78632  1.0000 -0.5095417212
O   O36       1.0  0.23702  0.57680  0.71368  1.0000 -0.5095417212
O   O37       1.0  0.30731  0.92540  0.27727  1.0000 -0.5296560511
O   O38       1.0  0.69269  0.42540  0.22273  1.0000 -0.5296560511
O   O39       1.0  0.69269  0.07460  0.72273  1.0000 -0.5296560511
O   O40       1.0  0.30731  0.57460  0.77727  1.0000 -0.5296560511
O   O41       1.0  0.74299  0.76890  0.55421  1.0000 -0.5017917644
O   O42       1.0  0.25701  0.26890  0.94579  1.0000 -0.5017917644
O   O43       1.0  0.25701  0.23110  0.44579  1.0000 -0.5017917644
O   O44       1.0  0.74299  0.73110  0.05421  1.0000 -0.5017917644
O   O45       1.0  0.81310  0.70480  0.55832  1.0000 -0.55085725
O   O46       1.0  0.18690  0.20480  0.94168  1.0000 -0.55085725
O   O47       1.0  0.18690  0.29520  0.44168  1.0000 -0.55085725
O   O48       1.0  0.81310  0.79520  0.05832  1.0000 -0.55085725
O   O49       1.0  0.74751  0.91170  0.68109  1.0000 -0.5296560511
O   O50       1.0  0.25249  0.41170  0.81891  1.0000 -0.5296560511
O   O51       1.0  0.25249  0.08830  0.31891  1.0000 -0.5296560511
O   O52       1.0  0.74751  0.58830  0.18109  1.0000 -0.5296560511
O   O53       1.0  0.82031  0.91750  0.74249  1.0000 -0.5206835877
O   O54       1.0  0.17969  0.41750  0.75751  1.0000 -0.5206835877
O   O55       1.0  0.17969  0.08250  0.25751  1.0000 -0.5206835877
O   O56       1.0  0.82031  0.58250  0.24249  1.0000 -0.5206835877
O   O57       1.0  0.96940  0.79480  0.77860  1.0000 -0.4123517986
O   O58       1.0  0.03060  0.29480  0.72140  1.0000 -0.4123517986
O   O59       1.0  0.03060  0.20520  0.22140  1.0000 -0.4123517986
O   O60       1.0  0.96940  0.70520  0.27860  1.0000 -0.4123517986
O   O61       1.0  0.02680  0.65980  0.74640  1.0000 -0.4405722398
O   O62       1.0  0.97320  0.15980  0.75360  1.0000 -0.4405722398
O   O63       1.0  0.97320  0.34020  0.25360  1.0000 -0.4405722398
O   O64       1.0  0.02680  0.84020  0.24640  1.0000 -0.4405722398
O   O65       1.0  0.18707  0.74530  0.96242  1.0000 -0.5398348958
O   O66       1.0  0.81293  0.24530  0.53758  1.0000 -0.5398348958
O   O67       1.0  0.81293  0.25470  0.03758  1.0000 -0.5398348958
O   O68       1.0  0.18707  0.75470  0.46242  1.0000 -0.5398348958
O   O69       1.0  0.25606  0.67980  0.96641  1.0000 -0.5206835877
O   O70       1.0  0.74394  0.17980  0.53359  1.0000 -0.5206835877
O   O71       1.0  0.74394  0.32020  0.03359  1.0000 -0.5206835877
O   O72       1.0  0.25606  0.82020  0.46641  1.0000 -0.5206835877
O   O73       1.0  0.25075  0.55630  0.82998  1.0000 -0.5017917644
O   O74       1.0  0.74925  0.05630  0.67002  1.0000 -0.5017917644
O   O75       1.0  0.74925  0.44370  0.17002  1.0000 -0.5017917644
O   O76       1.0  0.25075  0.94370  0.32998  1.0000 -0.5017917644
O   O77       1.0  0.18038  0.56460  0.76697  1.0000 -0.5398348958
O   O78       1.0  0.81962  0.06460  0.73303  1.0000 -0.5398348958
O   O79       1.0  0.81962  0.43540  0.23303  1.0000 -0.5398348958
O   O80       1.0  0.18038  0.93540  0.26697  1.0000 -0.5398348958
O   O81       1.0  0.73902  0.84170  0.47892  1.0000 -0.5095417212
O   O82       1.0  0.26098  0.34170  0.02108  1.0000 -0.5095417212
O   O83       1.0  0.26098  0.15830  0.52108  1.0000 -0.5095417212
O   O84       1.0  0.73902  0.65830  0.97892  1.0000 -0.5095417212
O   O85       1.0  0.81242  0.78230  0.48691  1.0000 -0.5398348958
O   O86       1.0  0.18758  0.28230  0.01309  1.0000 -0.5398348958
O   O87       1.0  0.18758  0.21770  0.51309  1.0000 -0.5398348958
O   O88       1.0  0.81242  0.71770  0.98691  1.0000 -0.5398348958
O   O89       1.0  0.73493  0.10390  0.45991  1.0000 -0.5296560511
O   O90       1.0  0.26507  0.60390  0.04009  1.0000 -0.5296560511
O   O91       1.0  0.26507  0.89610  0.54009  1.0000 -0.5296560511
O   O92       1.0  0.73493  0.39610  0.95991  1.0000 -0.5296560511
O   O93       1.0  0.80875  0.16050  0.46710  1.0000 -0.5296560511
O   O94       1.0  0.19125  0.66050  0.03290  1.0000 -0.5296560511
O   O95       1.0  0.19125  0.83950  0.53290  1.0000 -0.5296560511
O   O96       1.0  0.80875  0.33950  0.96710  1.0000 -0.5296560511
O   O97       1.0  0.96780  0.06920  0.51380  1.0000 -0.4202832621
O   O98       1.0  0.03220  0.56920  0.98620  1.0000 -0.4202832621
O   O99       1.0  0.03220  0.93080  0.48620  1.0000 -0.4202832621
O   O100      1.0  0.96780  0.43080  0.01380  1.0000 -0.4202832621
O   O101      1.0  0.68274  0.66010  0.50073  1.0000 -0.5296560511
O   O102      1.0  0.31726  0.16010  0.99927  1.0000 -0.5296560511
O   O103      1.0  0.31726  0.33990  0.49927  1.0000 -0.5296560511
O   O104      1.0  0.68274  0.83990  0.00073  1.0000 -0.5296560511
O   O105      1.0  0.75303  0.60080  0.50098  1.0000 -0.5206835877
O   O106      1.0  0.24697  0.10080  0.99902  1.0000 -0.5206835877
O   O107      1.0  0.24697  0.39920  0.49902  1.0000 -0.5206835877
O   O108      1.0  0.75303  0.89920  0.00098  1.0000 -0.5206835877
O   O109      1.0  0.74740  0.34300  0.48098  1.0000 -0.5296560511
O   O110      1.0  0.25260  0.84300  0.01902  1.0000 -0.5296560511
O   O111      1.0  0.25260  0.65700  0.51902  1.0000 -0.5296560511
O   O112      1.0  0.74740  0.15700  0.98098  1.0000 -0.5296560511
O   O113      1.0  0.67770  0.28210  0.47928  1.0000 -0.5206835877
O   O114      1.0  0.32230  0.78210  0.02072  1.0000 -0.5206835877
O   O115      1.0  0.32230  0.71790  0.52072  1.0000 -0.5206835877
O   O116      1.0  0.67770  0.21790  0.97928  1.0000 -0.5206835877
O   O117      1.0  0.53750  0.57320  0.50650  1.0000 -0.4405722398
O   O118      1.0  0.46250  0.07320  0.99350  1.0000 -0.4405722398
O   O119      1.0  0.46250  0.42680  0.49350  1.0000 -0.4405722398
O   O120      1.0  0.53750  0.92680  0.00650  1.0000 -0.4405722398
