# DDEC6 charges by PACMAN v1.1 (https://github.com/mtap-research/PACMAN-charge/)
data_2014[Ni][pcu]3[ASR]2
_chemical_formula_sum              "Ni16 H96 C120 N16 O56"
_cell_length_a       12.8539
_cell_length_b       14.4578
_cell_length_c       30.453
_cell_angle_alpha    90
_cell_angle_beta     96.497
_cell_angle_gamma    90

_symmetry_space_group_name_H-M    "P 1"
_symmetry_Int_Tables_number       1

loop_
  _symmetry_equiv_pos_as_xyz
  'x, y, z'

loop_
  _atom_site_type_symbol
  _atom_site_label
  _atom_site_symmetry_multiplicity
  _atom_site_fract_x
  _atom_site_fract_y
  _atom_site_fract_z
  _atom_site_occupancy
  _atom_site_charge
Ni  Ni1       1.0  0.12724  0.21762  0.93359  1.0000 0.9831238556
Ni  Ni2       1.0  0.87276  0.71762  0.56641  1.0000 0.9831238556
Ni  Ni3       1.0  0.87276  0.78238  0.06641  1.0000 0.9831238556
Ni  Ni4       1.0  0.12724  0.28238  0.43359  1.0000 0.9831238556
Ni  Ni5       1.0  0.80328  0.09295  0.88817  1.0000 0.9720795024
Ni  Ni6       1.0  0.19672  0.59295  0.61183  1.0000 0.9720795024
Ni  Ni7       1.0  0.19672  0.90705  0.11183  1.0000 0.9720795024
Ni  Ni8       1.0  0.80328  0.40705  0.38817  1.0000 0.9720795024
Ni  Ni9       1.0  0.87074  0.29384  0.88093  1.0000 0.8905533868
Ni  Ni10      1.0  0.12926  0.79384  0.61907  1.0000 0.8905533868
Ni  Ni11      1.0  0.12926  0.70616  0.11907  1.0000 0.8905533868
Ni  Ni12      1.0  0.87074  0.20616  0.38093  1.0000 0.8905533868
Ni  Ni13      1.0  0.02667  0.19010  0.83887  1.0000 0.8905533868
Ni  Ni14      1.0  0.97333  0.69010  0.66113  1.0000 0.8905533868
Ni  Ni15      1.0  0.97333  0.80990  0.16113  1.0000 0.8905533868
Ni  Ni16      1.0  0.02667  0.30990  0.33887  1.0000 0.8905533868
H   H1        1.0  0.06130  0.34370  0.88020  1.0000 0.3878534752
H   H2        1.0  0.93870  0.84370  0.61980  1.0000 0.3878534752
H   H3        1.0  0.93870  0.65630  0.11980  1.0000 0.3878534752
H   H4        1.0  0.06130  0.15630  0.38020  1.0000 0.3878534752
H   H5        1.0  0.82930  0.17650  0.81780  1.0000 0.3878534752
H   H6        1.0  0.17070  0.67650  0.68220  1.0000 0.3878534752
H   H7        1.0  0.17070  0.82350  0.18220  1.0000 0.3878534752
H   H8        1.0  0.82930  0.32350  0.31780  1.0000 0.3878534752
H   H9        1.0  0.77720  0.47910  0.86780  1.0000 0.1178297972
H   H10       1.0  0.22280  0.97910  0.63220  1.0000 0.1178297972
H   H11       1.0  0.22280  0.52090  0.13220  1.0000 0.1178297972
H   H12       1.0  0.77720  0.02090  0.36780  1.0000 0.1178297972
H   H13       1.0  0.89900  0.50480  0.01410  1.0000 0.1403411137
H   H14       1.0  0.10100  0.00480  0.48590  1.0000 0.1403411137
H   H15       1.0  0.10100  0.49520  0.98590  1.0000 0.1403411137
H   H16       1.0  0.89900  0.99520  0.51410  1.0000 0.1403411137
H   H17       1.0  0.00200  0.07410  0.02730  1.0000 0.1403411137
H   H18       1.0  0.99800  0.57410  0.47270  1.0000 0.1403411137
H   H19       1.0  0.99800  0.92590  0.97270  1.0000 0.1403411137
H   H20       1.0  0.00200  0.42590  0.52730  1.0000 0.1403411137
H   H21       1.0  0.05770  0.49800  0.67940  1.0000 0.1178297972
H   H22       1.0  0.94230  0.99800  0.82060  1.0000 0.1178297972
H   H23       1.0  0.94230  0.50200  0.32060  1.0000 0.1178297972
H   H24       1.0  0.05770  0.00200  0.17940  1.0000 0.1178297972
H   H25       1.0  0.04030  0.37470  0.72420  1.0000 0.1403411137
H   H26       1.0  0.95970  0.87470  0.77580  1.0000 0.1403411137
H   H27       1.0  0.95970  0.62530  0.27580  1.0000 0.1403411137
H   H28       1.0  0.04030  0.12530  0.22420  1.0000 0.1403411137
H   H29       1.0  0.92900  0.37380  0.97430  1.0000 0.1178297972
H   H30       1.0  0.07100  0.87380  0.52570  1.0000 0.1178297972
H   H31       1.0  0.07100  0.62620  0.02570  1.0000 0.1178297972
H   H32       1.0  0.92900  0.12620  0.47430  1.0000 0.1178297972
H   H33       1.0  0.45560  0.19760  0.88190  1.0000 0.1403411137
H   H34       1.0  0.54440  0.69760  0.61810  1.0000 0.1403411137
H   H35       1.0  0.54440  0.80240  0.11810  1.0000 0.1403411137
H   H36       1.0  0.45560  0.30240  0.38190  1.0000 0.1403411137
H   H37       1.0  0.87700  0.65030  0.74460  1.0000 0.130429672
H   H38       1.0  0.12300  0.15030  0.75540  1.0000 0.130429672
H   H39       1.0  0.12300  0.34970  0.25540  1.0000 0.130429672
H   H40       1.0  0.87700  0.84970  0.24460  1.0000 0.130429672
H   H41       1.0  0.85780  0.53130  0.79280  1.0000 0.1496791908
H   H42       1.0  0.14220  0.03130  0.70720  1.0000 0.1496791908
H   H43       1.0  0.14220  0.46870  0.20720  1.0000 0.1496791908
H   H44       1.0  0.85780  0.96870  0.29280  1.0000 0.1496791908
H   H45       1.0  0.68260  0.04810  0.11940  1.0000 0.1496791908
H   H46       1.0  0.31740  0.54810  0.38060  1.0000 0.1496791908
H   H47       1.0  0.31740  0.95190  0.88060  1.0000 0.1496791908
H   H48       1.0  0.68260  0.45190  0.61940  1.0000 0.1496791908
H   H49       1.0  0.74360  0.95570  0.11390  1.0000 0.1496791908
H   H50       1.0  0.25640  0.45570  0.38610  1.0000 0.1496791908
H   H51       1.0  0.25640  0.04430  0.88610  1.0000 0.1496791908
H   H52       1.0  0.74360  0.54430  0.61390  1.0000 0.1496791908
H   H53       1.0  0.79500  0.03460  0.14440  1.0000 0.1403411137
H   H54       1.0  0.20500  0.53460  0.35560  1.0000 0.1403411137
H   H55       1.0  0.20500  0.96540  0.85560  1.0000 0.1403411137
H   H56       1.0  0.79500  0.46540  0.64440  1.0000 0.1403411137
H   H57       1.0  0.63140  0.23120  0.00730  1.0000 0.1496791908
H   H58       1.0  0.36860  0.73120  0.49270  1.0000 0.1496791908
H   H59       1.0  0.36860  0.76880  0.99270  1.0000 0.1496791908
H   H60       1.0  0.63140  0.26880  0.50730  1.0000 0.1496791908
H   H61       1.0  0.72560  0.29130  0.99510  1.0000 0.1496791908
H   H62       1.0  0.27440  0.79130  0.50490  1.0000 0.1496791908
H   H63       1.0  0.27440  0.70870  0.00490  1.0000 0.1496791908
H   H64       1.0  0.72560  0.20870  0.49510  1.0000 0.1496791908
H   H65       1.0  0.68260  0.21030  0.96400  1.0000 0.1496791908
H   H66       1.0  0.31740  0.71030  0.53600  1.0000 0.1496791908
H   H67       1.0  0.31740  0.78970  0.03600  1.0000 0.1496791908
H   H68       1.0  0.68260  0.28970  0.46400  1.0000 0.1496791908
H   H69       1.0  0.26020  0.41620  0.76110  1.0000 0.1403411137
H   H70       1.0  0.73980  0.91620  0.73890  1.0000 0.1403411137
H   H71       1.0  0.73980  0.58380  0.23890  1.0000 0.1403411137
H   H72       1.0  0.26020  0.08380  0.26110  1.0000 0.1403411137
H   H73       1.0  0.19930  0.32790  0.77370  1.0000 0.1403411137
H   H74       1.0  0.80070  0.82790  0.72630  1.0000 0.1403411137
H   H75       1.0  0.80070  0.67210  0.22630  1.0000 0.1403411137
H   H76       1.0  0.19930  0.17210  0.27370  1.0000 0.1403411137
H   H77       1.0  0.21490  0.41130  0.80670  1.0000 0.1403411137
H   H78       1.0  0.78510  0.91130  0.69330  1.0000 0.1403411137
H   H79       1.0  0.78510  0.58870  0.19330  1.0000 0.1403411137
H   H80       1.0  0.21490  0.08870  0.30670  1.0000 0.1403411137
H   H81       1.0  0.74990  0.61420  0.90390  1.0000 0.130429672
H   H82       1.0  0.25010  0.11420  0.59610  1.0000 0.130429672
H   H83       1.0  0.25010  0.38580  0.09610  1.0000 0.130429672
H   H84       1.0  0.74990  0.88580  0.40390  1.0000 0.130429672
H   H85       1.0  0.59640  0.40220  0.75900  1.0000 0.1403411137
H   H86       1.0  0.40360  0.90220  0.74100  1.0000 0.1403411137
H   H87       1.0  0.40360  0.59780  0.24100  1.0000 0.1403411137
H   H88       1.0  0.59640  0.09780  0.25900  1.0000 0.1403411137
H   H89       1.0  0.67090  0.39110  0.80310  1.0000 0.1403411137
H   H90       1.0  0.32910  0.89110  0.69690  1.0000 0.1403411137
H   H91       1.0  0.32910  0.60890  0.19690  1.0000 0.1403411137
H   H92       1.0  0.67090  0.10890  0.30310  1.0000 0.1403411137
H   H93       1.0  0.65230  0.30740  0.77050  1.0000 0.1403411137
H   H94       1.0  0.34770  0.80740  0.72950  1.0000 0.1403411137
H   H95       1.0  0.34770  0.69260  0.22950  1.0000 0.1403411137
H   H96       1.0  0.65230  0.19260  0.27050  1.0000 0.1403411137
C   C1        1.0  0.35210  0.27190  0.84111  1.0000 -0.1338481438
C   C2        1.0  0.64790  0.77190  0.65889  1.0000 -0.1338481438
C   C3        1.0  0.64790  0.72810  0.15889  1.0000 -0.1338481438
C   C4        1.0  0.35210  0.22810  0.34111  1.0000 -0.1338481438
C   C5        1.0  0.80390  0.48500  0.89738  1.0000 0.0706386892
C   C6        1.0  0.19610  0.98500  0.60262  1.0000 0.0706386892
C   C7        1.0  0.19610  0.51500  0.10262  1.0000 0.0706386892
C   C8        1.0  0.80390  0.01500  0.39738  1.0000 0.0706386892
C   C9        1.0  0.89710  0.03970  0.06810  1.0000 -0.140158834
C   C10       1.0  0.10290  0.53970  0.43190  1.0000 -0.140158834
C   C11       1.0  0.10290  0.96030  0.93190  1.0000 -0.140158834
C   C12       1.0  0.89710  0.46030  0.56810  1.0000 -0.140158834
C   C13       1.0  0.87540  0.50180  0.98408  1.0000 -0.1586220594
C   C14       1.0  0.12460  0.00180  0.51592  1.0000 -0.1586220594
C   C15       1.0  0.12460  0.49820  0.01592  1.0000 -0.1586220594
C   C16       1.0  0.87540  0.99820  0.48408  1.0000 -0.1586220594
C   C17       1.0  0.53890  0.26800  0.84111  1.0000 -0.1187847574
C   C18       1.0  0.46110  0.76800  0.65889  1.0000 -0.1187847574
C   C19       1.0  0.46110  0.73200  0.15889  1.0000 -0.1187847574
C   C20       1.0  0.53890  0.23200  0.34111  1.0000 -0.1187847574
C   C21       1.0  0.93380  0.08470  0.03339  1.0000 -0.0599114663
C   C22       1.0  0.06620  0.58470  0.46661  1.0000 -0.0599114663
C   C23       1.0  0.06620  0.91530  0.96661  1.0000 -0.0599114663
C   C24       1.0  0.93380  0.41530  0.53339  1.0000 -0.0599114663
C   C25       1.0  0.01610  0.50420  0.70233  1.0000 0.0706386892
C   C26       1.0  0.98390  0.00420  0.79767  1.0000 0.0706386892
C   C27       1.0  0.98390  0.49580  0.29767  1.0000 0.0706386892
C   C28       1.0  0.01610  0.99580  0.20233  1.0000 0.0706386892
C   C29       1.0  0.96700  0.96710  0.09148  1.0000 0.6088669765
C   C30       1.0  0.03300  0.46710  0.40852  1.0000 0.6088669765
C   C31       1.0  0.03300  0.03290  0.90852  1.0000 0.6088669765
C   C32       1.0  0.96700  0.53290  0.59148  1.0000 0.6088669765
C   C33       1.0  0.91540  0.18610  0.96803  1.0000 0.6088669765
C   C34       1.0  0.08460  0.68610  0.53197  1.0000 0.6088669765
C   C35       1.0  0.08460  0.81390  0.03197  1.0000 0.6088669765
C   C36       1.0  0.91540  0.31390  0.46803  1.0000 0.6088669765
C   C37       1.0  0.64670  0.23830  0.86172  1.0000 0.5982251931
C   C38       1.0  0.35330  0.73830  0.63828  1.0000 0.5982251931
C   C39       1.0  0.35330  0.76170  0.13828  1.0000 0.5982251931
C   C40       1.0  0.64670  0.26170  0.36172  1.0000 0.5982251931
C   C41       1.0  0.93870  0.36120  0.79632  1.0000 0.5627022553
C   C42       1.0  0.06130  0.86120  0.70368  1.0000 0.5627022553
C   C43       1.0  0.06130  0.63880  0.20368  1.0000 0.5627022553
C   C44       1.0  0.93870  0.13880  0.29632  1.0000 0.5627022553
C   C45       1.0  0.00690  0.43020  0.72920  1.0000 -0.1505977121
C   C46       1.0  0.99310  0.93020  0.77080  1.0000 -0.1505977121
C   C47       1.0  0.99310  0.56980  0.27080  1.0000 -0.1505977121
C   C48       1.0  0.00690  0.06980  0.22920  1.0000 -0.1505977121
C   C49       1.0  0.77060  0.16530  0.01917  1.0000 0.2986054588
C   C50       1.0  0.22940  0.66530  0.48083  1.0000 0.2986054588
C   C51       1.0  0.22940  0.83470  0.98083  1.0000 0.2986054588
C   C52       1.0  0.77060  0.33470  0.51917  1.0000 0.2986054588
C   C53       1.0  0.25510  0.23990  0.85939  1.0000 0.5982251931
C   C54       1.0  0.74490  0.73990  0.64061  1.0000 0.5982251931
C   C55       1.0  0.74490  0.76010  0.14061  1.0000 0.5982251931
C   C56       1.0  0.25510  0.26010  0.35939  1.0000 0.5982251931
C   C57       1.0  0.87090  0.14570  0.00724  1.0000 -0.140158834
C   C58       1.0  0.12910  0.64570  0.49276  1.0000 -0.140158834
C   C59       1.0  0.12910  0.85430  0.99276  1.0000 -0.140158834
C   C60       1.0  0.87090  0.35430  0.50724  1.0000 -0.140158834
C   C61       1.0  0.82300  0.57630  0.96318  1.0000 0.0398665126
C   C62       1.0  0.17700  0.07630  0.53682  1.0000 0.0398665126
C   C63       1.0  0.17700  0.42370  0.03682  1.0000 0.0398665126
C   C64       1.0  0.82300  0.92370  0.46318  1.0000 0.0398665126
C   C65       1.0  0.94700  0.43850  0.76434  1.0000 0.0231884405
C   C66       1.0  0.05300  0.93850  0.73566  1.0000 0.0231884405
C   C67       1.0  0.05300  0.56150  0.23566  1.0000 0.0231884405
C   C68       1.0  0.94700  0.06150  0.26434  1.0000 0.0231884405
C   C69       1.0  0.89230  0.42260  0.95997  1.0000 0.076919727
C   C70       1.0  0.10770  0.92260  0.54003  1.0000 0.076919727
C   C71       1.0  0.10770  0.57740  0.04003  1.0000 0.076919727
C   C72       1.0  0.89230  0.07740  0.45997  1.0000 0.076919727
C   C73       1.0  0.34790  0.33400  0.80577  1.0000 0.2870758641
C   C74       1.0  0.65210  0.83400  0.69423  1.0000 0.2870758641
C   C75       1.0  0.65210  0.66600  0.19423  1.0000 0.2870758641
C   C76       1.0  0.34790  0.16600  0.30577  1.0000 0.2870758641
C   C77       1.0  0.79730  0.06200  0.07900  1.0000 0.2986054588
C   C78       1.0  0.20270  0.56200  0.42100  1.0000 0.2986054588
C   C79       1.0  0.20270  0.93800  0.92100  1.0000 0.2986054588
C   C80       1.0  0.79730  0.43800  0.57900  1.0000 0.2986054588
C   C81       1.0  0.45010  0.23910  0.85846  1.0000 -0.0837914441
C   C82       1.0  0.54990  0.73910  0.64154  1.0000 -0.0837914441
C   C83       1.0  0.54990  0.76090  0.14154  1.0000 -0.0837914441
C   C84       1.0  0.45010  0.26090  0.35846  1.0000 -0.0837914441
C   C85       1.0  0.91040  0.59430  0.74069  1.0000 0.0920450631
C   C86       1.0  0.08960  0.09430  0.75931  1.0000 0.0920450631
C   C87       1.0  0.08960  0.40570  0.25931  1.0000 0.0920450631
C   C88       1.0  0.91040  0.90570  0.24069  1.0000 0.0920450631
C   C89       1.0  0.89830  0.52300  0.76972  1.0000 -0.1586220594
C   C90       1.0  0.10170  0.02300  0.73028  1.0000 -0.1586220594
C   C91       1.0  0.10170  0.47700  0.23028  1.0000 -0.1586220594
C   C92       1.0  0.89830  0.97700  0.26972  1.0000 -0.1586220594
C   C93       1.0  0.81150  0.66667  0.98740  1.0000 0.5679979343
C   C94       1.0  0.18850  0.16660  0.51260  1.0000 0.5679979343
C   C95       1.0  0.18850  0.33340  0.01260  1.0000 0.5679979343
C   C96       1.0  0.81150  0.83340  0.48740  1.0000 0.5679979343
C   C97       1.0  0.75040  0.02150  0.11765  1.0000 -0.4709892478
C   C98       1.0  0.24960  0.52150  0.38235  1.0000 -0.4709892478
C   C99       1.0  0.24960  0.97850  0.88235  1.0000 -0.4709892478
C   C100      1.0  0.75040  0.47850  0.61765  1.0000 -0.4709892478
C   C101      1.0  0.69590  0.23030  0.99417  1.0000 -0.4544502031
C   C102      1.0  0.30410  0.73030  0.50583  1.0000 -0.4544502031
C   C103      1.0  0.30410  0.76970  0.00583  1.0000 -0.4544502031
C   C104      1.0  0.69590  0.26970  0.49417  1.0000 -0.4544502031
C   C105      1.0  0.24630  0.37620  0.78493  1.0000 -0.4709892478
C   C106      1.0  0.75370  0.87620  0.71507  1.0000 -0.4709892478
C   C107      1.0  0.75370  0.62380  0.21507  1.0000 -0.4709892478
C   C108      1.0  0.24630  0.12380  0.28493  1.0000 -0.4709892478
C   C109      1.0  0.78640  0.56620  0.91902  1.0000 -0.1586220594
C   C110      1.0  0.21360  0.06620  0.58098  1.0000 -0.1586220594
C   C111      1.0  0.21360  0.43380  0.08098  1.0000 -0.1586220594
C   C112      1.0  0.78640  0.93380  0.41902  1.0000 -0.1586220594
C   C113      1.0  0.52900  0.32970  0.80573  1.0000 0.2870758641
C   C114      1.0  0.47100  0.82970  0.69427  1.0000 0.2870758641
C   C115      1.0  0.47100  0.67030  0.19427  1.0000 0.2870758641
C   C116      1.0  0.52900  0.17030  0.30573  1.0000 0.2870758641
C   C117      1.0  0.62040  0.36040  0.78247  1.0000 -0.4647128042
C   C118      1.0  0.37960  0.86040  0.71753  1.0000 -0.4647128042
C   C119      1.0  0.37960  0.63960  0.21753  1.0000 -0.4647128042
C   C120      1.0  0.62040  0.13960  0.28247  1.0000 -0.4647128042
N   N1        1.0  0.96870  0.58556  0.70698  1.0000 -0.2205448132
N   N2        1.0  0.03130  0.08556  0.79302  1.0000 -0.2205448132
N   N3        1.0  0.03130  0.41444  0.29302  1.0000 -0.2205448132
N   N4        1.0  0.96870  0.91444  0.20698  1.0000 -0.2205448132
N   N5        1.0  0.73810  0.12560  0.05559  1.0000 -0.3004969489
N   N6        1.0  0.26190  0.62560  0.44441  1.0000 -0.3070755732
N   N7        1.0  0.26190  0.87440  0.94441  1.0000 -0.3070755732
N   N8        1.0  0.73810  0.37440  0.55559  1.0000 -0.3004969489
N   N9        1.0  0.85830  0.41350  0.91723  1.0000 -0.2205448132
N   N10       1.0  0.14170  0.91350  0.58277  1.0000 -0.2205448132
N   N11       1.0  0.14170  0.58650  0.08277  1.0000 -0.2205448132
N   N12       1.0  0.85830  0.08650  0.41723  1.0000 -0.2205448132
N   N13       1.0  0.43420  0.36190  0.78834  1.0000 -0.2918887269
N   N14       1.0  0.56580  0.86190  0.71166  1.0000 -0.2918887269
N   N15       1.0  0.56580  0.63810  0.21166  1.0000 -0.2918887269
N   N16       1.0  0.43420  0.13810  0.28834  1.0000 -0.2918887269
O   O1        1.0  0.85323  0.20363  0.93348  1.0000 -0.5778792333
O   O2        1.0  0.14677  0.70363  0.56652  1.0000 -0.5778792333
O   O3        1.0  0.14677  0.79637  0.06652  1.0000 -0.5778792333
O   O4        1.0  0.85323  0.29637  0.43348  1.0000 -0.5778792333
O   O5        1.0  0.92458  0.89790  0.10777  1.0000 -0.5705297074
O   O6        1.0  0.07542  0.39790  0.39223  1.0000 -0.5705297074
O   O7        1.0  0.07542  0.10210  0.89223  1.0000 -0.5705297074
O   O8        1.0  0.92458  0.60210  0.60777  1.0000 -0.5705297074
O   O9        1.0  0.02991  0.28556  0.88871  1.0000 -0.8593286853
O   O10       1.0  0.97009  0.78556  0.61129  1.0000 -0.8593286853
O   O11       1.0  0.97009  0.71444  0.11129  1.0000 -0.8593286853
O   O12       1.0  0.02991  0.21444  0.38871  1.0000 -0.8593286853
O   O13       1.0  0.71121  0.30188  0.86982  1.0000 -0.532096697
O   O14       1.0  0.28879  0.80188  0.63018  1.0000 -0.532096697
O   O15       1.0  0.28879  0.69812  0.13018  1.0000 -0.532096697
O   O16       1.0  0.71121  0.19812  0.36982  1.0000 -0.532096697
O   O17       1.0  0.99234  0.28904  0.79111  1.0000 -0.5403519453
O   O18       1.0  0.00766  0.78904  0.70889  1.0000 -0.5403519453
O   O19       1.0  0.00766  0.71096  0.20889  1.0000 -0.5403519453
O   O20       1.0  0.99234  0.21096  0.29111  1.0000 -0.5403519453
O   O21       1.0  0.88001  0.37430  0.82603  1.0000 -0.5403519453
O   O22       1.0  0.11999  0.87430  0.67397  1.0000 -0.5403519453
O   O23       1.0  0.11999  0.62570  0.17397  1.0000 -0.5403519453
O   O24       1.0  0.88001  0.12570  0.32603  1.0000 -0.5403519453
O   O25       1.0  0.87266  0.17177  0.84627  1.0000 -0.8789214324
O   O26       1.0  0.12734  0.67177  0.65373  1.0000 -0.8789214324
O   O27       1.0  0.12734  0.82823  0.15373  1.0000 -0.8789214324
O   O28       1.0  0.87266  0.32823  0.34627  1.0000 -0.8789214324
O   O29       1.0  0.06394  0.98040  0.09172  1.0000 -0.5778792333
O   O30       1.0  0.93606  0.48040  0.40828  1.0000 -0.5778792333
O   O31       1.0  0.93606  0.01960  0.90828  1.0000 -0.5778792333
O   O32       1.0  0.06394  0.51960  0.59172  1.0000 -0.5778792333
O   O33       1.0  0.83260  0.66543  0.02871  1.0000 -0.5705297074
O   O34       1.0  0.16740  0.16543  0.47129  1.0000 -0.5705297074
O   O35       1.0  0.16740  0.33457  0.97129  1.0000 -0.5705297074
O   O36       1.0  0.83260  0.83457  0.52871  1.0000 -0.5705297074
O   O37       1.0  0.01237  0.19687  0.97311  1.0000 -0.5403519453
O   O38       1.0  0.98763  0.69687  0.52689  1.0000 -0.5403519453
O   O39       1.0  0.98763  0.80313  0.02689  1.0000 -0.5403519453
O   O40       1.0  0.01237  0.30313  0.47311  1.0000 -0.5403519453
O   O41       1.0  0.18070  0.21394  0.83166  1.0000 -0.5617095959
O   O42       1.0  0.81930  0.71394  0.66834  1.0000 -0.5617095959
O   O43       1.0  0.81930  0.78606  0.16834  1.0000 -0.5617095959
O   O44       1.0  0.18070  0.28606  0.33166  1.0000 -0.5617095959
O   O45       1.0  0.25543  0.24110  0.90111  1.0000 -0.5705297074
O   O46       1.0  0.74457  0.74110  0.59889  1.0000 -0.5705297074
O   O47       1.0  0.74457  0.75890  0.09889  1.0000 -0.5705297074
O   O48       1.0  0.25543  0.25890  0.40111  1.0000 -0.5705297074
O   O49       1.0  0.66082  0.15274  0.86929  1.0000 -0.6041574907
O   O50       1.0  0.33918  0.65274  0.63071  1.0000 -0.6041574907
O   O51       1.0  0.33918  0.84726  0.13071  1.0000 -0.6041574907
O   O52       1.0  0.66082  0.34726  0.36929  1.0000 -0.6041574907
O   O53       1.0  0.78330  0.73540  0.96377  1.0000 -0.532096697
O   O54       1.0  0.21670  0.23540  0.53623  1.0000 -0.532096697
O   O55       1.0  0.21670  0.26460  0.03623  1.0000 -0.532096697
O   O56       1.0  0.78330  0.76460  0.46377  1.0000 -0.532096697
