# DDEC6 charges by PACMAN v1.1 (https://github.com/mtap-research/PACMAN-charge/)
data_2014[Fe][nan]3[ASR]7
_chemical_formula_sum              "Fe12 H120 C216 O60"
_cell_length_a       24.688
_cell_length_b       18.375
_cell_length_c       35.257
_cell_angle_alpha    90
_cell_angle_beta     90.345
_cell_angle_gamma    90

_symmetry_space_group_name_H-M    "P 1"
_symmetry_Int_Tables_number       1

loop_
  _symmetry_equiv_pos_as_xyz
  'x, y, z'

loop_
  _atom_site_type_symbol
  _atom_site_label
  _atom_site_symmetry_multiplicity
  _atom_site_fract_x
  _atom_site_fract_y
  _atom_site_fract_z
  _atom_site_occupancy
  _atom_site_charge
Fe  Fe1       1.0  0.82819  0.34049  0.89128  1.0000 1.2112565306
Fe  Fe2       1.0  0.17181  0.84049  0.60872  1.0000 1.2112565306
Fe  Fe3       1.0  0.17181  0.65951  0.10872  1.0000 1.2112565306
Fe  Fe4       1.0  0.82819  0.15951  0.39128  1.0000 1.202978717
Fe  Fe5       1.0  0.70696  0.26592  0.87863  1.0000 1.1870658266
Fe  Fe6       1.0  0.29304  0.76592  0.62137  1.0000 1.1870658266
Fe  Fe7       1.0  0.29304  0.73408  0.12137  1.0000 1.1870658266
Fe  Fe8       1.0  0.70696  0.23408  0.37863  1.0000 1.1870658266
Fe  Fe9       1.0  0.74566  0.40455  0.82539  1.0000 1.1666713821
Fe  Fe10      1.0  0.25434  0.90455  0.67461  1.0000 1.1666713821
Fe  Fe11      1.0  0.25434  0.59545  0.17461  1.0000 1.1666713821
Fe  Fe12      1.0  0.74566  0.09545  0.32539  1.0000 1.1666713821
H   H1        1.0  0.00460  0.71590  0.79680  1.0000 0.3508302139
H   H2        1.0  0.99540  0.21590  0.70320  1.0000 0.3508302139
H   H3        1.0  0.99540  0.28410  0.20320  1.0000 0.3508302139
H   H4        1.0  0.00460  0.78410  0.29680  1.0000 0.3508302139
H   H5        1.0  0.54970  0.47320  0.05620  1.0000 0.3508302139
H   H6        1.0  0.45030  0.97320  0.44380  1.0000 0.3508302139
H   H7        1.0  0.45030  0.52680  0.94380  1.0000 0.3508302139
H   H8        1.0  0.54970  0.02680  0.55620  1.0000 0.3508302139
H   H9        1.0  0.91310  0.14670  0.88080  1.0000 0.1316046415
H   H10       1.0  0.08690  0.64670  0.61920  1.0000 0.1316046415
H   H11       1.0  0.08690  0.85330  0.11920  1.0000 0.1316046415
H   H12       1.0  0.91310  0.35330  0.38080  1.0000 0.1316046415
H   H13       1.0  0.95530  0.03680  0.86470  1.0000 0.1197026778
H   H14       1.0  0.04470  0.53680  0.63530  1.0000 0.1197026778
H   H15       1.0  0.04470  0.96320  0.13530  1.0000 0.1197026778
H   H16       1.0  0.95530  0.46320  0.36470  1.0000 0.1197026778
H   H17       1.0  0.80830  0.94140  0.85300  1.0000 0.1129997333
H   H18       1.0  0.19170  0.44140  0.64700  1.0000 0.1129997333
H   H19       1.0  0.19170  0.05860  0.14700  1.0000 0.1129997333
H   H20       1.0  0.80830  0.55860  0.35300  1.0000 0.1129997333
H   H21       1.0  0.76580  0.05200  0.86770  1.0000 0.1316046415
H   H22       1.0  0.23420  0.55200  0.63230  1.0000 0.1316046415
H   H23       1.0  0.23420  0.94800  0.13230  1.0000 0.1316046415
H   H24       1.0  0.76580  0.44800  0.36770  1.0000 0.1316046415
H   H25       1.0  0.97010  0.95360  0.81120  1.0000 0.1129997333
H   H26       1.0  0.02990  0.45360  0.68880  1.0000 0.1197026778
H   H27       1.0  0.02990  0.04640  0.18880  1.0000 0.1197026778
H   H28       1.0  0.97010  0.54640  0.31120  1.0000 0.1197026778
H   H29       1.0  0.85970  0.84140  0.87310  1.0000 0.1129997333
H   H30       1.0  0.14030  0.34140  0.62690  1.0000 0.1129997333
H   H31       1.0  0.14030  0.15860  0.12690  1.0000 0.1129997333
H   H32       1.0  0.85970  0.65860  0.37310  1.0000 0.1129997333
H   H33       1.0  0.07220  0.91140  0.80550  1.0000 0.1197026778
H   H34       1.0  0.92780  0.41140  0.69450  1.0000 0.1197026778
H   H35       1.0  0.92780  0.08860  0.19450  1.0000 0.1197026778
H   H36       1.0  0.07220  0.58860  0.30550  1.0000 0.1197026778
H   H37       1.0  0.13700  0.91900  0.75730  1.0000 0.1316046415
H   H38       1.0  0.86300  0.41900  0.74270  1.0000 0.1316046415
H   H39       1.0  0.86300  0.08100  0.24270  1.0000 0.1316046415
H   H40       1.0  0.13700  0.58100  0.25730  1.0000 0.1316046415
H   H41       1.0  0.04510  0.78960  0.69050  1.0000 0.1316046415
H   H42       1.0  0.95490  0.28960  0.80950  1.0000 0.1316046415
H   H43       1.0  0.95490  0.21040  0.30950  1.0000 0.1316046415
H   H44       1.0  0.04510  0.71040  0.19050  1.0000 0.1316046415
H   H45       1.0  0.97990  0.78160  0.73890  1.0000 0.1197026778
H   H46       1.0  0.02010  0.28160  0.76110  1.0000 0.1197026778
H   H47       1.0  0.02010  0.21840  0.26110  1.0000 0.1197026778
H   H48       1.0  0.97990  0.71840  0.23890  1.0000 0.1197026778
H   H49       1.0  0.95300  0.65600  0.87550  1.0000 0.1197026778
H   H50       1.0  0.04700  0.15600  0.62450  1.0000 0.1197026778
H   H51       1.0  0.04700  0.34400  0.12450  1.0000 0.1197026778
H   H52       1.0  0.95300  0.84400  0.37550  1.0000 0.1197026778
H   H53       1.0  0.91120  0.54370  0.88770  1.0000 0.1316046415
H   H54       1.0  0.08880  0.04370  0.61230  1.0000 0.1316046415
H   H55       1.0  0.08880  0.45630  0.11230  1.0000 0.1316046415
H   H56       1.0  0.91120  0.95630  0.38770  1.0000 0.1316046415
H   H57       1.0  0.76830  0.62410  0.84950  1.0000 0.1316046415
H   H58       1.0  0.23170  0.12410  0.65050  1.0000 0.1316046415
H   H59       1.0  0.23170  0.37590  0.15050  1.0000 0.1316046415
H   H60       1.0  0.76830  0.87590  0.34950  1.0000 0.1316046415
H   H61       1.0  0.80960  0.73670  0.83860  1.0000 0.1129997333
H   H62       1.0  0.19040  0.23670  0.66140  1.0000 0.1129997333
H   H63       1.0  0.19040  0.26330  0.16140  1.0000 0.1129997333
H   H64       1.0  0.80960  0.76330  0.33860  1.0000 0.1129997333
H   H65       1.0  0.64500  0.32310  0.97450  1.0000 0.1316046415
H   H66       1.0  0.35500  0.82310  0.52550  1.0000 0.1316046415
H   H67       1.0  0.35500  0.67690  0.02550  1.0000 0.1316046415
H   H68       1.0  0.64500  0.17690  0.47450  1.0000 0.1316046415
H   H69       1.0  0.60580  0.36070  0.03140  1.0000 0.1129997333
H   H70       1.0  0.39420  0.86070  0.46860  1.0000 0.1129997333
H   H71       1.0  0.39420  0.63930  0.96860  1.0000 0.1129997333
H   H72       1.0  0.60580  0.13930  0.53140  1.0000 0.1129997333
H   H73       1.0  0.75070  0.43630  0.06780  1.0000 0.1197026778
H   H74       1.0  0.24930  0.93630  0.43220  1.0000 0.1197026778
H   H75       1.0  0.24930  0.56370  0.93220  1.0000 0.1197026778
H   H76       1.0  0.75070  0.06370  0.56780  1.0000 0.1197026778
H   H77       1.0  0.78980  0.39860  0.01120  1.0000 0.1316046415
H   H78       1.0  0.21020  0.89860  0.48880  1.0000 0.1316046415
H   H79       1.0  0.21020  0.60140  0.98880  1.0000 0.1316046415
H   H80       1.0  0.78980  0.10140  0.51120  1.0000 0.1316046415
H   H81       1.0  0.70100  0.35900  0.12440  1.0000 0.1197026778
H   H82       1.0  0.29900  0.85900  0.37560  1.0000 0.1197026778
H   H83       1.0  0.29900  0.64100  0.87560  1.0000 0.1197026778
H   H84       1.0  0.70100  0.14100  0.62440  1.0000 0.1197026778
H   H85       1.0  0.57520  0.44080  0.18370  1.0000 0.1129997333
H   H86       1.0  0.42480  0.94080  0.31630  1.0000 0.1129997333
H   H87       1.0  0.42480  0.55920  0.81630  1.0000 0.1129997333
H   H88       1.0  0.57520  0.05920  0.68370  1.0000 0.1129997333
H   H89       1.0  0.68370  0.26350  0.16710  1.0000 0.1197026778
H   H90       1.0  0.31630  0.76350  0.33290  1.0000 0.1197026778
H   H91       1.0  0.31630  0.73650  0.83290  1.0000 0.1197026778
H   H92       1.0  0.68370  0.23650  0.66710  1.0000 0.1197026778
H   H93       1.0  0.70660  0.19640  0.22120  1.0000 0.1316046415
H   H94       1.0  0.29340  0.69640  0.27880  1.0000 0.1316046415
H   H95       1.0  0.29340  0.80360  0.77880  1.0000 0.1316046415
H   H96       1.0  0.70660  0.30360  0.72120  1.0000 0.1316046415
H   H97       1.0  0.66440  0.36830  0.28640  1.0000 0.1316046415
H   H98       1.0  0.33560  0.86830  0.21360  1.0000 0.1316046415
H   H99       1.0  0.33560  0.63170  0.71360  1.0000 0.1316046415
H   H100      1.0  0.66440  0.13170  0.78640  1.0000 0.1316046415
H   H101      1.0  0.64390  0.43500  0.23280  1.0000 0.1197026778
H   H102      1.0  0.35610  0.93500  0.26720  1.0000 0.1197026778
H   H103      1.0  0.35610  0.56500  0.76720  1.0000 0.1197026778
H   H104      1.0  0.64390  0.06500  0.73280  1.0000 0.1197026778
H   H105      1.0  0.48530  0.42820  0.16370  1.0000 0.1197026778
H   H106      1.0  0.51470  0.92820  0.33630  1.0000 0.1197026778
H   H107      1.0  0.51470  0.57180  0.83630  1.0000 0.1197026778
H   H108      1.0  0.48530  0.07180  0.66370  1.0000 0.1197026778
H   H109      1.0  0.40120  0.48580  0.16900  1.0000 0.1316046415
H   H110      1.0  0.59880  0.98580  0.33100  1.0000 0.1316046415
H   H111      1.0  0.59880  0.51420  0.83100  1.0000 0.1316046415
H   H112      1.0  0.40120  0.01420  0.66900  1.0000 0.1316046415
H   H113      1.0  0.45320  0.64780  0.10090  1.0000 0.1316046415
H   H114      1.0  0.54680  0.14780  0.39910  1.0000 0.1316046415
H   H115      1.0  0.54680  0.35220  0.89910  1.0000 0.1316046415
H   H116      1.0  0.45320  0.85220  0.60090  1.0000 0.1316046415
H   H117      1.0  0.53730  0.59120  0.09650  1.0000 0.1197026778
H   H118      1.0  0.46270  0.09120  0.40350  1.0000 0.1197026778
H   H119      1.0  0.46270  0.40880  0.90350  1.0000 0.1197026778
H   H120      1.0  0.53730  0.90880  0.59650  1.0000 0.1197026778
C   C1        1.0  0.80864  0.17900  0.88483  1.0000 0.6015827077
C   C2        1.0  0.19136  0.67900  0.61517  1.0000 0.6015827077
C   C3        1.0  0.19136  0.82100  0.11517  1.0000 0.6015827077
C   C4        1.0  0.80864  0.32100  0.38483  1.0000 0.6015827077
C   C5        1.0  0.13812  0.86326  0.68865  1.0000 0.6015827077
C   C6        1.0  0.86188  0.36326  0.81135  1.0000 0.6015827077
C   C7        1.0  0.86188  0.13674  0.31135  1.0000 0.6015827077
C   C8        1.0  0.13812  0.63674  0.18865  1.0000 0.6015827077
C   C9        1.0  0.81060  0.49928  0.87141  1.0000 0.5943873243
C   C10       1.0  0.18940  0.99928  0.62859  1.0000 0.5943873243
C   C11       1.0  0.18940  0.50072  0.12859  1.0000 0.5943873243
C   C12       1.0  0.81060  0.00072  0.37141  1.0000 0.5943873243
C   C13       1.0  0.74670  0.33028  0.95182  1.0000 0.6015827077
C   C14       1.0  0.25330  0.83028  0.54818  1.0000 0.6015827077
C   C15       1.0  0.25330  0.66972  0.04818  1.0000 0.6015827077
C   C16       1.0  0.74670  0.16972  0.45182  1.0000 0.6015827077
C   C17       1.0  0.70073  0.23350  0.29333  1.0000 0.5943873243
C   C18       1.0  0.29927  0.73350  0.20667  1.0000 0.5943873243
C   C19       1.0  0.29927  0.76650  0.70667  1.0000 0.5943873243
C   C20       1.0  0.70073  0.26650  0.79333  1.0000 0.5943873243
C   C21       1.0  0.36419  0.60802  0.13742  1.0000 0.6015827077
C   C22       1.0  0.63581  0.10802  0.36258  1.0000 0.6015827077
C   C23       1.0  0.63581  0.39198  0.86258  1.0000 0.6015827077
C   C24       1.0  0.36419  0.89198  0.63742  1.0000 0.6015827077
C   C25       1.0  0.83578  0.10886  0.87597  1.0000 -0.0386064118
C   C26       1.0  0.16422  0.60886  0.62403  1.0000 -0.0386064118
C   C27       1.0  0.16422  0.89114  0.12403  1.0000 -0.0386064118
C   C28       1.0  0.83578  0.39114  0.37597  1.0000 -0.0386064118
C   C29       1.0  0.89186  0.10500  0.87505  1.0000 -0.0894872796
C   C30       1.0  0.10814  0.60500  0.62495  1.0000 -0.0894872796
C   C31       1.0  0.10814  0.89500  0.12495  1.0000 -0.0894872796
C   C32       1.0  0.89186  0.39500  0.37505  1.0000 -0.0894872796
C   C33       1.0  0.91693  0.03935  0.86565  1.0000 -0.1522619341
C   C34       1.0  0.08307  0.53935  0.63435  1.0000 -0.1522619341
C   C35       1.0  0.08307  0.96065  0.13435  1.0000 -0.1522619341
C   C36       1.0  0.91693  0.46065  0.36565  1.0000 -0.1522619341
C   C37       1.0  0.88631  0.97786  0.85763  1.0000 0.0759500581
C   C38       1.0  0.11369  0.47786  0.64237  1.0000 0.0759500581
C   C39       1.0  0.11369  0.02214  0.14237  1.0000 0.0734057278
C   C40       1.0  0.88631  0.52214  0.35763  1.0000 0.0759500581
C   C41       1.0  0.82969  0.98309  0.85852  1.0000 -0.1522619341
C   C42       1.0  0.17031  0.48309  0.64148  1.0000 -0.1522619341
C   C43       1.0  0.17031  0.01691  0.14148  1.0000 -0.1522619341
C   C44       1.0  0.82969  0.51691  0.35852  1.0000 -0.1522619341
C   C45       1.0  0.80420  0.04874  0.86745  1.0000 -0.0894872796
C   C46       1.0  0.19580  0.54874  0.63255  1.0000 -0.0894872796
C   C47       1.0  0.19580  0.95126  0.13255  1.0000 -0.0894872796
C   C48       1.0  0.80420  0.45126  0.36745  1.0000 -0.0894872796
C   C49       1.0  0.91124  0.90832  0.84445  1.0000 0.0734057278
C   C50       1.0  0.08876  0.40832  0.65555  1.0000 0.0734057278
C   C51       1.0  0.08876  0.09168  0.15555  1.0000 0.0734057278
C   C52       1.0  0.91124  0.59168  0.34445  1.0000 0.0734057278
C   C53       1.0  0.95501  0.90872  0.81933  1.0000 -0.1904310654
C   C54       1.0  0.04499  0.40872  0.68067  1.0000 -0.1904310654
C   C55       1.0  0.04499  0.09128  0.18067  1.0000 -0.1904310654
C   C56       1.0  0.95501  0.59128  0.31933  1.0000 -0.1904310654
C   C57       1.0  0.97655  0.84283  0.80619  1.0000 -0.0582097397
C   C58       1.0  0.02345  0.34283  0.69381  1.0000 -0.0582097397
C   C59       1.0  0.02345  0.15717  0.19381  1.0000 -0.0582097397
C   C60       1.0  0.97655  0.65717  0.30619  1.0000 -0.0582097397
C   C61       1.0  0.95425  0.77755  0.81809  1.0000 0.1906266192
C   C62       1.0  0.04575  0.27755  0.68191  1.0000 0.1906266192
C   C63       1.0  0.04575  0.22245  0.18191  1.0000 0.1906266192
C   C64       1.0  0.95425  0.72245  0.31809  1.0000 0.1906266192
C   C65       1.0  0.91081  0.77671  0.84323  1.0000 -0.0239895686
C   C66       1.0  0.08919  0.27671  0.65677  1.0000 -0.027367328
C   C67       1.0  0.08919  0.22329  0.15677  1.0000 -0.027367328
C   C68       1.0  0.91081  0.72329  0.34323  1.0000 -0.0239895686
C   C69       1.0  0.88950  0.84190  0.85610  1.0000 -0.1904310654
C   C70       1.0  0.11050  0.34190  0.64390  1.0000 -0.1904310654
C   C71       1.0  0.11050  0.15810  0.14390  1.0000 -0.1904310654
C   C72       1.0  0.88950  0.65810  0.35610  1.0000 -0.1904310654
C   C73       1.0  0.01981  0.84561  0.77654  1.0000 0.0884896431
C   C74       1.0  0.98019  0.34561  0.72346  1.0000 0.0884896431
C   C75       1.0  0.98019  0.15439  0.22346  1.0000 0.0884896431
C   C76       1.0  0.01981  0.65439  0.27654  1.0000 0.0884896431
C   C77       1.0  0.06655  0.88665  0.78220  1.0000 -0.1522619341
C   C78       1.0  0.93345  0.38665  0.71780  1.0000 -0.1522619341
C   C79       1.0  0.93345  0.11335  0.21780  1.0000 -0.1522619341
C   C80       1.0  0.06655  0.61335  0.28220  1.0000 -0.1522619341
C   C81       1.0  0.10498  0.89126  0.75346  1.0000 -0.0894872796
C   C82       1.0  0.89502  0.39126  0.74654  1.0000 -0.0894872796
C   C83       1.0  0.89502  0.10874  0.24654  1.0000 -0.0894872796
C   C84       1.0  0.10498  0.60874  0.25346  1.0000 -0.0894872796
C   C85       1.0  0.09667  0.85550  0.71916  1.0000 -0.0386064118
C   C86       1.0  0.90333  0.35550  0.78084  1.0000 -0.0386064118
C   C87       1.0  0.90333  0.14450  0.28084  1.0000 -0.0386064118
C   C88       1.0  0.09667  0.64450  0.21916  1.0000 -0.0386064118
C   C89       1.0  0.05063  0.81457  0.71375  1.0000 -0.083294927
C   C90       1.0  0.94937  0.31457  0.78625  1.0000 -0.083294927
C   C91       1.0  0.94937  0.18543  0.28625  1.0000 -0.083294927
C   C92       1.0  0.05063  0.68543  0.21375  1.0000 -0.083294927
C   C93       1.0  0.01174  0.80972  0.74270  1.0000 -0.1682053638
C   C94       1.0  0.98826  0.30972  0.75730  1.0000 -0.1682053638
C   C95       1.0  0.98826  0.19028  0.25730  1.0000 -0.1682053638
C   C96       1.0  0.01174  0.69028  0.24270  1.0000 -0.1682053638
C   C97       1.0  0.88550  0.70690  0.85546  1.0000 0.1024378071
C   C98       1.0  0.11450  0.20690  0.64454  1.0000 0.1024378071
C   C99       1.0  0.11450  0.29310  0.14454  1.0000 0.1024378071
C   C100      1.0  0.88550  0.79310  0.35546  1.0000 0.1024378071
C   C101      1.0  0.91547  0.64971  0.87023  1.0000 -0.142489696
C   C102      1.0  0.08453  0.14971  0.62977  1.0000 -0.142489696
C   C103      1.0  0.08453  0.35029  0.12977  1.0000 -0.142489696
C   C104      1.0  0.91547  0.85029  0.37023  1.0000 -0.142489696
C   C105      1.0  0.89061  0.58279  0.87743  1.0000 -0.0894872796
C   C106      1.0  0.10939  0.08279  0.62257  1.0000 -0.0894872796
C   C107      1.0  0.10939  0.41721  0.12257  1.0000 -0.0894872796
C   C108      1.0  0.89061  0.91721  0.37743  1.0000 -0.0962501479
C   C109      1.0  0.83676  0.57354  0.86965  1.0000 -0.027367328
C   C110      1.0  0.16324  0.07354  0.63035  1.0000 -0.027367328
C   C111      1.0  0.16324  0.42646  0.13035  1.0000 -0.027367328
C   C112      1.0  0.83676  0.92646  0.36965  1.0000 -0.027367328
C   C113      1.0  0.80576  0.63072  0.85487  1.0000 -0.0962501479
C   C114      1.0  0.19424  0.13072  0.64513  1.0000 -0.0962501479
C   C115      1.0  0.19424  0.36928  0.14513  1.0000 -0.0962501479
C   C116      1.0  0.80576  0.86928  0.35487  1.0000 -0.0962501479
C   C117      1.0  0.83044  0.69724  0.84820  1.0000 -0.1522619341
C   C118      1.0  0.16956  0.19724  0.65180  1.0000 -0.1522619341
C   C119      1.0  0.16956  0.30276  0.15180  1.0000 -0.1522619341
C   C120      1.0  0.83044  0.80276  0.34820  1.0000 -0.1522619341
C   C121      1.0  0.72169  0.35739  0.98755  1.0000 -0.0386064118
C   C122      1.0  0.27831  0.85739  0.51245  1.0000 -0.0386064118
C   C123      1.0  0.27831  0.64261  0.01245  1.0000 -0.0386064118
C   C124      1.0  0.72169  0.14261  0.48755  1.0000 -0.027367328
C   C125      1.0  0.66652  0.34599  0.99344  1.0000 -0.0894872796
C   C126      1.0  0.33348  0.84599  0.50656  1.0000 -0.0894872796
C   C127      1.0  0.33348  0.65401  0.00656  1.0000 -0.0894872796
C   C128      1.0  0.66652  0.15401  0.49344  1.0000 -0.0894872796
C   C129      1.0  0.64335  0.36849  0.02731  1.0000 -0.1566200686
C   C130      1.0  0.35665  0.86849  0.47269  1.0000 -0.1566200686
C   C131      1.0  0.35665  0.63151  0.97269  1.0000 -0.1566200686
C   C132      1.0  0.64335  0.13151  0.52731  1.0000 -0.1566200686
C   C133      1.0  0.67397  0.40180  0.05499  1.0000 0.1024378071
C   C134      1.0  0.32603  0.90180  0.44501  1.0000 0.1024378071
C   C135      1.0  0.32603  0.59820  0.94501  1.0000 0.1024378071
C   C136      1.0  0.67397  0.09820  0.55499  1.0000 0.1024378071
C   C137      1.0  0.72911  0.41322  0.04891  1.0000 -0.142489696
C   C138      1.0  0.27089  0.91322  0.45109  1.0000 -0.142489696
C   C139      1.0  0.27089  0.58678  0.95109  1.0000 -0.142489696
C   C140      1.0  0.72911  0.08678  0.54891  1.0000 -0.142489696
C   C141      1.0  0.75223  0.39080  0.01524  1.0000 -0.0894872796
C   C142      1.0  0.24777  0.89080  0.48476  1.0000 -0.0894872796
C   C143      1.0  0.24777  0.60920  0.98476  1.0000 -0.0894872796
C   C144      1.0  0.75223  0.10920  0.51524  1.0000 -0.0894872796
C   C145      1.0  0.64792  0.41748  0.09275  1.0000 -0.0386064118
C   C146      1.0  0.35208  0.91748  0.40725  1.0000 -0.0386064118
C   C147      1.0  0.35208  0.58252  0.90725  1.0000 -0.0386064118
C   C148      1.0  0.64792  0.08252  0.59275  1.0000 -0.0386064118
C   C149      1.0  0.66841  0.38643  0.12540  1.0000 -0.1904310654
C   C150      1.0  0.33159  0.88643  0.37460  1.0000 -0.1904310654
C   C151      1.0  0.33159  0.61357  0.87460  1.0000 -0.1904310654
C   C152      1.0  0.66841  0.11357  0.62540  1.0000 -0.1904310654
C   C153      1.0  0.64181  0.39485  0.16002  1.0000 0.0734057278
C   C154      1.0  0.35819  0.89485  0.33998  1.0000 0.0734057278
C   C155      1.0  0.35819  0.60515  0.83998  1.0000 0.0734057278
C   C156      1.0  0.64181  0.10515  0.66002  1.0000 0.0734057278
C   C157      1.0  0.59388  0.43520  0.16045  1.0000 -0.1838778985
C   C158      1.0  0.40612  0.93520  0.33955  1.0000 -0.1838778985
C   C159      1.0  0.40612  0.56480  0.83955  1.0000 -0.1838778985
C   C160      1.0  0.59388  0.06480  0.66045  1.0000 -0.1838778985
C   C161      1.0  0.57292  0.46690  0.12830  1.0000 -0.0386064118
C   C162      1.0  0.42708  0.96690  0.37170  1.0000 -0.0386064118
C   C163      1.0  0.42708  0.53310  0.87170  1.0000 -0.0386064118
C   C164      1.0  0.57292  0.03310  0.62830  1.0000 -0.0386064118
C   C165      1.0  0.60100  0.45780  0.09429  1.0000 0.1820069941
C   C166      1.0  0.39900  0.95780  0.40571  1.0000 0.1820069941
C   C167      1.0  0.39900  0.54220  0.90571  1.0000 0.1820069941
C   C168      1.0  0.60100  0.04220  0.59429  1.0000 0.1820069941
C   C169      1.0  0.66077  0.35650  0.19413  1.0000 0.0759500581
C   C170      1.0  0.33923  0.85650  0.30587  1.0000 0.0759500581
C   C171      1.0  0.33923  0.64350  0.80587  1.0000 0.0759500581
C   C172      1.0  0.66077  0.14350  0.69413  1.0000 0.0759500581
C   C173      1.0  0.67989  0.28508  0.19143  1.0000 -0.1522619341
C   C174      1.0  0.32011  0.78508  0.30857  1.0000 -0.1522619341
C   C175      1.0  0.32011  0.71492  0.80857  1.0000 -0.1522619341
C   C176      1.0  0.67989  0.21492  0.69143  1.0000 -0.1522619341
C   C177      1.0  0.69345  0.24481  0.22356  1.0000 -0.083294927
C   C178      1.0  0.30655  0.74481  0.27644  1.0000 -0.083294927
C   C179      1.0  0.30655  0.75519  0.77644  1.0000 -0.083294927
C   C180      1.0  0.69345  0.25519  0.72356  1.0000 -0.083294927
C   C181      1.0  0.68758  0.27620  0.25927  1.0000 -0.0524610785
C   C182      1.0  0.31242  0.77620  0.24073  1.0000 -0.0524610785
C   C183      1.0  0.31242  0.72380  0.74073  1.0000 -0.0524610785
C   C184      1.0  0.68758  0.22380  0.75927  1.0000 -0.0524610785
C   C185      1.0  0.66869  0.34680  0.26206  1.0000 -0.0894872796
C   C186      1.0  0.33131  0.84680  0.23794  1.0000 -0.0894872796
C   C187      1.0  0.33131  0.65320  0.73794  1.0000 -0.0894872796
C   C188      1.0  0.66869  0.15320  0.76206  1.0000 -0.0894872796
C   C189      1.0  0.65609  0.38628  0.23017  1.0000 -0.1522619341
C   C190      1.0  0.34391  0.88628  0.26983  1.0000 -0.1522619341
C   C191      1.0  0.34391  0.61372  0.76983  1.0000 -0.1522619341
C   C192      1.0  0.65609  0.11372  0.73017  1.0000 -0.1522619341
C   C193      1.0  0.51912  0.50451  0.12920  1.0000 0.0884896431
C   C194      1.0  0.48088  0.00451  0.37080  1.0000 0.0884896431
C   C195      1.0  0.48088  0.49549  0.87080  1.0000 0.0884896431
C   C196      1.0  0.51912  0.99549  0.62920  1.0000 0.0884896431
C   C197      1.0  0.47884  0.47299  0.15096  1.0000 -0.1566200686
C   C198      1.0  0.52116  0.97299  0.34904  1.0000 -0.1566200686
C   C199      1.0  0.52116  0.52701  0.84904  1.0000 -0.1566200686
C   C200      1.0  0.47884  0.02701  0.65096  1.0000 -0.1566200686
C   C201      1.0  0.42879  0.50736  0.15408  1.0000 -0.083294927
C   C202      1.0  0.57121  0.00736  0.34592  1.0000 -0.083294927
C   C203      1.0  0.57121  0.49264  0.84592  1.0000 -0.083294927
C   C204      1.0  0.42879  0.99264  0.65408  1.0000 -0.083294927
C   C205      1.0  0.41871  0.57277  0.13560  1.0000 -0.0386064118
C   C206      1.0  0.58129  0.07277  0.36440  1.0000 -0.0386064118
C   C207      1.0  0.58129  0.42723  0.86440  1.0000 -0.0386064118
C   C208      1.0  0.41871  0.92723  0.63560  1.0000 -0.0386064118
C   C209      1.0  0.45950  0.60333  0.11391  1.0000 -0.0894872796
C   C210      1.0  0.54050  0.10333  0.38609  1.0000 -0.0894872796
C   C211      1.0  0.54050  0.39667  0.88609  1.0000 -0.0894872796
C   C212      1.0  0.45950  0.89667  0.61391  1.0000 -0.0894872796
C   C213      1.0  0.50948  0.56934  0.11109  1.0000 -0.1566200686
C   C214      1.0  0.49052  0.06934  0.38891  1.0000 -0.1566200686
C   C215      1.0  0.49052  0.43066  0.88891  1.0000 -0.1566200686
C   C216      1.0  0.50948  0.93066  0.61109  1.0000 -0.1566200686
O   O1        1.0  0.83611  0.23170  0.89602  1.0000 -0.5390436533
O   O2        1.0  0.16389  0.73170  0.60398  1.0000 -0.5390436533
O   O3        1.0  0.16389  0.76830  0.10398  1.0000 -0.5390436533
O   O4        1.0  0.83611  0.26830  0.39602  1.0000 -0.5390436533
O   O5        1.0  0.75825  0.18165  0.87783  1.0000 -0.5503454228
O   O6        1.0  0.24175  0.68165  0.62217  1.0000 -0.5503454228
O   O7        1.0  0.24175  0.81835  0.12217  1.0000 -0.5503454228
O   O8        1.0  0.75825  0.31835  0.37783  1.0000 -0.5503454228
O   O9        1.0  0.17847  0.90197  0.69516  1.0000 -0.5390436533
O   O10       1.0  0.82153  0.40197  0.80484  1.0000 -0.5390436533
O   O11       1.0  0.82153  0.09803  0.30484  1.0000 -0.5390436533
O   O12       1.0  0.17847  0.59803  0.19516  1.0000 -0.5390436533
O   O13       1.0  0.12819  0.83120  0.65795  1.0000 -0.5390436533
O   O14       1.0  0.87181  0.33120  0.84205  1.0000 -0.5390436533
O   O15       1.0  0.87181  0.16880  0.34205  1.0000 -0.5390436533
O   O16       1.0  0.12819  0.66880  0.15795  1.0000 -0.5390436533
O   O17       1.0  0.83851  0.45084  0.88790  1.0000 -0.5503454228
O   O18       1.0  0.16149  0.95084  0.61210  1.0000 -0.5503454228
O   O19       1.0  0.16149  0.54916  0.11210  1.0000 -0.5503454228
O   O20       1.0  0.83851  0.04916  0.38790  1.0000 -0.5503454228
O   O21       1.0  0.76543  0.49057  0.85707  1.0000 -0.5207170529
O   O22       1.0  0.23457  0.99057  0.64293  1.0000 -0.5207170529
O   O23       1.0  0.23457  0.50943  0.14293  1.0000 -0.5207170529
O   O24       1.0  0.76543  0.00943  0.35707  1.0000 -0.5207170529
O   O25       1.0  0.97358  0.71068  0.80607  1.0000 -0.4514250947
O   O26       1.0  0.02642  0.21068  0.69393  1.0000 -0.4514250947
O   O27       1.0  0.02642  0.28932  0.19393  1.0000 -0.4514250947
O   O28       1.0  0.97358  0.78932  0.30607  1.0000 -0.4514250947
O   O29       1.0  0.79152  0.35522  0.94217  1.0000 -0.5300863294
O   O30       1.0  0.20848  0.85522  0.55783  1.0000 -0.5300863294
O   O31       1.0  0.20848  0.64478  0.05783  1.0000 -0.5300863294
O   O32       1.0  0.79152  0.14478  0.44217  1.0000 -0.5300863294
O   O33       1.0  0.71906  0.28332  0.93349  1.0000 -0.5574779493
O   O34       1.0  0.28094  0.78332  0.56651  1.0000 -0.5574779493
O   O35       1.0  0.28094  0.71668  0.06651  1.0000 -0.5574779493
O   O36       1.0  0.71906  0.21668  0.43349  1.0000 -0.5574779493
O   O37       1.0  0.72507  0.17247  0.28831  1.0000 -0.5574779493
O   O38       1.0  0.27493  0.67247  0.21169  1.0000 -0.5574779493
O   O39       1.0  0.27493  0.82753  0.71169  1.0000 -0.5574779493
O   O40       1.0  0.72507  0.32753  0.78831  1.0000 -0.5574779493
O   O41       1.0  0.68748  0.25857  0.32542  1.0000 -0.5503454228
O   O42       1.0  0.31252  0.75857  0.17458  1.0000 -0.5503454228
O   O43       1.0  0.31252  0.74143  0.67458  1.0000 -0.5503454228
O   O44       1.0  0.68748  0.24143  0.82542  1.0000 -0.5503454228
O   O45       1.0  0.33204  0.57930  0.16131  1.0000 -0.5503454228
O   O46       1.0  0.66796  0.07930  0.33869  1.0000 -0.5503454228
O   O47       1.0  0.66796  0.42070  0.83869  1.0000 -0.5503454228
O   O48       1.0  0.33204  0.92070  0.66131  1.0000 -0.5503454228
O   O49       1.0  0.35529  0.66316  0.11850  1.0000 -0.5300863294
O   O50       1.0  0.64471  0.16316  0.38150  1.0000 -0.5300863294
O   O51       1.0  0.64471  0.33684  0.88150  1.0000 -0.5300863294
O   O52       1.0  0.35529  0.83684  0.61850  1.0000 -0.5300863294
O   O53       1.0  0.57968  0.49210  0.06187  1.0000 -0.4514250947
O   O54       1.0  0.42032  0.99210  0.43813  1.0000 -0.4442975057
O   O55       1.0  0.42032  0.50790  0.93813  1.0000 -0.4442975057
O   O56       1.0  0.57968  0.00790  0.56187  1.0000 -0.4442975057
O   O57       1.0  0.76182  0.33592  0.86529  1.0000 -0.9116426838
O   O58       1.0  0.23818  0.83592  0.63471  1.0000 -0.9116426838
O   O59       1.0  0.23818  0.66408  0.13471  1.0000 -0.9116426838
O   O60       1.0  0.76182  0.16408  0.36529  1.0000 -0.9116426838
