# DDEC6 charges by PACMAN v1.1 (https://github.com/mtap-research/PACMAN-charge/)
data_2014[Fe][nan]3[ASR]6
_chemical_formula_sum              "Fe12 H128 C216 N8 O52"
_cell_length_a       27.005
_cell_length_b       18.564
_cell_length_c       36.389
_cell_angle_alpha    90
_cell_angle_beta     98.848
_cell_angle_gamma    90

_symmetry_space_group_name_H-M    "P 1"
_symmetry_Int_Tables_number       1

loop_
  _symmetry_equiv_pos_as_xyz
  'x, y, z'

loop_
  _atom_site_type_symbol
  _atom_site_label
  _atom_site_symmetry_multiplicity
  _atom_site_fract_x
  _atom_site_fract_y
  _atom_site_fract_z
  _atom_site_occupancy
  _atom_site_charge
Fe  Fe1       1.0  0.76114  0.90823  0.79850  1.0000 1.1597642958
Fe  Fe2       1.0  0.23886  0.40823  0.70150  1.0000 1.1597642958
Fe  Fe3       1.0  0.23886  0.09177  0.20150  1.0000 1.1597642958
Fe  Fe4       1.0  0.76114  0.59177  0.29850  1.0000 1.1597642958
Fe  Fe5       1.0  0.70349  0.85098  0.86671  1.0000 1.1763180851
Fe  Fe6       1.0  0.29651  0.35098  0.63329  1.0000 1.1763180851
Fe  Fe7       1.0  0.29651  0.14902  0.13329  1.0000 1.1763180851
Fe  Fe8       1.0  0.70349  0.64902  0.36671  1.0000 1.1763180851
Fe  Fe9       1.0  0.80948  0.77610  0.85315  1.0000 1.1597642958
Fe  Fe10      1.0  0.19052  0.27610  0.64685  1.0000 1.1597642958
Fe  Fe11      1.0  0.19052  0.22390  0.14685  1.0000 1.1597642958
Fe  Fe12      1.0  0.80948  0.72390  0.35315  1.0000 1.1597642958
H   H1        1.0  0.44610  0.68140  0.68580  1.0000 0.2904782392
H   H2        1.0  0.55390  0.18140  0.81420  1.0000 0.2904782392
H   H3        1.0  0.55390  0.31860  0.31420  1.0000 0.2904782392
H   H4        1.0  0.44610  0.81860  0.18580  1.0000 0.2904782392
H   H5        1.0  0.49200  0.72390  0.70340  1.0000 0.2904782392
H   H6        1.0  0.50800  0.22390  0.79660  1.0000 0.2904782392
H   H7        1.0  0.50800  0.27610  0.29660  1.0000 0.2904782392
H   H8        1.0  0.49200  0.77610  0.20340  1.0000 0.2904782392
H   H9        1.0  0.02340  0.02570  0.93620  1.0000 0.2904782392
H   H10       1.0  0.97660  0.52570  0.56380  1.0000 0.2904782392
H   H11       1.0  0.97660  0.97430  0.06380  1.0000 0.2904782392
H   H12       1.0  0.02340  0.47430  0.43620  1.0000 0.2904782392
H   H13       1.0  0.06530  0.05660  0.96460  1.0000 0.2904782392
H   H14       1.0  0.93470  0.55660  0.53540  1.0000 0.2904782392
H   H15       1.0  0.93470  0.94340  0.03540  1.0000 0.2904782392
H   H16       1.0  0.06530  0.44340  0.46460  1.0000 0.2904782392
H   H17       1.0  0.62370  0.91880  0.71940  1.0000 0.1317931847
H   H18       1.0  0.37630  0.41880  0.78060  1.0000 0.1317931847
H   H19       1.0  0.37630  0.08120  0.28060  1.0000 0.1317931847
H   H20       1.0  0.62370  0.58120  0.21940  1.0000 0.1317931847
H   H21       1.0  0.54620  0.91230  0.68070  1.0000 0.1191233857
H   H22       1.0  0.45380  0.41230  0.81930  1.0000 0.1191233857
H   H23       1.0  0.45380  0.08770  0.31930  1.0000 0.1191233857
H   H24       1.0  0.54620  0.58770  0.18070  1.0000 0.1191233857
H   H25       1.0  0.49070  0.79680  0.75740  1.0000 0.1191233857
H   H26       1.0  0.50930  0.29680  0.74260  1.0000 0.1191233857
H   H27       1.0  0.50930  0.20320  0.24260  1.0000 0.1191233857
H   H28       1.0  0.49070  0.70320  0.25740  1.0000 0.1191233857
H   H29       1.0  0.56720  0.80650  0.79740  1.0000 0.1317931847
H   H30       1.0  0.43280  0.30650  0.70260  1.0000 0.1317931847
H   H31       1.0  0.43280  0.19350  0.20260  1.0000 0.1317931847
H   H32       1.0  0.56720  0.69350  0.29740  1.0000 0.1317931847
H   H33       1.0  0.45040  0.96290  0.68860  1.0000 0.1191233857
H   H34       1.0  0.54960  0.46290  0.81140  1.0000 0.1191233857
H   H35       1.0  0.54960  0.03710  0.31140  1.0000 0.1191233857
H   H36       1.0  0.45040  0.53710  0.18860  1.0000 0.1191233857
H   H37       1.0  0.32810  0.84920  0.64250  1.0000 0.1191233857
H   H38       1.0  0.67190  0.34920  0.85750  1.0000 0.1191233857
H   H39       1.0  0.67190  0.15080  0.35750  1.0000 0.1191233857
H   H40       1.0  0.32810  0.65080  0.14250  1.0000 0.1191233857
H   H41       1.0  0.41680  0.04520  0.64260  1.0000 0.1191233857
H   H42       1.0  0.58320  0.54520  0.85740  1.0000 0.1191233857
H   H43       1.0  0.58320  0.95480  0.35740  1.0000 0.1191233857
H   H44       1.0  0.41680  0.45480  0.14260  1.0000 0.1191233857
H   H45       1.0  0.37470  0.15280  0.63090  1.0000 0.1317931847
H   H46       1.0  0.62530  0.65280  0.86910  1.0000 0.1317931847
H   H47       1.0  0.62530  0.84720  0.36910  1.0000 0.1317931847
H   H48       1.0  0.37470  0.34720  0.13090  1.0000 0.1317931847
H   H49       1.0  0.24860  0.06090  0.65430  1.0000 0.1352293551
H   H50       1.0  0.75140  0.56090  0.84570  1.0000 0.1317931847
H   H51       1.0  0.75140  0.93910  0.34570  1.0000 0.1317931847
H   H52       1.0  0.24860  0.43910  0.15430  1.0000 0.1317931847
H   H53       1.0  0.29060  0.95130  0.66360  1.0000 0.1191233857
H   H54       1.0  0.70940  0.45130  0.83640  1.0000 0.1191233857
H   H55       1.0  0.70940  0.04870  0.33640  1.0000 0.1191233857
H   H56       1.0  0.29060  0.54870  0.16360  1.0000 0.1191233857
H   H57       1.0  0.30670  0.73900  0.68970  1.0000 0.1317931847
H   H58       1.0  0.69330  0.23900  0.81030  1.0000 0.1317931847
H   H59       1.0  0.69330  0.26100  0.31030  1.0000 0.1317931847
H   H60       1.0  0.30670  0.76100  0.18970  1.0000 0.1317931847
H   H61       1.0  0.26840  0.62630  0.68600  1.0000 0.1352293551
H   H62       1.0  0.73160  0.12630  0.81400  1.0000 0.1317931847
H   H63       1.0  0.73160  0.37370  0.31400  1.0000 0.1317931847
H   H64       1.0  0.26840  0.87370  0.18600  1.0000 0.1317931847
H   H65       1.0  0.35880  0.56270  0.61730  1.0000 0.1352293551
H   H66       1.0  0.64120  0.06270  0.88270  1.0000 0.1352293551
H   H67       1.0  0.64120  0.43730  0.38270  1.0000 0.1352293551
H   H68       1.0  0.35880  0.93730  0.11730  1.0000 0.1352293551
H   H69       1.0  0.39910  0.67170  0.62320  1.0000 0.1317931847
H   H70       1.0  0.60090  0.17170  0.87680  1.0000 0.1317931847
H   H71       1.0  0.60090  0.32830  0.37680  1.0000 0.1317931847
H   H72       1.0  0.39910  0.82830  0.12320  1.0000 0.1317931847
H   H73       1.0  0.95280  0.87300  0.87990  1.0000 0.1317931847
H   H74       1.0  0.04720  0.37300  0.62010  1.0000 0.1317931847
H   H75       1.0  0.04720  0.12700  0.12010  1.0000 0.1317931847
H   H76       1.0  0.95280  0.62700  0.37990  1.0000 0.1317931847
H   H77       1.0  0.02540  0.94020  0.89720  1.0000 0.1142601504
H   H78       1.0  0.97460  0.44020  0.60280  1.0000 0.1142601504
H   H79       1.0  0.97460  0.05980  0.10280  1.0000 0.1142601504
H   H80       1.0  0.02540  0.55980  0.39720  1.0000 0.1142601504
H   H81       1.0  0.96670  0.10270  0.83110  1.0000 0.1191233857
H   H82       1.0  0.03330  0.60270  0.66890  1.0000 0.1191233857
H   H83       1.0  0.03330  0.89730  0.16890  1.0000 0.1191233857
H   H84       1.0  0.96670  0.39730  0.33110  1.0000 0.1191233857
H   H85       1.0  0.89320  0.03550  0.81540  1.0000 0.1317931847
H   H86       1.0  0.10680  0.53550  0.68460  1.0000 0.1317931847
H   H87       1.0  0.10680  0.96450  0.18460  1.0000 0.1317931847
H   H88       1.0  0.89320  0.46450  0.31540  1.0000 0.1317931847
H   H89       1.0  0.05800  0.09500  0.82210  1.0000 0.1142601504
H   H90       1.0  0.94200  0.59500  0.67790  1.0000 0.1142601504
H   H91       1.0  0.94200  0.90500  0.17790  1.0000 0.1142601504
H   H92       1.0  0.05800  0.40500  0.32210  1.0000 0.1142601504
H   H93       1.0  0.17020  0.17670  0.89580  1.0000 0.1191233857
H   H94       1.0  0.82980  0.67670  0.60420  1.0000 0.1191233857
H   H95       1.0  0.82980  0.82330  0.10420  1.0000 0.1191233857
H   H96       1.0  0.17020  0.32330  0.39580  1.0000 0.1191233857
H   H97       1.0  0.16460  0.26390  0.84870  1.0000 0.1191233857
H   H98       1.0  0.83540  0.76390  0.65130  1.0000 0.1191233857
H   H99       1.0  0.83540  0.73610  0.15130  1.0000 0.1191233857
H   H100      1.0  0.16460  0.23610  0.34870  1.0000 0.1191233857
H   H101      1.0  0.19670  0.31780  0.79990  1.0000 0.1317931847
H   H102      1.0  0.80330  0.81780  0.70010  1.0000 0.1317931847
H   H103      1.0  0.80330  0.68220  0.20010  1.0000 0.1317931847
H   H104      1.0  0.19670  0.18220  0.29990  1.0000 0.1317931847
H   H105      1.0  0.15110  0.14890  0.73550  1.0000 0.1352293551
H   H106      1.0  0.84890  0.64890  0.76450  1.0000 0.1352293551
H   H107      1.0  0.84890  0.85110  0.26450  1.0000 0.1352293551
H   H108      1.0  0.15110  0.35110  0.23550  1.0000 0.1352293551
H   H109      1.0  0.12330  0.09320  0.78560  1.0000 0.1191233857
H   H110      1.0  0.87670  0.59320  0.71440  1.0000 0.1191233857
H   H111      1.0  0.87670  0.90680  0.21440  1.0000 0.1191233857
H   H112      1.0  0.12330  0.40680  0.28560  1.0000 0.1191233857
H   H113      1.0  0.08570  0.18630  0.97540  1.0000 0.1191233857
H   H114      1.0  0.91430  0.68630  0.52460  1.0000 0.1191233857
H   H115      1.0  0.91430  0.81370  0.02460  1.0000 0.1191233857
H   H116      1.0  0.08570  0.31370  0.47540  1.0000 0.1191233857
H   H117      1.0  0.12100  0.20620  0.03620  1.0000 0.1317931847
H   H118      1.0  0.87900  0.70620  0.46380  1.0000 0.1317931847
H   H119      1.0  0.87900  0.79380  0.96380  1.0000 0.1317931847
H   H120      1.0  0.12100  0.29380  0.53620  1.0000 0.1317931847
H   H121      1.0  0.24460  0.10240  0.01710  1.0000 0.1317931847
H   H122      1.0  0.75540  0.60240  0.48290  1.0000 0.1317931847
H   H123      1.0  0.75540  0.89760  0.98290  1.0000 0.1317931847
H   H124      1.0  0.24460  0.39760  0.51710  1.0000 0.1317931847
H   H125      1.0  0.20780  0.08310  0.95560  1.0000 0.1191233857
H   H126      1.0  0.79220  0.58310  0.54440  1.0000 0.1191233857
H   H127      1.0  0.79220  0.91690  0.04440  1.0000 0.1191233857
H   H128      1.0  0.20780  0.41690  0.45560  1.0000 0.1317931847
C   C1        1.0  0.65181  0.87004  0.78781  1.0000 0.5969173418
C   C2        1.0  0.34819  0.37004  0.71219  1.0000 0.5969173418
C   C3        1.0  0.34819  0.12996  0.21219  1.0000 0.5969173418
C   C4        1.0  0.65181  0.62996  0.28781  1.0000 0.5969173418
C   C5        1.0  0.60311  0.86452  0.76203  1.0000 -0.0402809496
C   C6        1.0  0.39689  0.36452  0.73797  1.0000 -0.0402809496
C   C7        1.0  0.39689  0.13548  0.23797  1.0000 -0.0301373844
C   C8        1.0  0.60311  0.63548  0.26203  1.0000 -0.0301373844
C   C9        1.0  0.59653  0.89459  0.72785  1.0000 -0.0901007725
C   C10       1.0  0.40347  0.39459  0.77215  1.0000 -0.0901007725
C   C11       1.0  0.40347  0.10541  0.27215  1.0000 -0.0901007725
C   C12       1.0  0.59653  0.60541  0.22785  1.0000 -0.0901007725
C   C13       1.0  0.55000  0.89050  0.70462  1.0000 -0.1582161244
C   C14       1.0  0.45000  0.39050  0.79538  1.0000 -0.1582161244
C   C15       1.0  0.45000  0.10950  0.29538  1.0000 -0.1507116687
C   C16       1.0  0.55000  0.60950  0.20462  1.0000 -0.1582161244
C   C17       1.0  0.51022  0.85615  0.71546  1.0000 0.0777356739
C   C18       1.0  0.48978  0.35615  0.78454  1.0000 0.0777356739
C   C19       1.0  0.48978  0.14385  0.28454  1.0000 0.0777356739
C   C20       1.0  0.51022  0.64385  0.21546  1.0000 0.0777356739
C   C21       1.0  0.51741  0.82330  0.74971  1.0000 -0.1702254759
C   C22       1.0  0.48259  0.32330  0.75029  1.0000 -0.1702254759
C   C23       1.0  0.48259  0.17670  0.25029  1.0000 -0.1702254759
C   C24       1.0  0.51741  0.67670  0.24971  1.0000 -0.1702254759
C   C25       1.0  0.56335  0.82810  0.77345  1.0000 -0.0901007725
C   C26       1.0  0.43665  0.32810  0.72655  1.0000 -0.0901007725
C   C27       1.0  0.43665  0.17190  0.22655  1.0000 -0.0901007725
C   C28       1.0  0.56335  0.67190  0.27345  1.0000 -0.0901007725
C   C29       1.0  0.45869  0.85426  0.69236  1.0000 -0.0137888329
C   C30       1.0  0.54131  0.35426  0.80764  1.0000 -0.0137888329
C   C31       1.0  0.54131  0.14574  0.30764  1.0000 -0.0137888329
C   C32       1.0  0.45869  0.64574  0.19236  1.0000 -0.0137888329
C   C33       1.0  0.43399  0.91825  0.68254  1.0000 -0.1986004278
C   C34       1.0  0.56601  0.41825  0.81746  1.0000 -0.1986004278
C   C35       1.0  0.56601  0.08175  0.31746  1.0000 -0.1986004278
C   C36       1.0  0.43399  0.58175  0.18254  1.0000 -0.1986004278
C   C37       1.0  0.38449  0.91744  0.66350  1.0000 0.0708717214
C   C38       1.0  0.61551  0.41744  0.83650  1.0000 0.0708717214
C   C39       1.0  0.61551  0.08256  0.33650  1.0000 0.0708717214
C   C40       1.0  0.38449  0.58256  0.16350  1.0000 0.0708717214
C   C41       1.0  0.36155  0.85047  0.65525  1.0000 -0.1876344472
C   C42       1.0  0.63845  0.35047  0.84475  1.0000 -0.1876344472
C   C43       1.0  0.63845  0.14953  0.34475  1.0000 -0.1876344472
C   C44       1.0  0.36155  0.64953  0.15525  1.0000 -0.1876344472
C   C45       1.0  0.38545  0.78722  0.66491  1.0000 -0.0195224056
C   C46       1.0  0.61455  0.28722  0.83509  1.0000 -0.0195224056
C   C47       1.0  0.61455  0.21278  0.33509  1.0000 -0.0195224056
C   C48       1.0  0.38545  0.71278  0.16491  1.0000 -0.0195224056
C   C49       1.0  0.43442  0.78844  0.68304  1.0000 0.1475725848
C   C50       1.0  0.56558  0.28844  0.81696  1.0000 0.1475725848
C   C51       1.0  0.56558  0.21156  0.31696  1.0000 0.1475725848
C   C52       1.0  0.43442  0.71156  0.18304  1.0000 0.1475725848
C   C53       1.0  0.35837  0.98620  0.65462  1.0000 0.0625470591
C   C54       1.0  0.64163  0.48620  0.84538  1.0000 0.0625470591
C   C55       1.0  0.64163  0.01380  0.34538  1.0000 0.0625470591
C   C56       1.0  0.35837  0.51380  0.15462  1.0000 0.0625470591
C   C57       1.0  0.38224  0.04760  0.64490  1.0000 -0.1507116687
C   C58       1.0  0.61776  0.54760  0.85510  1.0000 -0.1507116687
C   C59       1.0  0.61776  0.95240  0.35510  1.0000 -0.1507116687
C   C60       1.0  0.38224  0.45240  0.14490  1.0000 -0.1507116687
C   C61       1.0  0.35722  0.11231  0.63848  1.0000 -0.0901007725
C   C62       1.0  0.64278  0.61231  0.86152  1.0000 -0.0901007725
C   C63       1.0  0.64278  0.88769  0.36152  1.0000 -0.0901007725
C   C64       1.0  0.35722  0.38769  0.13848  1.0000 -0.0901007725
C   C65       1.0  0.30816  0.11970  0.64272  1.0000 -0.0301373844
C   C66       1.0  0.69184  0.61970  0.85728  1.0000 -0.0301373844
C   C67       1.0  0.69184  0.88030  0.35728  1.0000 -0.0301373844
C   C68       1.0  0.30816  0.38030  0.14272  1.0000 -0.0301373844
C   C69       1.0  0.28310  0.05820  0.65188  1.0000 -0.0901007725
C   C70       1.0  0.71690  0.55820  0.84812  1.0000 -0.0901007725
C   C71       1.0  0.71690  0.94180  0.34812  1.0000 -0.0901007725
C   C72       1.0  0.28310  0.44180  0.15188  1.0000 -0.0901007725
C   C73       1.0  0.30838  0.99270  0.65755  1.0000 -0.1507116687
C   C74       1.0  0.69162  0.49270  0.84245  1.0000 -0.1507116687
C   C75       1.0  0.69162  0.00730  0.34245  1.0000 -0.1507116687
C   C76       1.0  0.30838  0.50730  0.15755  1.0000 -0.1507116687
C   C77       1.0  0.28053  0.19040  0.63846  1.0000 0.5969173418
C   C78       1.0  0.71947  0.69040  0.86154  1.0000 0.5969173418
C   C79       1.0  0.71947  0.80960  0.36154  1.0000 0.5969173418
C   C80       1.0  0.28053  0.30960  0.13846  1.0000 0.5969173418
C   C81       1.0  0.35888  0.71633  0.65808  1.0000 0.0777356739
C   C82       1.0  0.64112  0.21633  0.84192  1.0000 0.0777356739
C   C83       1.0  0.64112  0.28367  0.34192  1.0000 0.0777356739
C   C84       1.0  0.35888  0.78367  0.15808  1.0000 0.0777356739
C   C85       1.0  0.31912  0.70214  0.67541  1.0000 -0.1702254759
C   C86       1.0  0.68088  0.20214  0.82459  1.0000 -0.1702254759
C   C87       1.0  0.68088  0.29786  0.32459  1.0000 -0.1702254759
C   C88       1.0  0.31912  0.79786  0.17541  1.0000 -0.1702254759
C   C89       1.0  0.29565  0.63443  0.67290  1.0000 -0.0901007725
C   C90       1.0  0.70435  0.13443  0.82710  1.0000 -0.0901007725
C   C91       1.0  0.70435  0.36557  0.32710  1.0000 -0.0901007725
C   C92       1.0  0.29565  0.86557  0.17290  1.0000 -0.0901007725
C   C93       1.0  0.31062  0.58108  0.65257  1.0000 -0.0491951878
C   C94       1.0  0.68938  0.08108  0.84743  1.0000 -0.0491951878
C   C95       1.0  0.68938  0.41892  0.34743  1.0000 -0.0491951878
C   C96       1.0  0.31062  0.91892  0.15257  1.0000 -0.0491951878
C   C97       1.0  0.34832  0.59773  0.63350  1.0000 -0.0901007725
C   C98       1.0  0.65168  0.09773  0.86650  1.0000 -0.0901007725
C   C99       1.0  0.65168  0.40227  0.36650  1.0000 -0.0901007725
C   C100      1.0  0.34832  0.90227  0.13350  1.0000 -0.0901007725
C   C101      1.0  0.37217  0.66360  0.63669  1.0000 -0.1702254759
C   C102      1.0  0.62783  0.16360  0.86331  1.0000 -0.1702254759
C   C103      1.0  0.62783  0.33640  0.36331  1.0000 -0.1702254759
C   C104      1.0  0.37217  0.83640  0.13669  1.0000 -0.1702254759
C   C105      1.0  0.28943  0.50806  0.65374  1.0000 0.5969173418
C   C106      1.0  0.71057  0.00806  0.84626  1.0000 0.5969173418
C   C107      1.0  0.71057  0.49194  0.34626  1.0000 0.5940194249
C   C108      1.0  0.28943  0.99194  0.15374  1.0000 0.5969173418
C   C109      1.0  0.86857  0.90770  0.83735  1.0000 0.5969173418
C   C110      1.0  0.13143  0.40770  0.66265  1.0000 0.5969173418
C   C111      1.0  0.13143  0.09230  0.16265  1.0000 0.5969173418
C   C112      1.0  0.86857  0.59230  0.33735  1.0000 0.5969173418
C   C113      1.0  0.91603  0.94890  0.84694  1.0000 -0.0402809496
C   C114      1.0  0.08397  0.44890  0.65306  1.0000 -0.0402809496
C   C115      1.0  0.08397  0.05110  0.15306  1.0000 -0.0402809496
C   C116      1.0  0.91603  0.55110  0.34694  1.0000 -0.0402809496
C   C117      1.0  0.95521  0.92020  0.87026  1.0000 -0.0901007725
C   C118      1.0  0.04479  0.42020  0.62974  1.0000 -0.0901007725
C   C119      1.0  0.04479  0.07980  0.12974  1.0000 -0.0901007725
C   C120      1.0  0.95521  0.57980  0.37026  1.0000 -0.0901007725
C   C121      1.0  0.99882  0.96000  0.88006  1.0000 -0.1702254759
C   C122      1.0  0.00118  0.46000  0.61994  1.0000 -0.1702254759
C   C123      1.0  0.00118  0.04000  0.11994  1.0000 -0.1702254759
C   C124      1.0  0.99882  0.54000  0.38006  1.0000 -0.1702254759
C   C125      1.0  0.00436  0.02780  0.86547  1.0000 0.0885441344
C   C126      1.0  0.99564  0.52780  0.63453  1.0000 0.0885441344
C   C127      1.0  0.99564  0.97220  0.13453  1.0000 0.0885441344
C   C128      1.0  0.00436  0.47220  0.36547  1.0000 0.0885441344
C   C129      1.0  0.96425  0.05600  0.84133  1.0000 -0.1507116687
C   C130      1.0  0.03575  0.55600  0.65867  1.0000 -0.1582161244
C   C131      1.0  0.03575  0.94400  0.15867  1.0000 -0.1582161244
C   C132      1.0  0.96425  0.44400  0.34133  1.0000 -0.1582161244
C   C133      1.0  0.92035  0.01600  0.83211  1.0000 -0.0796710699
C   C134      1.0  0.07965  0.51600  0.66789  1.0000 -0.0796710699
C   C135      1.0  0.07965  0.98400  0.16789  1.0000 -0.0796710699
C   C136      1.0  0.92035  0.48400  0.33211  1.0000 -0.0796710699
C   C137      1.0  0.05231  0.06966  0.87488  1.0000 -0.0195224056
C   C138      1.0  0.94769  0.56966  0.62512  1.0000 -0.0195224056
C   C139      1.0  0.94769  0.93034  0.12512  1.0000 -0.0195224056
C   C140      1.0  0.05231  0.43034  0.37488  1.0000 -0.0195224056
C   C141      1.0  0.07411  0.10102  0.84702  1.0000 -0.1986004278
C   C142      1.0  0.92589  0.60102  0.65298  1.0000 -0.1986004278
C   C143      1.0  0.92589  0.89898  0.15298  1.0000 -0.1986004278
C   C144      1.0  0.07411  0.39898  0.34702  1.0000 -0.1986004278
C   C145      1.0  0.11809  0.14090  0.85297  1.0000 0.0708717214
C   C146      1.0  0.88191  0.64090  0.64703  1.0000 0.0708717214
C   C147      1.0  0.88191  0.85910  0.14703  1.0000 0.0708717214
C   C148      1.0  0.11809  0.35910  0.35297  1.0000 0.0708717214
C   C149      1.0  0.13996  0.14996  0.89041  1.0000 -0.1986004278
C   C150      1.0  0.86004  0.64996  0.60959  1.0000 -0.1986004278
C   C151      1.0  0.86004  0.85004  0.10959  1.0000 -0.1986004278
C   C152      1.0  0.13996  0.35004  0.39041  1.0000 -0.1986004278
C   C153      1.0  0.11871  0.12102  0.91980  1.0000 -0.0195224056
C   C154      1.0  0.88129  0.62102  0.58020  1.0000 -0.0195224056
C   C155      1.0  0.88129  0.87898  0.08020  1.0000 -0.0195224056
C   C156      1.0  0.11871  0.37898  0.41980  1.0000 -0.0195224056
C   C157      1.0  0.07507  0.08050  0.91129  1.0000 0.1475725848
C   C158      1.0  0.92493  0.58050  0.58871  1.0000 0.1475725848
C   C159      1.0  0.92493  0.91950  0.08871  1.0000 0.1475725848
C   C160      1.0  0.07507  0.41950  0.41129  1.0000 0.1475725848
C   C161      1.0  0.13927  0.17480  0.82258  1.0000 0.0625470591
C   C162      1.0  0.86073  0.67480  0.67742  1.0000 0.0625470591
C   C163      1.0  0.86073  0.82520  0.17742  1.0000 0.0625470591
C   C164      1.0  0.13927  0.32520  0.32258  1.0000 0.0625470591
C   C165      1.0  0.16166  0.23940  0.82555  1.0000 -0.1507116687
C   C166      1.0  0.83834  0.73940  0.67445  1.0000 -0.1507116687
C   C167      1.0  0.83834  0.76060  0.17445  1.0000 -0.1507116687
C   C168      1.0  0.16166  0.26060  0.32555  1.0000 -0.1507116687
C   C169      1.0  0.18079  0.27210  0.79638  1.0000 -0.0901007725
C   C170      1.0  0.81921  0.77210  0.70362  1.0000 -0.0901007725
C   C171      1.0  0.81921  0.72790  0.20362  1.0000 -0.0901007725
C   C172      1.0  0.18079  0.22790  0.29638  1.0000 -0.0901007725
C   C173      1.0  0.17668  0.23810  0.76233  1.0000 -0.0301373844
C   C174      1.0  0.82332  0.73810  0.73767  1.0000 -0.0301373844
C   C175      1.0  0.82332  0.76190  0.23767  1.0000 -0.0301373844
C   C176      1.0  0.17668  0.26190  0.26233  1.0000 -0.0301373844
C   C177      1.0  0.15467  0.17300  0.75879  1.0000 -0.0901007725
C   C178      1.0  0.84533  0.67300  0.74121  1.0000 -0.0901007725
C   C179      1.0  0.84533  0.82700  0.24121  1.0000 -0.0901007725
C   C180      1.0  0.15467  0.32700  0.25879  1.0000 -0.0901007725
C   C181      1.0  0.13711  0.14030  0.78859  1.0000 -0.1507116687
C   C182      1.0  0.86289  0.64030  0.71141  1.0000 -0.1507116687
C   C183      1.0  0.86289  0.85970  0.21141  1.0000 -0.1507116687
C   C184      1.0  0.13711  0.35970  0.28859  1.0000 -0.1507116687
C   C185      1.0  0.19413  0.27630  0.73042  1.0000 0.5940194249
C   C186      1.0  0.80587  0.77630  0.76958  1.0000 0.5940194249
C   C187      1.0  0.80587  0.72370  0.26958  1.0000 0.5940194249
C   C188      1.0  0.19413  0.22370  0.23042  1.0000 0.5940194249
C   C189      1.0  0.14253  0.13345  0.95900  1.0000 0.0777356739
C   C190      1.0  0.85747  0.63345  0.54100  1.0000 0.0777356739
C   C191      1.0  0.85747  0.86655  0.04100  1.0000 0.0777356739
C   C192      1.0  0.14253  0.36655  0.45900  1.0000 0.0777356739
C   C193      1.0  0.11865  0.16900  0.98364  1.0000 -0.1702254759
C   C194      1.0  0.88135  0.66900  0.51636  1.0000 -0.1582161244
C   C195      1.0  0.88135  0.83100  0.01636  1.0000 -0.1582161244
C   C196      1.0  0.11865  0.33100  0.48364  1.0000 -0.1582161244
C   C197      1.0  0.13946  0.18135  0.01995  1.0000 -0.0901007725
C   C198      1.0  0.86054  0.68135  0.48005  1.0000 -0.0796710699
C   C199      1.0  0.86054  0.81865  0.98005  1.0000 -0.0901007725
C   C200      1.0  0.13946  0.31865  0.51995  1.0000 -0.0901007725
C   C201      1.0  0.18719  0.15753  0.03249  1.0000 -0.0559032351
C   C202      1.0  0.81281  0.65753  0.46751  1.0000 -0.0559032351
C   C203      1.0  0.81281  0.84247  0.96751  1.0000 -0.0559032351
C   C204      1.0  0.18719  0.34247  0.53249  1.0000 -0.0559032351
C   C205      1.0  0.21189  0.12048  0.00862  1.0000 -0.0796710699
C   C206      1.0  0.78811  0.62048  0.49138  1.0000 -0.0796710699
C   C207      1.0  0.78811  0.87952  0.99138  1.0000 -0.0796710699
C   C208      1.0  0.21189  0.37952  0.50862  1.0000 -0.0796710699
C   C209      1.0  0.18981  0.10868  0.97194  1.0000 -0.1582161244
C   C210      1.0  0.81019  0.60868  0.52806  1.0000 -0.1582161244
C   C211      1.0  0.81019  0.89132  0.02806  1.0000 -0.1582161244
C   C212      1.0  0.18981  0.39132  0.47194  1.0000 -0.1582161244
C   C213      1.0  0.20993  0.17024  0.07124  1.0000 0.5969173418
C   C214      1.0  0.79007  0.67024  0.42876  1.0000 0.5969173418
C   C215      1.0  0.79007  0.82976  0.92876  1.0000 0.5969173418
C   C216      1.0  0.20993  0.32976  0.57124  1.0000 0.5969173418
N   N1        1.0  0.46087  0.72300  0.69185  1.0000 -0.5902305633
N   N2        1.0  0.53913  0.22300  0.80815  1.0000 -0.5902305633
N   N3        1.0  0.53913  0.27700  0.30815  1.0000 -0.5902305633
N   N4        1.0  0.46087  0.77700  0.19185  1.0000 -0.5902305633
N   N5        1.0  0.05146  0.05030  0.94134  1.0000 -0.5999808252
N   N6        1.0  0.94854  0.55030  0.55866  1.0000 -0.5999808252
N   N7        1.0  0.94854  0.94970  0.05866  1.0000 -0.5999808252
N   N8        1.0  0.05146  0.44970  0.44134  1.0000 -0.5999808252
O   O1        1.0  0.68825  0.89355  0.77508  1.0000 -0.5217723042
O   O2        1.0  0.31175  0.39355  0.72492  1.0000 -0.5217723042
O   O3        1.0  0.31175  0.10645  0.22492  1.0000 -0.5217723042
O   O4        1.0  0.68825  0.60645  0.27508  1.0000 -0.5217723042
O   O5        1.0  0.65116  0.84852  0.82055  1.0000 -0.5495607992
O   O6        1.0  0.34884  0.34852  0.67945  1.0000 -0.5495607992
O   O7        1.0  0.34884  0.15148  0.17945  1.0000 -0.5495607992
O   O8        1.0  0.65116  0.65148  0.32055  1.0000 -0.5495607992
O   O9        1.0  0.30503  0.24288  0.62894  1.0000 -0.5495607992
O   O10       1.0  0.69497  0.74288  0.87106  1.0000 -0.5495607992
O   O11       1.0  0.69497  0.75712  0.37106  1.0000 -0.5495607992
O   O12       1.0  0.30503  0.25712  0.12894  1.0000 -0.5495607992
O   O13       1.0  0.23657  0.19258  0.64484  1.0000 -0.5268486381
O   O14       1.0  0.76343  0.69258  0.85516  1.0000 -0.5268486381
O   O15       1.0  0.76343  0.80742  0.35516  1.0000 -0.5268486381
O   O16       1.0  0.23657  0.30742  0.14484  1.0000 -0.5268486381
O   O17       1.0  0.30339  0.46110  0.63283  1.0000 -0.5393240864
O   O18       1.0  0.69661  0.96110  0.86717  1.0000 -0.5393240864
O   O19       1.0  0.69661  0.53890  0.36717  1.0000 -0.5393240864
O   O20       1.0  0.30339  0.03890  0.13283  1.0000 -0.5393240864
O   O21       1.0  0.25893  0.49755  0.67532  1.0000 -0.5217723042
O   O22       1.0  0.74107  0.99755  0.82468  1.0000 -0.5217723042
O   O23       1.0  0.74107  0.50245  0.32468  1.0000 -0.5217723042
O   O24       1.0  0.25893  0.00245  0.17532  1.0000 -0.5217723042
O   O25       1.0  0.83409  0.93640  0.81530  1.0000 -0.5393240864
O   O26       1.0  0.16591  0.43640  0.68470  1.0000 -0.5393240864
O   O27       1.0  0.16591  0.06360  0.18470  1.0000 -0.5393240864
O   O28       1.0  0.83409  0.56360  0.31530  1.0000 -0.5393240864
O   O29       1.0  0.86591  0.84793  0.85297  1.0000 -0.5393240864
O   O30       1.0  0.13409  0.34793  0.64703  1.0000 -0.5393240864
O   O31       1.0  0.13409  0.15207  0.14703  1.0000 -0.5393240864
O   O32       1.0  0.86591  0.65207  0.35297  1.0000 -0.5393240864
O   O33       1.0  0.18358  0.24512  0.69925  1.0000 -0.5495607992
O   O34       1.0  0.81642  0.74512  0.80075  1.0000 -0.5495607992
O   O35       1.0  0.81642  0.75488  0.30075  1.0000 -0.5495607992
O   O36       1.0  0.18358  0.25488  0.19925  1.0000 -0.5495607992
O   O37       1.0  0.21802  0.33333  0.73601  1.0000 -0.5393240864
O   O38       1.0  0.78198  0.83333  0.76399  1.0000 -0.5393240864
O   O39       1.0  0.78198  0.66667  0.26399  1.0000 -0.5393240864
O   O40       1.0  0.21802  0.16667  0.23601  1.0000 -0.5393240864
O   O41       1.0  0.18605  0.20634  0.09176  1.0000 -0.5393240864
O   O42       1.0  0.81395  0.70634  0.40824  1.0000 -0.5393240864
O   O43       1.0  0.81395  0.79366  0.90824  1.0000 -0.5393240864
O   O44       1.0  0.18605  0.29366  0.59176  1.0000 -0.5393240864
O   O45       1.0  0.25264  0.14298  0.08240  1.0000 -0.5393240864
O   O46       1.0  0.74736  0.64298  0.41760  1.0000 -0.5393240864
O   O47       1.0  0.74736  0.85702  0.91760  1.0000 -0.5393240864
O   O48       1.0  0.25264  0.35702  0.58240  1.0000 -0.5393240864
O   O49       1.0  0.75836  0.84475  0.83961  1.0000 -0.9187463016
O   O50       1.0  0.24164  0.34475  0.66039  1.0000 -0.9187463016
O   O51       1.0  0.24164  0.15525  0.16039  1.0000 -0.9187463016
O   O52       1.0  0.75836  0.65525  0.33961  1.0000 -0.9187463016
