# DDEC6 charges by PACMAN v1.1 (https://github.com/mtap-research/PACMAN-charge/)
data_2014[Dy][nan]3[ASR]1
_chemical_formula_sum              "Dy4 H28 C56 O24"
_cell_length_a       6.3462
_cell_length_b       16.58
_cell_length_c       24.018
_cell_angle_alpha    90
_cell_angle_beta     90.683
_cell_angle_gamma    90

_symmetry_space_group_name_H-M    "P 1"
_symmetry_Int_Tables_number       1

loop_
  _symmetry_equiv_pos_as_xyz
  'x, y, z'

loop_
  _atom_site_type_symbol
  _atom_site_label
  _atom_site_symmetry_multiplicity
  _atom_site_fract_x
  _atom_site_fract_y
  _atom_site_fract_z
  _atom_site_occupancy
  _atom_site_charge
Dy  Dy1       1.0  0.73761  0.93783  0.97679  1.0000 2.0641376028
Dy  Dy2       1.0  0.26239  0.43783  0.52321  1.0000 2.0641376028
Dy  Dy3       1.0  0.26239  0.06217  0.02321  1.0000 2.0641376028
Dy  Dy4       1.0  0.73761  0.56217  0.47679  1.0000 2.0641376028
H   H1        1.0  0.37510  0.20750  0.18660  1.0000 0.1312037712
H   H2        1.0  0.62490  0.70750  0.31340  1.0000 0.1312037712
H   H3        1.0  0.62490  0.79250  0.81340  1.0000 0.1312037712
H   H4        1.0  0.37510  0.29250  0.68660  1.0000 0.1312037712
H   H5        1.0  0.97190  0.15300  0.23420  1.0000 0.1102514763
H   H6        1.0  0.02810  0.65300  0.26580  1.0000 0.1102514763
H   H7        1.0  0.02810  0.84700  0.76580  1.0000 0.1102514763
H   H8        1.0  0.97190  0.34700  0.73420  1.0000 0.1102514763
H   H9        1.0  0.01700  0.08090  0.15360  1.0000 0.1210702645
H   H10       1.0  0.98300  0.58090  0.34640  1.0000 0.1210702645
H   H11       1.0  0.98300  0.91910  0.84640  1.0000 0.1210702645
H   H12       1.0  0.01700  0.41910  0.65360  1.0000 0.1210702645
H   H13       1.0  0.93840  0.28430  0.27120  1.0000 0.1312037712
H   H14       1.0  0.06160  0.78430  0.22880  1.0000 0.1312037712
H   H15       1.0  0.06160  0.71570  0.72880  1.0000 0.1312037712
H   H16       1.0  0.93840  0.21570  0.77120  1.0000 0.1312037712
H   H17       1.0  0.29030  0.29110  0.36010  1.0000 0.1210702645
H   H18       1.0  0.70970  0.79110  0.13990  1.0000 0.1210702645
H   H19       1.0  0.70970  0.70890  0.63990  1.0000 0.1210702645
H   H20       1.0  0.29030  0.20890  0.86010  1.0000 0.1210702645
H   H21       1.0  0.33670  0.20610  0.28440  1.0000 0.1102514763
H   H22       1.0  0.66330  0.70610  0.21560  1.0000 0.1102514763
H   H23       1.0  0.66330  0.79390  0.71560  1.0000 0.1102514763
H   H24       1.0  0.33670  0.29390  0.78440  1.0000 0.1102514763
H   H25       1.0  0.90570  0.41800  0.37300  1.0000 0.3517139802
H   H26       1.0  0.09430  0.91800  0.12700  1.0000 0.3517139802
H   H27       1.0  0.09430  0.58200  0.62700  1.0000 0.3517139802
H   H28       1.0  0.90570  0.08200  0.87300  1.0000 0.3517139802
C   C1        1.0  0.76720  0.05590  0.06780  1.0000 0.6605509246
C   C2        1.0  0.23280  0.55590  0.43220  1.0000 0.6605509246
C   C3        1.0  0.23280  0.94410  0.93220  1.0000 0.6605509246
C   C4        1.0  0.76720  0.44410  0.56780  1.0000 0.6605509246
C   C5        1.0  0.72680  0.10090  0.11880  1.0000 -0.1960561623
C   C6        1.0  0.27320  0.60090  0.38120  1.0000 -0.1960561623
C   C7        1.0  0.27320  0.89910  0.88120  1.0000 -0.1960561623
C   C8        1.0  0.72680  0.39910  0.61880  1.0000 -0.1960561623
C   C9        1.0  0.52890  0.13850  0.12870  1.0000 0.3982018406
C   C10       1.0  0.47110  0.63850  0.37130  1.0000 0.3982018406
C   C11       1.0  0.47110  0.86150  0.87130  1.0000 0.3982018406
C   C12       1.0  0.52890  0.36150  0.62870  1.0000 0.3982018406
C   C13       1.0  0.50610  0.18220  0.17920  1.0000 -0.2639091214
C   C14       1.0  0.49390  0.68220  0.32080  1.0000 -0.2639091214
C   C15       1.0  0.49390  0.81780  0.82080  1.0000 -0.2639091214
C   C16       1.0  0.50610  0.31780  0.67920  1.0000 -0.2639091214
C   C17       1.0  0.66740  0.18900  0.21770  1.0000 0.1102514763
C   C18       1.0  0.33260  0.68900  0.28230  1.0000 0.1102514763
C   C19       1.0  0.33260  0.81100  0.78230  1.0000 0.1102514763
C   C20       1.0  0.66740  0.31100  0.71770  1.0000 0.1102514763
C   C21       1.0  0.86020  0.14970  0.20760  1.0000 -0.188794657
C   C22       1.0  0.13980  0.64970  0.29240  1.0000 -0.188794657
C   C23       1.0  0.13980  0.85030  0.79240  1.0000 -0.188794657
C   C24       1.0  0.86020  0.35030  0.70760  1.0000 -0.188794657
C   C25       1.0  0.88630  0.10720  0.15960  1.0000 -0.073581721
C   C26       1.0  0.11370  0.60720  0.34040  1.0000 -0.073581721
C   C27       1.0  0.11370  0.89280  0.84040  1.0000 -0.073581721
C   C28       1.0  0.88630  0.39280  0.65960  1.0000 -0.073581721
C   C29       1.0  0.64070  0.23850  0.26870  1.0000 0.093823752
C   C30       1.0  0.35930  0.73850  0.23130  1.0000 0.093823752
C   C31       1.0  0.35930  0.76150  0.73130  1.0000 0.093823752
C   C32       1.0  0.64070  0.26150  0.76870  1.0000 0.093823752
C   C33       1.0  0.80510  0.28670  0.28870  1.0000 -0.2687991013
C   C34       1.0  0.19490  0.78670  0.21130  1.0000 -0.2687991013
C   C35       1.0  0.19490  0.71330  0.71130  1.0000 -0.2687991013
C   C36       1.0  0.80510  0.21330  0.78870  1.0000 -0.2687991013
C   C37       1.0  0.77750  0.33760  0.33333  1.0000 0.2949632058
C   C38       1.0  0.22250  0.83760  0.16667  1.0000 0.2949632058
C   C39       1.0  0.22250  0.66240  0.66667  1.0000 0.2949632058
C   C40       1.0  0.77750  0.16240  0.83333  1.0000 0.2949632058
C   C41       1.0  0.58250  0.34040  0.36140  1.0000 -0.188794657
C   C42       1.0  0.41750  0.84040  0.13860  1.0000 -0.188794657
C   C43       1.0  0.41750  0.65960  0.63860  1.0000 -0.188794657
C   C44       1.0  0.58250  0.15960  0.86140  1.0000 -0.188794657
C   C45       1.0  0.42230  0.29050  0.34180  1.0000 -0.0622979667
C   C46       1.0  0.57770  0.79050  0.15820  1.0000 -0.0622979667
C   C47       1.0  0.57770  0.70950  0.65820  1.0000 -0.0622979667
C   C48       1.0  0.42230  0.20950  0.84180  1.0000 -0.0622979667
C   C49       1.0  0.44910  0.23990  0.29650  1.0000 -0.1829283437
C   C50       1.0  0.55090  0.73990  0.20350  1.0000 -0.1829283437
C   C51       1.0  0.55090  0.76010  0.70350  1.0000 -0.1829283437
C   C52       1.0  0.44910  0.26010  0.79650  1.0000 -0.1829283437
C   C53       1.0  0.54830  0.39560  0.40880  1.0000 0.6605509246
C   C54       1.0  0.45170  0.89560  0.09120  1.0000 0.6605509246
C   C55       1.0  0.45170  0.60440  0.59120  1.0000 0.6605509246
C   C56       1.0  0.54830  0.10440  0.90880  1.0000 0.6605509246
O   O1        1.0  0.94060  0.01900  0.05970  1.0000 -0.7340019012
O   O2        1.0  0.05940  0.51900  0.44030  1.0000 -0.7340019012
O   O3        1.0  0.05940  0.98100  0.94030  1.0000 -0.7340019012
O   O4        1.0  0.94060  0.48100  0.55970  1.0000 -0.7340019012
O   O5        1.0  0.62720  0.05080  0.02940  1.0000 -0.7340019012
O   O6        1.0  0.37280  0.55080  0.47060  1.0000 -0.7340019012
O   O7        1.0  0.37280  0.94920  0.97060  1.0000 -0.7362736812
O   O8        1.0  0.62720  0.44920  0.52940  1.0000 -0.7340019012
O   O9        1.0  0.39070  0.38320  0.44030  1.0000 -0.6516854962
O   O10       1.0  0.60930  0.88320  0.05970  1.0000 -0.6516854962
O   O11       1.0  0.60930  0.61680  0.55970  1.0000 -0.6516854962
O   O12       1.0  0.39070  0.11680  0.94030  1.0000 -0.6516854962
O   O13       1.0  0.67710  0.45360  0.41530  1.0000 -0.6516854962
O   O14       1.0  0.32290  0.95360  0.08470  1.0000 -0.6516854962
O   O15       1.0  0.32290  0.54640  0.58470  1.0000 -0.6516854962
O   O16       1.0  0.67710  0.04640  0.91530  1.0000 -0.6516854962
O   O17       1.0  0.36610  0.13670  0.09360  1.0000 -0.7147363177
O   O18       1.0  0.63390  0.63670  0.40640  1.0000 -0.7147363177
O   O19       1.0  0.63390  0.86330  0.90640  1.0000 -0.7151220789
O   O20       1.0  0.36610  0.36330  0.59360  1.0000 -0.7147363177
O   O21       1.0  0.94420  0.38490  0.34870  1.0000 -0.4473075023
O   O22       1.0  0.05580  0.88490  0.15130  1.0000 -0.4473075023
O   O23       1.0  0.05580  0.61510  0.65130  1.0000 -0.4473075023
O   O24       1.0  0.94420  0.11510  0.84870  1.0000 -0.4473075023
