# DDEC6 charges by PACMAN v1.1 (https://github.com/mtap-research/PACMAN-charge/)
data_2014[Cu][nbo]3[ASR]2
_chemical_formula_sum              "Cu18 H63 C162 N27 O72"
_cell_length_a       18.4966
_cell_length_b       18.466
_cell_length_c       35.3859
_cell_angle_alpha    89.5895
_cell_angle_beta     90.274
_cell_angle_gamma    120.097

_symmetry_space_group_name_H-M    "P 1"
_symmetry_Int_Tables_number       1

loop_
  _symmetry_equiv_pos_as_xyz
  'x, y, z'

loop_
  _atom_site_type_symbol
  _atom_site_label
  _atom_site_symmetry_multiplicity
  _atom_site_fract_x
  _atom_site_fract_y
  _atom_site_fract_z
  _atom_site_occupancy
  _atom_site_charge
Cu  Cu1       1.0  0.01537  0.50548  0.00566  1.0000 0.8467640753
Cu  Cu2       1.0  0.92115  0.45955  0.94417  1.0000 0.82086091
Cu  Cu3       1.0  0.68530  0.84104  0.33808  1.0000 0.8384675061
Cu  Cu4       1.0  0.58932  0.79195  0.27708  1.0000 0.8309563956
Cu  Cu5       1.0  0.34906  0.17024  0.67329  1.0000 0.8467640753
Cu  Cu6       1.0  0.25609  0.12517  0.61134  1.0000 0.8309563956
Cu  Cu7       1.0  0.44172  0.49920  0.00412  1.0000 0.8309563956
Cu  Cu8       1.0  0.48809  0.45234  0.94268  1.0000 0.8309563956
Cu  Cu9       1.0  0.15967  0.78870  0.27450  1.0000 0.8384675061
Cu  Cu10      1.0  0.11110  0.83221  0.33640  1.0000 0.8309563956
Cu  Cu11      1.0  0.77936  0.16652  0.66948  1.0000 0.8309563956
Cu  Cu12      1.0  0.82396  0.11653  0.60861  1.0000 0.8384675061
Cu  Cu13      1.0  0.49460  0.02773  0.94118  1.0000 0.8384675061
Cu  Cu14      1.0  0.44816  0.93309  0.00278  1.0000 0.8309563956
Cu  Cu15      1.0  0.16602  0.36068  0.27766  1.0000 0.82086091
Cu  Cu16      1.0  0.11573  0.26465  0.33885  1.0000 0.8384675061
Cu  Cu17      1.0  0.82719  0.69167  0.60861  1.0000 0.82086091
Cu  Cu18      1.0  0.78428  0.59766  0.67049  1.0000 0.8384675061
H   H1        1.0  0.28725  0.25300  0.21568  1.0000 0.1309960171
H   H2        1.0  0.15987  0.07444  0.30540  1.0000 0.1309960171
H   H3        1.0  0.28555  0.01974  0.21815  1.0000 0.1309960171
H   H4        1.0  0.86993  0.54400  0.53427  1.0000 0.1309960171
H   H5        1.0  0.84239  0.41102  0.63814  1.0000 0.1309960171
H   H6        1.0  0.87903  0.31656  0.53306  1.0000 0.1309960171
H   H7        1.0  0.61435  0.68313  0.88501  1.0000 0.1309960171
H   H8        1.0  0.48087  0.73650  0.96885  1.0000 0.1309960171
H   H9        1.0  0.61407  0.91542  0.88005  1.0000 0.1309960171
H   H10       1.0  0.73181  0.99448  0.20228  1.0000 0.1309960171
H   H11       1.0  0.86665  0.08382  0.30734  1.0000 0.1309960171
H   H12       1.0  0.97191  0.21795  0.20394  1.0000 0.1309960171
H   H13       1.0  0.36304  0.35863  0.55163  1.0000 0.1309960171
H   H14       1.0  0.54226  0.40579  0.64020  1.0000 0.1309960171
H   H15       1.0  0.59278  0.59367  0.55595  1.0000 0.1309960171
H   H16       1.0  0.05871  0.65343  0.87274  1.0000 0.1309960171
H   H17       1.0  0.19936  0.75299  0.97544  1.0000 0.1309960171
H   H18       1.0  0.29147  0.88304  0.86921  1.0000 0.1309960171
H   H19       1.0  0.95597  0.73156  0.20154  1.0000 0.1238610621
H   H20       1.0  0.86681  0.77067  0.30775  1.0000 0.1309960171
H   H21       1.0  0.72632  0.73483  0.20578  1.0000 0.1309960171
H   H22       1.0  0.61802  0.05372  0.53720  1.0000 0.1238610621
H   H23       1.0  0.53246  0.10139  0.64254  1.0000 0.1309960171
H   H24       1.0  0.39620  0.07172  0.53978  1.0000 0.1309960171
H   H25       1.0  0.05675  0.39869  0.87320  1.0000 0.1309960171
H   H26       1.0  0.19656  0.43521  0.97544  1.0000 0.1309960171
H   H27       1.0  0.28272  0.38819  0.87017  1.0000 0.1238610621
H   H28       1.0  0.23092  0.28267  0.73527  1.0000 0.1309960171
H   H29       1.0  0.06123  0.16212  0.64233  1.0000 0.1390017408
H   H30       1.0  0.00208  0.28738  0.72845  1.0000 0.1309960171
H   H31       1.0  0.90289  0.62561  0.06670  1.0000 0.1309960171
H   H32       1.0  0.72630  0.49399  0.97731  1.0000 0.1390017408
H   H33       1.0  0.67102  0.62537  0.06144  1.0000 0.1309960171
H   H34       1.0  0.33683  0.95204  0.39672  1.0000 0.1309960171
H   H35       1.0  0.39609  0.82817  0.31038  1.0000 0.1390017408
H   H36       1.0  0.57190  0.95867  0.40021  1.0000 0.1309960171
H   H37       1.0  0.23952  0.93747  0.73337  1.0000 0.1238610621
H   H38       1.0  0.06671  0.88564  0.64128  1.0000 0.1309960171
H   H39       1.0  0.01606  0.69765  0.72545  1.0000 0.1309960171
H   H40       1.0  0.90855  0.27871  0.06355  1.0000 0.1309960171
H   H41       1.0  0.72746  0.22268  0.97519  1.0000 0.1309960171
H   H42       1.0  0.67926  0.04401  0.06451  1.0000 0.1309960171
H   H43       1.0  0.54232  0.64720  0.41175  1.0000 0.1309960171
H   H44       1.0  0.40907  0.54115  0.30850  1.0000 0.1390017408
H   H45       1.0  0.31365  0.41220  0.41475  1.0000 0.1309960171
H   H46       1.0  0.73578  0.74336  0.74346  1.0000 0.1309960171
H   H47       1.0  0.76825  0.87787  0.63975  1.0000 0.1309960171
H   H48       1.0  0.72230  0.96796  0.74440  1.0000 0.1309960171
H   H49       1.0  0.39152  0.07209  0.07446  1.0000 0.1309960171
H   H50       1.0  0.42635  0.20994  0.97150  1.0000 0.1309960171
H   H51       1.0  0.38219  0.29856  0.07705  1.0000 0.1309960171
H   H52       1.0  0.98049  0.59888  0.39152  1.0000 0.1309960171
H   H53       1.0  0.11915  0.55065  0.30839  1.0000 0.1390017408
H   H54       1.0  0.98707  0.37016  0.39687  1.0000 0.1309960171
H   H55       1.0  0.17992  0.28200  0.80884  1.0000 0.1309960171
H   H56       1.0  0.51839  0.95261  0.47545  1.0000 0.1309960171
H   H57       1.0  0.85336  0.62463  0.14049  1.0000 0.1309960171
H   H58       1.0  0.18876  0.88576  0.80912  1.0000 0.1309960171
H   H59       1.0  0.41471  0.41041  0.47428  1.0000 0.1309960171
H   H60       1.0  0.72954  0.09817  0.14083  1.0000 0.1309960171
H   H61       1.0  0.61694  0.86477  0.80209  1.0000 0.1309960171
H   H62       1.0  0.98639  0.42142  0.47114  1.0000 0.1309960171
H   H63       1.0  0.28052  0.19762  0.13647  1.0000 0.1309960171
C   C1        1.0  0.29239  0.13915  0.21345  1.0000 0.0618773671
C   C2        1.0  0.26826  0.19332  0.22924  1.0000 -0.1224272544
C   C3        1.0  0.22175  0.17114  0.26309  1.0000 -0.03749555
C   C4        1.0  0.19753  0.09303  0.27999  1.0000 -0.0890189255
C   C5        1.0  0.21895  0.03739  0.26359  1.0000 -0.03749555
C   C6        1.0  0.26768  0.06178  0.23078  1.0000 -0.0996627947
C   C7        1.0  0.87745  0.43209  0.52950  1.0000 0.0618773671
C   C8        1.0  0.86944  0.49272  0.54960  1.0000 -0.0996627947
C   C9        1.0  0.85786  0.48643  0.58882  1.0000 -0.03749555
C   C10       1.0  0.85409  0.41774  0.60800  1.0000 -0.0890189255
C   C11       1.0  0.86171  0.35584  0.58828  1.0000 -0.0273023792
C   C12       1.0  0.87549  0.36465  0.54893  1.0000 -0.1224272544
C   C13       1.0  0.62002  0.80191  0.87907  1.0000 0.0618773671
C   C14       1.0  0.59456  0.72455  0.89665  1.0000 -0.0996627947
C   C15       1.0  0.54343  0.69985  0.92872  1.0000 -0.03749555
C   C16       1.0  0.51996  0.75504  0.94389  1.0000 -0.0890189255
C   C17       1.0  0.54500  0.83312  0.92666  1.0000 -0.03749555
C   C18       1.0  0.59394  0.85553  0.89364  1.0000 -0.1224272544
C   C19       1.0  0.85058  0.10829  0.19898  1.0000 0.0618773671
C   C20       1.0  0.78450  0.04139  0.21823  1.0000 -0.1224272544
C   C21       1.0  0.79016  0.03137  0.25748  1.0000 -0.03749555
C   C22       1.0  0.86103  0.09156  0.27729  1.0000 -0.0890189255
C   C23       1.0  0.92669  0.15952  0.25828  1.0000 -0.03749555
C   C24       1.0  0.92062  0.16714  0.21916  1.0000 -0.0996627947
C   C25       1.0  0.47483  0.47964  0.55053  1.0000 0.0618773671
C   C26       1.0  0.42226  0.39930  0.56532  1.0000 -0.1224272544
C   C27       1.0  0.44535  0.37279  0.59837  1.0000 -0.03749555
C   C28       1.0  0.52287  0.42660  0.61545  1.0000 -0.0791306108
C   C29       1.0  0.57708  0.50576  0.59992  1.0000 -0.03749555
C   C30       1.0  0.55167  0.53230  0.56797  1.0000 -0.0996627947
C   C31       1.0  0.17326  0.76911  0.86714  1.0000 0.1478235827
C   C32       1.0  0.11134  0.70240  0.88797  1.0000 -0.1299694751
C   C33       1.0  0.11960  0.69502  0.92708  1.0000 -0.0692684684
C   C34       1.0  0.19073  0.75860  0.94548  1.0000 -0.0791306108
C   C35       1.0  0.25279  0.82767  0.92505  1.0000 -0.0241645661
C   C36       1.0  0.24276  0.83288  0.88577  1.0000 -0.1683779855
C   C37       1.0  0.83909  0.73008  0.19961  1.0000 0.0618773671
C   C38       1.0  0.90835  0.73450  0.21807  1.0000 -0.1224272544
C   C39       1.0  0.91940  0.74990  0.25723  1.0000 -0.03749555
C   C40       1.0  0.85811  0.75700  0.27782  1.0000 -0.0890189255
C   C41       1.0  0.78762  0.75074  0.25958  1.0000 -0.03749555
C   C42       1.0  0.77887  0.73697  0.22052  1.0000 -0.0996627947
C   C43       1.0  0.50502  0.05960  0.53440  1.0000 0.0618773671
C   C44       1.0  0.57181  0.05983  0.55339  1.0000 -0.1224272544
C   C45       1.0  0.58290  0.07571  0.59257  1.0000 -0.0273023792
C   C46       1.0  0.52373  0.08737  0.61264  1.0000 -0.0890189255
C   C47       1.0  0.45560  0.08528  0.59387  1.0000 -0.03749555
C   C48       1.0  0.44707  0.07112  0.55484  1.0000 -0.0996627947
C   C49       1.0  0.16750  0.38993  0.86763  1.0000 0.0618773671
C   C50       1.0  0.10862  0.39986  0.88815  1.0000 -0.0996627947
C   C51       1.0  0.11789  0.41537  0.92706  1.0000 -0.03749555
C   C52       1.0  0.18743  0.42020  0.94563  1.0000 -0.0890189255
C   C53       1.0  0.24746  0.41022  0.92550  1.0000 -0.03749555
C   C54       1.0  0.23589  0.39312  0.88643  1.0000 -0.1224272544
C   C55       1.0  0.11891  0.29088  0.73509  1.0000 0.1478235827
C   C56       1.0  0.17276  0.26494  0.72074  1.0000 -0.1683779855
C   C57       1.0  0.15276  0.21915  0.68687  1.0000 -0.0273023792
C   C58       1.0  0.07736  0.19833  0.66811  1.0000 -0.0791306108
C   C59       1.0  0.02119  0.22088  0.68313  1.0000 -0.0692684684
C   C60       1.0  0.04351  0.26802  0.71648  1.0000 -0.1299694751
C   C61       1.0  0.78950  0.63143  0.06744  1.0000 0.1478235827
C   C62       1.0  0.84352  0.60581  0.05290  1.0000 -0.1630315904
C   C63       1.0  0.82184  0.55739  0.01980  1.0000 -0.0273023792
C   C64       1.0  0.74434  0.53275  0.00232  1.0000 -0.0890189255
C   C65       1.0  0.68889  0.55583  0.01744  1.0000 -0.0273023792
C   C66       1.0  0.71273  0.60619  0.04966  1.0000 -0.1476482624
C   C67       1.0  0.45672  0.96092  0.40194  1.0000 0.1478235827
C   C68       1.0  0.37941  0.93455  0.38444  1.0000 -0.1476482624
C   C69       1.0  0.35659  0.88594  0.35166  1.0000 -0.0273023792
C   C70       1.0  0.41338  0.86554  0.33582  1.0000 -0.0890189255
C   C71       1.0  0.49134  0.89121  0.35301  1.0000 -0.0273023792
C   C72       1.0  0.51217  0.93805  0.38660  1.0000 -0.1683779855
C   C73       1.0  0.13079  0.81418  0.73277  1.0000 0.0618773671
C   C74       1.0  0.18219  0.89541  0.71864  1.0000 -0.1224272544
C   C75       1.0  0.16046  0.92116  0.68496  1.0000 -0.03749555
C   C76       1.0  0.08529  0.86552  0.66651  1.0000 -0.0791306108
C   C77       1.0  0.03217  0.78529  0.68128  1.0000 -0.03749555
C   C78       1.0  0.05647  0.75969  0.71391  1.0000 -0.0996627947
C   C79       1.0  0.79728  0.15876  0.06714  1.0000 0.1390017408
C   C80       1.0  0.84875  0.23711  0.05050  1.0000 -0.1299694751
C   C81       1.0  0.82450  0.26155  0.01742  1.0000 -0.0692684684
C   C82       1.0  0.74722  0.20492  0.00078  1.0000 -0.0791306108
C   C83       1.0  0.69353  0.12670  0.01771  1.0000 -0.0241645661
C   C84       1.0  0.71891  0.10430  0.05128  1.0000 -0.1683779855
C   C85       1.0  0.42992  0.52857  0.41734  1.0000 0.1478235827
C   C86       1.0  0.49110  0.59639  0.39667  1.0000 -0.1476482624
C   C87       1.0  0.48469  0.60135  0.35739  1.0000 -0.0273023792
C   C88       1.0  0.41584  0.53636  0.33869  1.0000 -0.0890189255
C   C89       1.0  0.35360  0.46736  0.35898  1.0000 -0.0273023792
C   C90       1.0  0.36211  0.46311  0.39842  1.0000 -0.1630315904
C   C91       1.0  0.72626  0.85393  0.74790  1.0000 0.1478235827
C   C92       1.0  0.73663  0.79463  0.72800  1.0000 -0.1476482624
C   C93       1.0  0.75095  0.80221  0.68903  1.0000 -0.0273023792
C   C94       1.0  0.75480  0.87083  0.66976  1.0000 -0.0791306108
C   C95       1.0  0.74483  0.93189  0.68917  1.0000 -0.0692684684
C   C96       1.0  0.72817  0.92133  0.72842  1.0000 -0.1436725978
C   C97       1.0  0.38382  0.18342  0.07969  1.0000 0.1478235827
C   C98       1.0  0.39259  0.12374  0.05925  1.0000 -0.1630315904
C   C99       1.0  0.40704  0.13213  0.02021  1.0000 -0.0273023792
C   C100      1.0  0.41225  0.20189  0.00144  1.0000 -0.0791306108
C   C101      1.0  0.40338  0.26304  0.02143  1.0000 -0.0692684684
C   C102      1.0  0.38659  0.25159  0.06066  1.0000 -0.1476482624
C   C103      1.0  0.97743  0.48156  0.39745  1.0000 0.1478235827
C   C104      1.0  0.00150  0.55851  0.37984  1.0000 -0.1476482624
C   C105      1.0  0.05332  0.58440  0.34802  1.0000 -0.0273023792
C   C106      1.0  0.07901  0.53083  0.33302  1.0000 -0.0890189255
C   C107      1.0  0.05578  0.45331  0.35035  1.0000 -0.0273023792
C   C108      1.0  0.00570  0.42952  0.38308  1.0000 -0.1683779855
C   C109      1.0  0.05988  0.43600  0.94657  1.0000 0.598389942
C   C110      1.0  0.87857  0.53142  0.00321  1.0000 0.598389942
C   C111      1.0  0.87637  0.34122  0.00158  1.0000 0.5712747689
C   C112      1.0  0.06212  0.62083  0.94587  1.0000 0.5712747689
C   C113      1.0  0.72854  0.76934  0.27947  1.0000 0.598389942
C   C114      1.0  0.54884  0.86675  0.33597  1.0000 0.598389942
C   C115      1.0  0.54436  0.67917  0.33727  1.0000 0.598389942
C   C116      1.0  0.72884  0.95307  0.27684  1.0000 0.598389942
C   C117      1.0  0.20969  0.19291  0.67060  1.0000 0.598389942
C   C118      1.0  0.39719  0.10548  0.61339  1.0000 0.598389942
C   C119      1.0  0.39038  0.28872  0.61476  1.0000 0.598389942
C   C120      1.0  0.21460  0.00601  0.66912  1.0000 0.598389942
C   C121      1.0  0.32697  0.42900  0.94408  1.0000 0.598389942
C   C122      1.0  0.60556  0.52623  0.00036  1.0000 0.598389942
C   C123      1.0  0.51412  0.61633  0.94590  1.0000 0.598389942
C   C124      1.0  0.42015  0.33815  0.00343  1.0000 0.5712747689
C   C125      1.0  0.18843  0.95291  0.27977  1.0000 0.598389942
C   C126      1.0  0.08284  0.66845  0.33156  1.0000 0.598389942
C   C127      1.0  0.99881  0.76843  0.27576  1.0000 0.598389942
C   C128      1.0  0.27367  0.85686  0.33423  1.0000 0.598389942
C   C129      1.0  0.66199  0.09296  0.61116  1.0000 0.598389942
C   C130      1.0  0.94287  0.19448  0.66625  1.0000 0.5712747689
C   C131      1.0  0.84464  0.27768  0.60799  1.0000 0.598389942
C   C132      1.0  0.75979  0.00570  0.67040  1.0000 0.5712747689
C   C133      1.0  0.51937  0.89001  0.94346  1.0000 0.598389942
C   C134      1.0  0.42633  0.07304  0.00065  1.0000 0.598389942
C   C135      1.0  0.61082  0.07009  0.00052  1.0000 0.598389942
C   C136      1.0  0.33254  0.88794  0.94361  1.0000 0.598389942
C   C137      1.0  0.19503  0.22698  0.28018  1.0000 0.598389942
C   C138      1.0  0.08577  0.39914  0.33445  1.0000 0.598389942
C   C139      1.0  0.27555  0.40618  0.33964  1.0000 0.598389942
C   C140      1.0  0.00504  0.21816  0.27810  1.0000 0.598389942
C   C141      1.0  0.76880  0.74216  0.66956  1.0000 0.598389942
C   C142      1.0  0.84195  0.54743  0.60868  1.0000 0.598389942
C   C143      1.0  0.66183  0.55881  0.61558  1.0000 0.598389942
C   C144      1.0  0.94867  0.73065  0.66465  1.0000 0.598389942
C   C145      1.0  0.16035  0.38625  0.82613  1.0000 0.1309960171
C   C146      1.0  0.16615  0.33098  0.80183  1.0000 -0.1683779855
C   C147      1.0  0.49819  0.05637  0.49286  1.0000 0.1309960171
C   C148      1.0  0.50442  0.00147  0.46849  1.0000 -0.1683779855
C   C149      1.0  0.83187  0.72733  0.15816  1.0000 0.1309960171
C   C150      1.0  0.83858  0.67299  0.13367  1.0000 -0.1630315904
C   C151      1.0  0.15197  0.78391  0.76732  1.0000 0.1309960171
C   C152      1.0  0.17599  0.82353  0.80197  1.0000 -0.1630315904
C   C153      1.0  0.45212  0.51087  0.51680  1.0000 0.1309960171
C   C154      1.0  0.42736  0.47233  0.48197  1.0000 -0.1630315904
C   C155      1.0  0.85259  0.11431  0.15747  1.0000 0.1309960171
C   C156      1.0  0.79126  0.10991  0.13348  1.0000 -0.1683779855
C   C157      1.0  0.67611  0.82558  0.84630  1.0000 0.1309960171
C   C158      1.0  0.66563  0.85219  0.81108  1.0000 -0.1630315904
C   C159      1.0  0.87973  0.43720  0.48795  1.0000 0.1309960171
C   C160      1.0  0.93603  0.43281  0.46384  1.0000 -0.1630315904
C   C161      1.0  0.34483  0.16134  0.17937  1.0000 0.1309960171
C   C162      1.0  0.32989  0.18513  0.14430  1.0000 -0.1630315904
N   N1        1.0  0.12064  0.40237  0.77124  1.0000 -0.1224272544
N   N2        1.0  0.13240  0.42996  0.80632  1.0000 -0.2393038992
N   N3        1.0  0.14020  0.34292  0.76787  1.0000 0.1478235827
N   N4        1.0  0.45816  0.07232  0.43799  1.0000 -0.1299694751
N   N5        1.0  0.46982  0.09979  0.47311  1.0000 -0.2393038992
N   N6        1.0  0.47833  0.01334  0.43456  1.0000 0.1478235827
N   N7        1.0  0.79027  0.74248  0.10357  1.0000 -0.1299694751
N   N8        1.0  0.80219  0.76994  0.13869  1.0000 -0.2502560739
N   N9        1.0  0.81147  0.68428  0.09991  1.0000 0.1390017408
N   N10       1.0  0.14360  0.69382  0.80821  1.0000 -0.1299694751
N   N11       1.0  0.13243  0.70363  0.77205  1.0000 -0.2269433264
N   N12       1.0  0.16926  0.76466  0.82671  1.0000 0.1478235827
N   N13       1.0  0.46008  0.60229  0.47679  1.0000 -0.1299694751
N   N14       1.0  0.47192  0.59137  0.51274  1.0000 -0.2393038992
N   N15       1.0  0.43378  0.53194  0.45779  1.0000 0.1478235827
N   N16       1.0  0.90650  0.15290  0.10233  1.0000 -0.1224272544
N   N17       1.0  0.92322  0.14072  0.13736  1.0000 -0.2393038992
N   N18       1.0  0.82789  0.13494  0.09935  1.0000 0.1390017408
N   N19       1.0  0.76428  0.82153  0.80859  1.0000 -0.1299694751
N   N20       1.0  0.73780  0.80719  0.84393  1.0000 -0.2393038992
N   N21       1.0  0.72175  0.84819  0.78835  1.0000 0.1478235827
N   N22       1.0  0.86288  0.47546  0.43281  1.0000 -0.1299694751
N   N23       1.0  0.83494  0.46344  0.46790  1.0000 -0.2393038992
N   N24       1.0  0.92354  0.45764  0.42970  1.0000 0.1478235827
N   N25       1.0  0.42747  0.15333  0.13950  1.0000 -0.1299694751
N   N26       1.0  0.40566  0.14206  0.17549  1.0000 -0.2393038992
N   N27       1.0  0.38265  0.17868  0.12021  1.0000 0.1478235827
O   O1        1.0  0.07659  0.46720  0.97954  1.0000 -0.5098363284
O   O2        1.0  0.94030  0.53795  0.02199  1.0000 -0.5098363284
O   O3        1.0  0.94021  0.39542  0.01968  1.0000 -0.5098363284
O   O4        1.0  0.07572  0.60656  0.97962  1.0000 -0.5017043476
O   O5        1.0  0.99837  0.56598  0.92808  1.0000 -0.5017043476
O   O6        1.0  0.85910  0.35919  0.96937  1.0000 -0.4935114805
O   O7        1.0  0.86392  0.50138  0.97008  1.0000 -0.5017043476
O   O8        1.0  0.99537  0.42609  0.92911  1.0000 -0.5098363284
O   O9        1.0  0.74476  0.79981  0.31257  1.0000 -0.5098363284
O   O10       1.0  0.61224  0.87597  0.35420  1.0000 -0.5098363284
O   O11       1.0  0.60878  0.73421  0.35456  1.0000 -0.5098363284
O   O12       1.0  0.74389  0.93895  0.31033  1.0000 -0.5098363284
O   O13       1.0  0.66454  0.89850  0.25931  1.0000 -0.5098363284
O   O14       1.0  0.52869  0.69263  0.30380  1.0000 -0.5098363284
O   O15       1.0  0.53269  0.83441  0.30326  1.0000 -0.5098363284
O   O16       1.0  0.66404  0.75934  0.26201  1.0000 -0.5098363284
O   O17       1.0  0.27213  0.20086  0.68934  1.0000 -0.5168394719
O   O18       1.0  0.41162  0.13343  0.64696  1.0000 -0.5098363284
O   O19       1.0  0.40653  0.27121  0.64742  1.0000 -0.5098363284
O   O20       1.0  0.27583  0.06071  0.68819  1.0000 -0.5098363284
O   O21       1.0  0.19886  0.02364  0.63645  1.0000 -0.5098363284
O   O22       1.0  0.32826  0.23437  0.59605  1.0000 -0.5098363284
O   O23       1.0  0.33393  0.09743  0.59546  1.0000 -0.5098363284
O   O24       1.0  0.19502  0.16202  0.63764  1.0000 -0.5098363284
O   O25       1.0  0.34188  0.45713  0.97761  1.0000 -0.5098363284
O   O26       1.0  0.55107  0.53477  0.01843  1.0000 -0.5098363284
O   O27       1.0  0.48007  0.59943  0.97829  1.0000 -0.5017043476
O   O28       1.0  0.41235  0.39307  0.02150  1.0000 -0.5017043476
O   O29       1.0  0.44704  0.35267  0.96961  1.0000 -0.5017043476
O   O30       1.0  0.52266  0.56172  0.92790  1.0000 -0.5098363284
O   O31       1.0  0.58859  0.49175  0.96811  1.0000 -0.5017043476
O   O32       1.0  0.38159  0.42130  0.92578  1.0000 -0.5098363284
O   O33       1.0  0.19591  0.89873  0.26088  1.0000 -0.5098363284
O   O34       1.0  0.11601  0.68622  0.29899  1.0000 -0.5098363284
O   O35       1.0  0.05345  0.76040  0.25756  1.0000 -0.5098363284
O   O36       1.0  0.25837  0.82566  0.30129  1.0000 -0.5098363284
O   O37       1.0  0.21823  0.86344  0.35245  1.0000 -0.5098363284
O   O38       1.0  0.01316  0.79574  0.30939  1.0000 -0.5098363284
O   O39       1.0  0.07592  0.72281  0.35052  1.0000 -0.5098363284
O   O40       1.0  0.15398  0.93464  0.31207  1.0000 -0.5098363284
O   O41       1.0  0.67774  0.12212  0.64449  1.0000 -0.5098363284
O   O42       1.0  0.88888  0.20490  0.68369  1.0000 -0.5017043476
O   O43       1.0  0.81490  0.26346  0.64127  1.0000 -0.5017043476
O   O44       1.0  0.75226  0.06140  0.68795  1.0000 -0.5017043476
O   O45       1.0  0.78492  0.01833  0.63631  1.0000 -0.5017043476
O   O46       1.0  0.85541  0.22344  0.59095  1.0000 -0.5098363284
O   O47       1.0  0.92516  0.15849  0.63427  1.0000 -0.5017043476
O   O48       1.0  0.71598  0.08408  0.59286  1.0000 -0.5098363284
O   O49       1.0  0.52840  0.95349  0.92513  1.0000 -0.5098363284
O   O50       1.0  0.45463  0.08788  0.96711  1.0000 -0.5098363284
O   O51       1.0  0.59412  0.08655  0.96776  1.0000 -0.5098363284
O   O52       1.0  0.38707  0.95122  0.92531  1.0000 -0.5098363284
O   O53       1.0  0.34769  0.87369  0.97705  1.0000 -0.5098363284
O   O54       1.0  0.55654  0.00657  0.01876  1.0000 -0.5098363284
O   O55       1.0  0.41819  0.00954  0.01857  1.0000 -0.5098363284
O   O56       1.0  0.48734  0.87395  0.97627  1.0000 -0.5098363284
O   O57       1.0  0.20372  0.29017  0.26188  1.0000 -0.5098363284
O   O58       1.0  0.12074  0.41672  0.30223  1.0000 -0.5098363284
O   O59       1.0  0.26240  0.42081  0.30593  1.0000 -0.5098363284
O   O60       1.0  0.06043  0.28252  0.26070  1.0000 -0.5098363284
O   O61       1.0  0.01791  0.20243  0.31165  1.0000 -0.5098363284
O   O62       1.0  0.22068  0.34185  0.35722  1.0000 -0.5098363284
O   O63       1.0  0.07775  0.33653  0.35314  1.0000 -0.5168394719
O   O64       1.0  0.16143  0.20989  0.31277  1.0000 -0.5168394719
O   O65       1.0  0.79538  0.75629  0.63579  1.0000 -0.5098363284
O   O66       1.0  0.85152  0.61195  0.59111  1.0000 -0.5098363284
O   O67       1.0  0.71609  0.62033  0.59629  1.0000 -0.5098363284
O   O68       1.0  0.93051  0.74780  0.63240  1.0000 -0.5098363284
O   O69       1.0  0.89456  0.66840  0.68357  1.0000 -0.5098363284
O   O70       1.0  0.68049  0.54136  0.64761  1.0000 -0.5098363284
O   O71       1.0  0.81592  0.53351  0.64257  1.0000 -0.5098363284
O   O72       1.0  0.75992  0.67806  0.68732  1.0000 -0.5168394719
