# DDEC6 charges by PACMAN v1.1 (https://github.com/mtap-research/PACMAN-charge/)
data_2014[CuLa][flt]3[ASR]1
_chemical_formula_sum              "La4 Cu2 H52 C64 N8 O26"
_cell_length_a       12.643
_cell_length_b       13.944
_cell_length_c       14.6728
_cell_angle_alpha    114.739
_cell_angle_beta     94.1115
_cell_angle_gamma    93.124

_symmetry_space_group_name_H-M    "P 1"
_symmetry_Int_Tables_number       1

loop_
  _symmetry_equiv_pos_as_xyz
  'x, y, z'

loop_
  _atom_site_type_symbol
  _atom_site_label
  _atom_site_symmetry_multiplicity
  _atom_site_fract_x
  _atom_site_fract_y
  _atom_site_fract_z
  _atom_site_occupancy
  _atom_site_charge
La  La1       1.0  0.06831  0.65564  0.74892  1.0000 1.828996536
La  La2       1.0  0.93169  0.34436  0.25108  1.0000 1.828996536
La  La3       1.0  0.06766  0.62029  0.46663  1.0000 1.828996536
La  La4       1.0  0.93234  0.37971  0.53337  1.0000 1.828996536
Cu  Cu1       1.0  0.45225  0.18731  0.77455  1.0000 0.376156178
Cu  Cu2       1.0  0.54775  0.81269  0.22545  1.0000 0.376156178
H   H1        1.0  0.36800  0.73460  0.58020  1.0000 0.1506914056
H   H2        1.0  0.63200  0.26540  0.41980  1.0000 0.1506914056
H   H3        1.0  0.51190  0.82400  0.54810  1.0000 0.1389016573
H   H4        1.0  0.48810  0.17600  0.45190  1.0000 0.1389016573
H   H5        1.0  0.65190  0.91450  0.54280  1.0000 0.1312964397
H   H6        1.0  0.34810  0.08550  0.45720  1.0000 0.1312964397
H   H7        1.0  0.78560  0.02540  0.52290  1.0000 0.1389016573
H   H8        1.0  0.21440  0.97460  0.47710  1.0000 0.1389016573
H   H9        1.0  0.27630  0.06300  0.86460  1.0000 0.1631163204
H   H10       1.0  0.72370  0.93700  0.13540  1.0000 0.1631163204
H   H11       1.0  0.18120  0.00830  0.77610  1.0000 0.1701683096
H   H12       1.0  0.81880  0.99170  0.22390  1.0000 0.1701683096
H   H13       1.0  0.25200  0.11080  0.78420  1.0000 0.1389016573
H   H14       1.0  0.74800  0.88920  0.21580  1.0000 0.1389016573
H   H15       1.0  0.58510  0.34160  0.66690  1.0000 0.1631163204
H   H16       1.0  0.41490  0.65840  0.33310  1.0000 0.1631163204
H   H17       1.0  0.69620  0.36330  0.73490  1.0000 0.1701683096
H   H18       1.0  0.30380  0.63670  0.26510  1.0000 0.1701683096
H   H19       1.0  0.58850  0.33630  0.77390  1.0000 0.1389016573
H   H20       1.0  0.41150  0.66370  0.22610  1.0000 0.1389016573
H   H21       1.0  0.57050  0.46240  0.19450  1.0000 0.1312964397
H   H22       1.0  0.42950  0.53760  0.80550  1.0000 0.1312964397
H   H23       1.0  0.41350  0.47280  0.10620  1.0000 0.1389016573
H   H24       1.0  0.58650  0.52720  0.89380  1.0000 0.1389016573
H   H25       1.0  0.26220  0.45680  0.01820  1.0000 0.1389016573
H   H26       1.0  0.73780  0.54320  0.98180  1.0000 0.1389016573
H   H27       1.0  0.12910  0.47070  0.90640  1.0000 0.1389016573
H   H28       1.0  0.87090  0.52930  0.09360  1.0000 0.1389016573
H   H29       1.0  0.62880  0.11110  0.92690  1.0000 0.1631163204
H   H30       1.0  0.37120  0.88890  0.07310  1.0000 0.1631163204
H   H31       1.0  0.72940  0.19240  0.94040  1.0000 0.1701683096
H   H32       1.0  0.27060  0.80760  0.05960  1.0000 0.1701683096
H   H33       1.0  0.64210  0.15790  0.84520  1.0000 0.1312964397
H   H34       1.0  0.35790  0.84210  0.15480  1.0000 0.1312964397
H   H35       1.0  0.32550  0.28860  0.60900  1.0000 0.1631163204
H   H36       1.0  0.67450  0.71140  0.39100  1.0000 0.1631163204
H   H37       1.0  0.21220  0.22430  0.59480  1.0000 0.1701683096
H   H38       1.0  0.78780  0.77570  0.40520  1.0000 0.1701683096
H   H39       1.0  0.31820  0.18160  0.62460  1.0000 0.1312964397
H   H40       1.0  0.68180  0.81840  0.37540  1.0000 0.1312964397
H   H41       1.0  0.88810  0.91170  0.64820  1.0000 0.1701683096
H   H42       1.0  0.11190  0.08830  0.35180  1.0000 0.1701683096
H   H43       1.0  0.79650  0.87400  0.69910  1.0000 0.1506914056
H   H44       1.0  0.20350  0.12600  0.30090  1.0000 0.1506914056
H   H45       1.0  0.81200  0.80550  0.58300  1.0000 0.1631163204
H   H46       1.0  0.18800  0.19450  0.41700  1.0000 0.1631163204
H   H47       1.0  0.30740  0.41020  0.23670  1.0000 0.1506914056
H   H48       1.0  0.69260  0.58980  0.76330  1.0000 0.1506914056
H   H49       1.0  0.24670  0.31340  0.24930  1.0000 0.1701683096
H   H50       1.0  0.75330  0.68660  0.75070  1.0000 0.1631163204
H   H51       1.0  0.34840  0.37950  0.32590  1.0000 0.1506914056
H   H52       1.0  0.65160  0.62050  0.67410  1.0000 0.1506914056
C   C1        1.0  0.32770  0.97610  0.72820  1.0000 0.319869083
C   C2        1.0  0.67230  0.02390  0.27180  1.0000 0.319869083
C   C3        1.0  0.31120  0.86530  0.68290  1.0000 -0.1084523642
C   C4        1.0  0.68880  0.13470  0.31710  1.0000 -0.1084523642
C   C5        1.0  0.37950  0.80970  0.61430  1.0000 -0.0299247623
C   C6        1.0  0.62050  0.19030  0.38570  1.0000 -0.0299247623
C   C7        1.0  0.46430  0.86210  0.59480  1.0000 -0.1920763695
C   C8        1.0  0.53570  0.13790  0.40520  1.0000 -0.1920763695
C   C9        1.0  0.47870  0.97200  0.64500  1.0000 0.1631163204
C   C10       1.0  0.52130  0.02800  0.35500  1.0000 0.1631163204
C   C11       1.0  0.56770  0.03540  0.62990  1.0000 0.1631163204
C   C12       1.0  0.43230  0.96460  0.37010  1.0000 0.1631163204
C   C13       1.0  0.65010  0.98930  0.57320  1.0000 -0.1920763695
C   C14       1.0  0.34990  0.01070  0.42680  1.0000 -0.1920763695
C   C15       1.0  0.72930  0.05510  0.56220  1.0000 -0.0492069836
C   C16       1.0  0.27070  0.94490  0.43780  1.0000 -0.0492069836
C   C17       1.0  0.72670  0.16440  0.60850  1.0000 -0.1084523642
C   C18       1.0  0.27330  0.83560  0.39150  1.0000 -0.1084523642
C   C19       1.0  0.64180  0.20660  0.66460  1.0000 0.3075936405
C   C20       1.0  0.35820  0.79340  0.33540  1.0000 0.3075936405
C   C21       1.0  0.25300  0.04540  0.79380  1.0000 -0.4981725322
C   C22       1.0  0.74700  0.95460  0.20620  1.0000 -0.4981725322
C   C23       1.0  0.22440  0.80180  0.70340  1.0000 0.6061950295
C   C24       1.0  0.77560  0.19820  0.29660  1.0000 0.6061950295
C   C25       1.0  0.62660  0.32190  0.71440  1.0000 -0.5190306933
C   C26       1.0  0.37340  0.67810  0.28560  1.0000 -0.5190306933
C   C27       1.0  0.81340  0.23120  0.59170  1.0000 0.5610045163
C   C28       1.0  0.18660  0.76880  0.40830  1.0000 0.5610045163
C   C29       1.0  0.59180  0.26520  0.97630  1.0000 0.319869083
C   C30       1.0  0.40820  0.73480  0.02370  1.0000 0.319869083
C   C31       1.0  0.62260  0.33900  0.07680  1.0000 -0.120342621
C   C32       1.0  0.37740  0.66100  0.92320  1.0000 -0.120342621
C   C33       1.0  0.55340  0.41490  0.12540  1.0000 -0.0492069836
C   C34       1.0  0.44660  0.58510  0.87460  1.0000 -0.0492069836
C   C35       1.0  0.46080  0.42130  0.07390  1.0000 -0.2085088523
C   C36       1.0  0.53920  0.57870  0.92610  1.0000 -0.2085088523
C   C37       1.0  0.43800  0.34930  0.97190  1.0000 0.1701683096
C   C38       1.0  0.56200  0.65070  0.02810  1.0000 0.1701683096
C   C39       1.0  0.34560  0.35660  0.90830  1.0000 0.1631163204
C   C40       1.0  0.65440  0.64340  0.09170  1.0000 0.1631163204
C   C41       1.0  0.26390  0.41970  0.94730  1.0000 -0.1973605708
C   C42       1.0  0.73610  0.58030  0.05270  1.0000 -0.1973605708
C   C43       1.0  0.18530  0.42770  0.88100  1.0000 -0.0299247623
C   C44       1.0  0.81470  0.57230  0.11900  1.0000 -0.0299247623
C   C45       1.0  0.18790  0.37300  0.77700  1.0000 -0.120342621
C   C46       1.0  0.81210  0.62700  0.22300  1.0000 -0.120342621
C   C47       1.0  0.27080  0.30740  0.74200  1.0000 0.319869083
C   C48       1.0  0.72920  0.69260  0.25800  1.0000 0.319869083
C   C49       1.0  0.65340  0.17360  0.91700  1.0000 -0.4981725322
C   C50       1.0  0.34660  0.82640  0.08300  1.0000 -0.4981725322
C   C51       1.0  0.72590  0.34030  0.13490  1.0000 0.5610045163
C   C52       1.0  0.27410  0.65970  0.86510  1.0000 0.5610045163
C   C53       1.0  0.28270  0.24520  0.63340  1.0000 -0.529637161
C   C54       1.0  0.71730  0.75480  0.36660  1.0000 -0.529637161
C   C55       1.0  0.10350  0.38890  0.70910  1.0000 0.6041138737
C   C56       1.0  0.89650  0.61110  0.29090  1.0000 0.6041138737
C   C57       1.0  0.84880  0.85010  0.65000  1.0000 -0.6058746012
C   C58       1.0  0.15120  0.14990  0.35000  1.0000 -0.6058746012
C   C59       1.0  0.92440  0.78760  0.67970  1.0000 0.7159076302
C   C60       1.0  0.07560  0.21240  0.32030  1.0000 0.7159076302
C   C61       1.0  0.21400  0.45850  0.35350  1.0000 0.713108
C   C62       1.0  0.78600  0.54150  0.64650  1.0000 0.713108
C   C63       1.0  0.28530  0.38400  0.28550  1.0000 -0.5943357082
C   C64       1.0  0.71470  0.61600  0.71450  1.0000 -0.5943357082
N   N1        1.0  0.41050  0.02680  0.70900  1.0000 -0.2939582498
N   N2        1.0  0.58950  0.97320  0.29100  1.0000 -0.2939582498
N   N3        1.0  0.56470  0.14190  0.67510  1.0000 -0.2996439742
N   N4        1.0  0.43530  0.85810  0.32490  1.0000 -0.2996439742
N   N5        1.0  0.50140  0.27270  0.92520  1.0000 -0.3078988226
N   N6        1.0  0.49860  0.72730  0.07480  1.0000 -0.3078988226
N   N7        1.0  0.34660  0.29960  0.80740  1.0000 -0.2996439742
N   N8        1.0  0.65340  0.70040  0.19260  1.0000 -0.2996439742
O   O1        1.0  0.19100  0.83270  0.78850  1.0000 -0.5477804573
O   O2        1.0  0.80900  0.16730  0.21150  1.0000 -0.5477804573
O   O3        1.0  0.18820  0.71350  0.63200  1.0000 -0.6017871928
O   O4        1.0  0.81180  0.28650  0.36800  1.0000 -0.6017871928
O   O5        1.0  0.85990  0.19170  0.51370  1.0000 -0.567690912
O   O6        1.0  0.14010  0.80830  0.48630  1.0000 -0.567690912
O   O7        1.0  0.83580  0.32600  0.65550  1.0000 -0.558727039
O   O8        1.0  0.16420  0.67400  0.34450  1.0000 -0.558727039
O   O9        1.0  0.80560  0.30520  0.08850  1.0000 -0.5792304905
O   O10       1.0  0.19440  0.69480  0.91150  1.0000 -0.5792304905
O   O11       1.0  0.73120  0.38020  0.23010  1.0000 -0.558727039
O   O12       1.0  0.26880  0.61980  0.76990  1.0000 -0.558727039
O   O13       1.0  0.08000  0.31970  0.62110  1.0000 -0.529637161
O   O14       1.0  0.92000  0.68030  0.37890  1.0000 -0.529637161
O   O15       1.0  0.05880  0.47430  0.74590  1.0000 -0.6017871928
O   O16       1.0  0.94120  0.52570  0.25410  1.0000 -0.6017871928
O   O17       1.0  0.08210  0.51760  0.57460  1.0000 -0.8183814318
O   O18       1.0  0.91790  0.48240  0.42540  1.0000 -0.8183814318
O   O19       1.0  0.96660  0.71450  0.61110  1.0000 -0.6395112009
O   O20       1.0  0.03340  0.28550  0.38890  1.0000 -0.6395112009
O   O21       1.0  0.94350  0.80310  0.77040  1.0000 -0.6017871928
O   O22       1.0  0.05650  0.19690  0.22960  1.0000 -0.6017871928
O   O23       1.0  0.25130  0.53490  0.43420  1.0000 -0.558727039
O   O24       1.0  0.74870  0.46510  0.56580  1.0000 -0.558727039
O   O25       1.0  0.11460  0.44420  0.32530  1.0000 -0.6395112009
O   O26       1.0  0.88540  0.55580  0.67470  1.0000 -0.6395112009
