# DDEC6 charges by PACMAN v1.1 (https://github.com/mtap-research/PACMAN-charge/)
data_2014[Cu][nan]3[ASR]8
_chemical_formula_sum              "Cu8 H36 C96 O32"
_cell_length_a       12.435
_cell_length_b       14.584
_cell_length_c       27.018
_cell_angle_alpha    90
_cell_angle_beta     107.87
_cell_angle_gamma    90

_symmetry_space_group_name_H-M    "P 1"
_symmetry_Int_Tables_number       1

loop_
  _symmetry_equiv_pos_as_xyz
  'x, y, z'

loop_
  _atom_site_type_symbol
  _atom_site_label
  _atom_site_symmetry_multiplicity
  _atom_site_fract_x
  _atom_site_fract_y
  _atom_site_fract_z
  _atom_site_occupancy
  _atom_site_charge
Cu  Cu1       1.0  0.00710  0.97561  0.63672  1.0000 0.9085754096
Cu  Cu2       1.0  0.99290  0.47561  0.86328  1.0000 0.9085754096
Cu  Cu3       1.0  0.99290  0.02439  0.36328  1.0000 0.9085754096
Cu  Cu4       1.0  0.00710  0.52439  0.13672  1.0000 0.9085754096
Cu  Cu5       1.0  0.21600  0.83977  0.72318  1.0000 0.9014234781
Cu  Cu6       1.0  0.78400  0.33977  0.77682  1.0000 0.9014234781
Cu  Cu7       1.0  0.78400  0.16023  0.27682  1.0000 0.9014234781
Cu  Cu8       1.0  0.21600  0.66023  0.22318  1.0000 0.9014234781
H   H1        1.0  0.12460  0.93210  0.51660  1.0000 0.1456806004
H   H2        1.0  0.87540  0.43210  0.98340  1.0000 0.1448001355
H   H3        1.0  0.87540  0.06790  0.48340  1.0000 0.1448001355
H   H4        1.0  0.12460  0.56790  0.01660  1.0000 0.1456806004
H   H5        1.0  0.33860  0.75020  0.60390  1.0000 0.1194316801
H   H6        1.0  0.66140  0.25020  0.89610  1.0000 0.1194316801
H   H7        1.0  0.66140  0.24980  0.39610  1.0000 0.1194316801
H   H8        1.0  0.33860  0.74980  0.10390  1.0000 0.1194316801
H   H9        1.0  0.32230  0.78280  0.45600  1.0000 0.1194316801
H   H10       1.0  0.67770  0.28280  0.04400  1.0000 0.1194316801
H   H11       1.0  0.67770  0.21720  0.54400  1.0000 0.1148477062
H   H12       1.0  0.32230  0.71720  0.95600  1.0000 0.1194316801
H   H13       1.0  0.53840  0.74280  0.59960  1.0000 0.1194316801
H   H14       1.0  0.46160  0.24280  0.90040  1.0000 0.1194316801
H   H15       1.0  0.46160  0.25720  0.40040  1.0000 0.1194316801
H   H16       1.0  0.53840  0.75720  0.09960  1.0000 0.1194316801
H   H17       1.0  0.25550  0.62510  0.45980  1.0000 0.1194316801
H   H18       1.0  0.74450  0.12510  0.04020  1.0000 0.1194316801
H   H19       1.0  0.74450  0.37490  0.54020  1.0000 0.1194316801
H   H20       1.0  0.25550  0.87490  0.95980  1.0000 0.1194316801
H   H21       1.0  0.23540  0.50030  0.41120  1.0000 0.1194316801
H   H22       1.0  0.76460  0.00030  0.08880  1.0000 0.1194316801
H   H23       1.0  0.76460  0.49970  0.58880  1.0000 0.1194316801
H   H24       1.0  0.23540  0.99970  0.91120  1.0000 0.1194316801
H   H25       1.0  0.69700  0.53380  0.67500  1.0000 0.1194316801
H   H26       1.0  0.30300  0.03380  0.82500  1.0000 0.1194316801
H   H27       1.0  0.30300  0.46620  0.32500  1.0000 0.1194316801
H   H28       1.0  0.69700  0.96620  0.17500  1.0000 0.1194316801
H   H29       1.0  0.77060  0.76030  0.60940  1.0000 0.1290867678
H   H30       1.0  0.22940  0.26030  0.89060  1.0000 0.1290867678
H   H31       1.0  0.22940  0.23970  0.39060  1.0000 0.1290867678
H   H32       1.0  0.77060  0.73970  0.10940  1.0000 0.1290867678
H   H33       1.0  0.97230  0.67950  0.74800  1.0000 0.1456806004
H   H34       1.0  0.02770  0.17950  0.75200  1.0000 0.1456806004
H   H35       1.0  0.02770  0.32050  0.25200  1.0000 0.1456806004
H   H36       1.0  0.97230  0.82050  0.24800  1.0000 0.1456806004
C   C1        1.0  0.18700  0.87250  0.61239  1.0000 0.6126136571
C   C2        1.0  0.81300  0.37250  0.88761  1.0000 0.6126136571
C   C3        1.0  0.81300  0.12750  0.38761  1.0000 0.6126136571
C   C4        1.0  0.18700  0.62750  0.11239  1.0000 0.6126136571
C   C5        1.0  0.22610  0.84620  0.56698  1.0000 -0.0126219467
C   C6        1.0  0.77390  0.34620  0.93302  1.0000 -0.0126219467
C   C7        1.0  0.77390  0.15380  0.43302  1.0000 -0.0126219467
C   C8        1.0  0.22610  0.65380  0.06698  1.0000 -0.0126219467
C   C9        1.0  0.18000  0.88750  0.52019  1.0000 -0.08993403
C   C10       1.0  0.82000  0.38750  0.97981  1.0000 -0.08993403
C   C11       1.0  0.82000  0.11250  0.47981  1.0000 -0.08993403
C   C12       1.0  0.18000  0.61250  0.02019  1.0000 -0.08993403
C   C13       1.0  0.30740  0.77850  0.57188  1.0000 -0.1408645599
C   C14       1.0  0.69260  0.27850  0.92812  1.0000 -0.1408645599
C   C15       1.0  0.69260  0.22150  0.42812  1.0000 -0.1408645599
C   C16       1.0  0.30740  0.72150  0.07188  1.0000 -0.1408645599
C   C17       1.0  0.21470  0.86390  0.47718  1.0000 -0.0208865632
C   C18       1.0  0.78530  0.36390  0.02282  1.0000 -0.0208865632
C   C19       1.0  0.78530  0.13610  0.52282  1.0000 -0.0291734275
C   C20       1.0  0.21470  0.63610  0.97718  1.0000 -0.0208865632
C   C21       1.0  0.34280  0.75250  0.53074  1.0000 0.061214564
C   C22       1.0  0.65720  0.25250  0.96926  1.0000 0.061214564
C   C23       1.0  0.65720  0.24750  0.46926  1.0000 0.061214564
C   C24       1.0  0.34280  0.74750  0.03074  1.0000 0.061214564
C   C25       1.0  0.16260  0.90780  0.42638  1.0000 0.5394734531
C   C26       1.0  0.83740  0.40780  0.07362  1.0000 0.5394734531
C   C27       1.0  0.83740  0.09220  0.57362  1.0000 0.5394734531
C   C28       1.0  0.16260  0.59220  0.92638  1.0000 0.5394734531
C   C29       1.0  0.29670  0.79770  0.48390  1.0000 -0.1408645599
C   C30       1.0  0.70330  0.29770  0.01610  1.0000 -0.1408645599
C   C31       1.0  0.70330  0.20230  0.51610  1.0000 -0.1408645599
C   C32       1.0  0.29670  0.70230  0.98390  1.0000 -0.1408645599
C   C33       1.0  0.43090  0.68200  0.53806  1.0000 0.0228786747
C   C34       1.0  0.56910  0.18200  0.96194  1.0000 0.0228786747
C   C35       1.0  0.56910  0.31800  0.46194  1.0000 0.0228786747
C   C36       1.0  0.43090  0.81800  0.03806  1.0000 0.0228786747
C   C37       1.0  0.52980  0.69120  0.57855  1.0000 -0.1895656087
C   C38       1.0  0.47020  0.19120  0.92145  1.0000 -0.1895656087
C   C39       1.0  0.47020  0.30880  0.42145  1.0000 -0.1895656087
C   C40       1.0  0.52980  0.80880  0.07855  1.0000 -0.1895656087
C   C41       1.0  0.41620  0.60400  0.50686  1.0000 0.0299553327
C   C42       1.0  0.58380  0.10400  0.99314  1.0000 0.0299553327
C   C43       1.0  0.58380  0.39600  0.49314  1.0000 0.0299553327
C   C44       1.0  0.41620  0.89600  0.00686  1.0000 0.0299553327
C   C45       1.0  0.61590  0.62900  0.58952  1.0000 0.0228786747
C   C46       1.0  0.38410  0.12900  0.91048  1.0000 0.0228786747
C   C47       1.0  0.38410  0.37100  0.41048  1.0000 0.0228786747
C   C48       1.0  0.61590  0.87100  0.08952  1.0000 0.0228786747
C   C49       1.0  0.31570  0.58440  0.46606  1.0000 -0.1330686943
C   C50       1.0  0.68430  0.08440  0.03394  1.0000 -0.1330686943
C   C51       1.0  0.68430  0.41560  0.53394  1.0000 -0.1330686943
C   C52       1.0  0.31570  0.91560  0.96606  1.0000 -0.1330686943
C   C53       1.0  0.50580  0.53910  0.51621  1.0000 0.0021792669
C   C54       1.0  0.49420  0.03910  0.98379  1.0000 0.0021792669
C   C55       1.0  0.49420  0.46090  0.48379  1.0000 0.0021792669
C   C56       1.0  0.50580  0.96090  0.01621  1.0000 0.0021792669
C   C57       1.0  0.71770  0.64420  0.63482  1.0000 0.061214564
C   C58       1.0  0.28230  0.14420  0.86518  1.0000 0.061214564
C   C59       1.0  0.28230  0.35580  0.36518  1.0000 0.061214564
C   C60       1.0  0.71770  0.85580  0.13482  1.0000 0.061214564
C   C61       1.0  0.60650  0.55330  0.55723  1.0000 0.0228786747
C   C62       1.0  0.39350  0.05330  0.94277  1.0000 0.0228786747
C   C63       1.0  0.39350  0.44670  0.44277  1.0000 0.0228786747
C   C64       1.0  0.60650  0.94670  0.05723  1.0000 0.0228786747
C   C65       1.0  0.30410  0.51080  0.43667  1.0000 -0.1408645599
C   C66       1.0  0.69590  0.01080  0.06333  1.0000 -0.1408645599
C   C67       1.0  0.69590  0.48920  0.56333  1.0000 -0.1408645599
C   C68       1.0  0.30410  0.98920  0.93667  1.0000 -0.1408645599
C   C69       1.0  0.74340  0.58410  0.67587  1.0000 -0.1408645599
C   C70       1.0  0.25660  0.08410  0.82413  1.0000 -0.1408645599
C   C71       1.0  0.25660  0.41590  0.32413  1.0000 -0.1408645599
C   C72       1.0  0.74340  0.91590  0.17587  1.0000 -0.1408645599
C   C73       1.0  0.78790  0.71860  0.63677  1.0000 -0.1216145963
C   C74       1.0  0.21210  0.21860  0.86323  1.0000 -0.1216145963
C   C75       1.0  0.21210  0.28140  0.36323  1.0000 -0.1216145963
C   C76       1.0  0.78790  0.78140  0.13677  1.0000 -0.1216145963
C   C77       1.0  0.83930  0.59820  0.71927  1.0000 -0.0126219467
C   C78       1.0  0.16070  0.09820  0.78073  1.0000 -0.0126219467
C   C79       1.0  0.16070  0.40180  0.28073  1.0000 -0.0208865632
C   C80       1.0  0.83930  0.90180  0.21927  1.0000 -0.0208865632
C   C81       1.0  0.88250  0.73190  0.67835  1.0000 -0.0291734275
C   C82       1.0  0.11750  0.23190  0.82165  1.0000 -0.0291734275
C   C83       1.0  0.11750  0.26810  0.32165  1.0000 -0.0291734275
C   C84       1.0  0.88250  0.76810  0.17835  1.0000 -0.0291734275
C   C85       1.0  0.90790  0.67060  0.71975  1.0000 -0.08993403
C   C86       1.0  0.09210  0.17060  0.78025  1.0000 -0.08993403
C   C87       1.0  0.09210  0.32940  0.28025  1.0000 -0.08993403
C   C88       1.0  0.90790  0.82940  0.21975  1.0000 -0.08993403
C   C89       1.0  0.86160  0.53160  0.76333  1.0000 0.6004724815
C   C90       1.0  0.13840  0.03160  0.73667  1.0000 0.6004724815
C   C91       1.0  0.13840  0.46840  0.23667  1.0000 0.6004724815
C   C92       1.0  0.86160  0.96840  0.26333  1.0000 0.6004724815
C   C93       1.0  0.95950  0.80840  0.67888  1.0000 0.6004724815
C   C94       1.0  0.04050  0.30840  0.82112  1.0000 0.6004724815
C   C95       1.0  0.04050  0.19160  0.32112  1.0000 0.6004724815
C   C96       1.0  0.95950  0.69160  0.17888  1.0000 0.6004724815
O   O1        1.0  0.12360  0.93860  0.60661  1.0000 -0.5183012545
O   O2        1.0  0.87640  0.43860  0.89339  1.0000 -0.5183012545
O   O3        1.0  0.87640  0.06140  0.39339  1.0000 -0.5183012545
O   O4        1.0  0.12360  0.56140  0.10661  1.0000 -0.5183012545
O   O5        1.0  0.22320  0.82600  0.65266  1.0000 -0.5558624625
O   O6        1.0  0.77680  0.32600  0.84734  1.0000 -0.5558624625
O   O7        1.0  0.77680  0.17400  0.34734  1.0000 -0.5558624625
O   O8        1.0  0.22320  0.67400  0.15266  1.0000 -0.5558624625
O   O9        1.0  0.08090  0.95920  0.42310  1.0000 -0.5183012545
O   O10       1.0  0.91910  0.45920  0.07690  1.0000 -0.5183012545
O   O11       1.0  0.91910  0.04080  0.57690  1.0000 -0.5183012545
O   O12       1.0  0.08090  0.54080  0.92310  1.0000 -0.5183012545
O   O13       1.0  0.20060  0.89340  0.39133  1.0000 -0.4888143376
O   O14       1.0  0.79940  0.39340  0.10867  1.0000 -0.4888143376
O   O15       1.0  0.79940  0.10660  0.60867  1.0000 -0.4888143376
O   O16       1.0  0.20060  0.60660  0.89133  1.0000 -0.4888143376
O   O17       1.0  0.94690  0.54810  0.80130  1.0000 -0.5278154671
O   O18       1.0  0.05310  0.04810  0.69870  1.0000 -0.5278154671
O   O19       1.0  0.05310  0.45190  0.19870  1.0000 -0.5278154671
O   O20       1.0  0.94690  0.95190  0.30130  1.0000 -0.5278154671
O   O21       1.0  0.79420  0.47060  0.76131  1.0000 -0.5521289319
O   O22       1.0  0.20580  0.97060  0.73869  1.0000 -0.5521289319
O   O23       1.0  0.20580  0.52940  0.23869  1.0000 -0.5521289319
O   O24       1.0  0.79420  0.02940  0.26131  1.0000 -0.5521289319
O   O25       1.0  0.05210  0.81180  0.71272  1.0000 -0.5521289319
O   O26       1.0  0.94790  0.31180  0.78728  1.0000 -0.5521289319
O   O27       1.0  0.94790  0.18820  0.28728  1.0000 -0.5521289319
O   O28       1.0  0.05210  0.68820  0.21272  1.0000 -0.5521289319
O   O29       1.0  0.92450  0.86720  0.64305  1.0000 -0.5392467887
O   O30       1.0  0.07550  0.36720  0.85695  1.0000 -0.5392467887
O   O31       1.0  0.07550  0.13280  0.35695  1.0000 -0.5392467887
O   O32       1.0  0.92450  0.63280  0.14305  1.0000 -0.5392467887
