# DDEC6 charges by PACMAN v1.1 (https://github.com/mtap-research/PACMAN-charge/)
data_2014[Mn][pcu]3[ASR]3
_chemical_formula_sum              "Mn4 H12 C12 O24"
_cell_length_a       8.9042
_cell_length_b       12.7757
_cell_length_c       9.2004
_cell_angle_alpha    90
_cell_angle_beta     90
_cell_angle_gamma    90

_symmetry_space_group_name_H-M    "P 1"
_symmetry_Int_Tables_number       1

loop_
  _symmetry_equiv_pos_as_xyz
  'x, y, z'

loop_
  _atom_site_type_symbol
  _atom_site_label
  _atom_site_symmetry_multiplicity
  _atom_site_fract_x
  _atom_site_fract_y
  _atom_site_fract_z
  _atom_site_occupancy
  _atom_site_charge
Mn  Mn1       1.0  0.50000  0.00000  0.50000  1.0000 1.1507933849
Mn  Mn2       1.0  0.00000  0.00000  0.00000  1.0000 1.1507933849
Mn  Mn3       1.0  0.50000  0.50000  0.50000  1.0000 1.1507933849
Mn  Mn4       1.0  0.00000  0.50000  0.00000  1.0000 1.1507933849
H   H1        1.0  0.34358  0.04035  0.83161  1.0000 0.05905265
H   H2        1.0  0.65642  0.95965  0.16839  1.0000 0.05905265
H   H3        1.0  0.15642  0.95965  0.33161  1.0000 0.05905265
H   H4        1.0  0.84358  0.04035  0.66839  1.0000 0.05905265
H   H5        1.0  0.65642  0.54035  0.16839  1.0000 0.05905265
H   H6        1.0  0.34358  0.45965  0.83161  1.0000 0.05905265
H   H7        1.0  0.84358  0.45965  0.66839  1.0000 0.05905265
H   H8        1.0  0.15642  0.54035  0.33161  1.0000 0.05905265
H   H9        1.0  0.50781  0.25000  0.37285  1.0000 0.0533194376
H   H10       1.0  0.49219  0.75000  0.62715  1.0000 0.0533194376
H   H11       1.0  0.99219  0.75000  0.87285  1.0000 0.0533194376
H   H12       1.0  0.00781  0.25000  0.12715  1.0000 0.0533194376
C   C1        1.0  0.26441  0.99947  0.75748  1.0000 0.5515918141
C   C2        1.0  0.73559  0.00053  0.24252  1.0000 0.5515918141
C   C3        1.0  0.23559  0.00053  0.25748  1.0000 0.5515918141
C   C4        1.0  0.76441  0.99947  0.74252  1.0000 0.5515918141
C   C5        1.0  0.73559  0.49947  0.24252  1.0000 0.5515918141
C   C6        1.0  0.26441  0.50053  0.75748  1.0000 0.5515918141
C   C7        1.0  0.76441  0.50053  0.74252  1.0000 0.5515918141
C   C8        1.0  0.23559  0.49947  0.25748  1.0000 0.5515918141
C   C9        1.0  0.49580  0.25000  0.49312  1.0000 0.5515918141
C   C10       1.0  0.50420  0.75000  0.50688  1.0000 0.5438583606
C   C11       1.0  0.00420  0.75000  0.99312  1.0000 0.5515918141
C   C12       1.0  0.99580  0.25000  0.00688  1.0000 0.5515918141
O   O1        1.0  0.31345  0.97609  0.62817  1.0000 -0.5004274881
O   O2        1.0  0.68655  0.02391  0.37183  1.0000 -0.5004274881
O   O3        1.0  0.18655  0.02391  0.12817  1.0000 -0.5004274881
O   O4        1.0  0.81345  0.97609  0.87183  1.0000 -0.5004274881
O   O5        1.0  0.68655  0.47609  0.37183  1.0000 -0.5004274881
O   O6        1.0  0.31345  0.52391  0.62817  1.0000 -0.5004274881
O   O7        1.0  0.81345  0.52391  0.87183  1.0000 -0.5004274881
O   O8        1.0  0.18655  0.47609  0.12817  1.0000 -0.5004274881
O   O9        1.0  0.13085  0.97725  0.80302  1.0000 -0.5004274881
O   O10       1.0  0.86915  0.02275  0.19698  1.0000 -0.5004274881
O   O11       1.0  0.36915  0.02275  0.30302  1.0000 -0.4912592457
O   O12       1.0  0.63085  0.97725  0.69698  1.0000 -0.4912592457
O   O13       1.0  0.86915  0.47725  0.19698  1.0000 -0.5004274881
O   O14       1.0  0.13085  0.52275  0.80302  1.0000 -0.5004274881
O   O15       1.0  0.63085  0.52275  0.69698  1.0000 -0.4912592457
O   O16       1.0  0.36915  0.47725  0.30302  1.0000 -0.4912592457
O   O17       1.0  0.48926  0.16062  0.55818  1.0000 -0.4912592457
O   O18       1.0  0.51074  0.83938  0.44182  1.0000 -0.4912592457
O   O19       1.0  0.01074  0.83938  0.05818  1.0000 -0.4912592457
O   O20       1.0  0.98926  0.16062  0.94182  1.0000 -0.4912592457
O   O21       1.0  0.51074  0.66062  0.44182  1.0000 -0.4912592457
O   O22       1.0  0.48926  0.33938  0.55818  1.0000 -0.4912592457
O   O23       1.0  0.98926  0.33938  0.94182  1.0000 -0.4912592457
O   O24       1.0  0.01074  0.66062  0.05818  1.0000 -0.4912592457
