# DDEC6 charges by PACMAN v1.1 (https://github.com/mtap-research/PACMAN-charge/)
data_2014[Zn][pcu]3[ASR]14
_chemical_formula_sum              "Zn8 H24 C48 O26"
_cell_length_a       18.1499
_cell_length_b       18.1499
_cell_length_c       18.1499
_cell_angle_alpha    90.0009
_cell_angle_beta     120
_cell_angle_gamma    119.999

_symmetry_space_group_name_H-M    "P 1"
_symmetry_Int_Tables_number       1

loop_
  _symmetry_equiv_pos_as_xyz
  'x, y, z'

loop_
  _atom_site_type_symbol
  _atom_site_label
  _atom_site_symmetry_multiplicity
  _atom_site_fract_x
  _atom_site_fract_y
  _atom_site_fract_z
  _atom_site_occupancy
  _atom_site_charge
Zn  Zn1       1.0  0.58667  0.70669  0.29331  1.0000 0.9356511781
Zn  Zn2       1.0  0.58667  0.87998  0.29336  1.0000 0.9356511781
Zn  Zn3       1.0  0.41333  0.70669  0.29331  1.0000 0.9356511781
Zn  Zn4       1.0  0.41333  0.70664  0.12002  1.0000 0.9356511781
Zn  Zn5       1.0  0.41333  0.29331  0.70669  1.0000 0.9356511781
Zn  Zn6       1.0  0.41333  0.12002  0.70664  1.0000 0.9356511781
Zn  Zn7       1.0  0.58667  0.29331  0.70669  1.0000 0.9356511781
Zn  Zn8       1.0  0.58667  0.29336  0.87998  1.0000 0.9356511781
H   H1        1.0  0.62213  0.54995  0.45333  1.0000 0.1080137127
H   H2        1.0  0.37787  0.54667  0.45005  1.0000 0.1080137127
H   H3        1.0  0.37787  0.45005  0.54667  1.0000 0.1080137127
H   H4        1.0  0.62213  0.45333  0.54995  1.0000 0.1080137127
H   H5        1.0  0.37782  0.83101  0.44880  1.0000 0.1080137127
H   H6        1.0  0.37782  0.92902  0.54681  1.0000 0.1080137127
H   H7        1.0  0.62218  0.55120  0.16899  1.0000 0.1080137127
H   H8        1.0  0.62218  0.45319  0.07098  1.0000 0.1080137127
H   H9        1.0  0.90217  0.07118  0.45200  1.0000 0.1080137127
H   H10       1.0  0.62213  0.07218  0.16880  1.0000 0.1080137127
H   H11       1.0  0.90217  0.45200  0.07118  1.0000 0.1080137127
H   H12       1.0  0.62213  0.16880  0.07218  1.0000 0.1080137127
H   H13       1.0  0.62218  0.07098  0.45319  1.0000 0.1080137127
H   H14       1.0  0.62218  0.16899  0.55120  1.0000 0.1080137127
H   H15       1.0  0.37782  0.54681  0.92902  1.0000 0.1080137127
H   H16       1.0  0.37782  0.44880  0.83101  1.0000 0.1080137127
H   H17       1.0  0.90217  0.45017  0.83099  1.0000 0.1080137127
H   H18       1.0  0.37787  0.83120  0.92782  1.0000 0.1080137127
H   H19       1.0  0.37787  0.92782  0.83120  1.0000 0.1080137127
H   H20       1.0  0.09783  0.54800  0.92882  1.0000 0.1080137127
H   H21       1.0  0.09783  0.92882  0.54800  1.0000 0.1080137127
H   H22       1.0  0.90217  0.83099  0.45017  1.0000 0.1080137127
H   H23       1.0  0.09783  0.16901  0.54983  1.0000 0.1080137127
H   H24       1.0  0.09783  0.54983  0.16901  1.0000 0.1080137127
C   C1        1.0  0.94658  0.90759  0.47279  1.0000 -0.0810712263
C   C2        1.0  0.56700  0.52700  0.47480  1.0000 -0.0810712263
C   C3        1.0  0.56680  0.52800  0.09240  1.0000 -0.0810712263
C   C4        1.0  0.94658  0.03899  0.47379  1.0000 -0.0810712263
C   C5        1.0  0.56700  0.04000  0.09220  1.0000 -0.0810712263
C   C6        1.0  0.56680  0.03880  0.47440  1.0000 -0.0810712263
C   C7        1.0  0.05342  0.52721  0.09241  1.0000 -0.0810712263
C   C8        1.0  0.43300  0.52520  0.47300  1.0000 -0.0810712263
C   C9        1.0  0.43320  0.90760  0.47200  1.0000 -0.0810712263
C   C10       1.0  0.05342  0.52621  0.96101  1.0000 -0.0810712263
C   C11       1.0  0.43300  0.90780  0.96000  1.0000 -0.0810712263
C   C12       1.0  0.43320  0.52560  0.96120  1.0000 -0.0810712263
C   C13       1.0  0.05342  0.09241  0.52721  1.0000 -0.0810712263
C   C14       1.0  0.43300  0.47300  0.52520  1.0000 -0.0810712263
C   C15       1.0  0.43320  0.47200  0.90760  1.0000 -0.0810712263
C   C16       1.0  0.05342  0.96101  0.52621  1.0000 -0.0810712263
C   C17       1.0  0.43300  0.96000  0.90780  1.0000 -0.0810712263
C   C18       1.0  0.43320  0.96120  0.52560  1.0000 -0.0810712263
C   C19       1.0  0.94658  0.47279  0.90759  1.0000 -0.0810712263
C   C20       1.0  0.56700  0.47480  0.52700  1.0000 -0.0810712263
C   C21       1.0  0.56680  0.09240  0.52800  1.0000 -0.0810712263
C   C22       1.0  0.94658  0.47379  0.03899  1.0000 -0.0810712263
C   C23       1.0  0.56700  0.09220  0.04000  1.0000 -0.0810712263
C   C24       1.0  0.56680  0.47440  0.03880  1.0000 -0.0810712263
C   C25       1.0  0.89240  0.94620  0.44620  1.0000 -0.0323078451
C   C26       1.0  0.77504  0.88752  0.38752  1.0000 0.6016924654
C   C27       1.0  0.10760  0.55380  0.05380  1.0000 -0.0323078451
C   C28       1.0  0.22496  0.61248  0.11248  1.0000 0.6016924654
C   C29       1.0  0.10760  0.05380  0.55380  1.0000 -0.0323078451
C   C30       1.0  0.22496  0.11248  0.61248  1.0000 0.6016924654
C   C31       1.0  0.89240  0.44620  0.94620  1.0000 -0.0323078451
C   C32       1.0  0.77504  0.38752  0.88752  1.0000 0.6016924654
C   C33       1.0  0.50000  0.55360  0.05360  1.0000 -0.0323078451
C   C34       1.0  0.50000  0.61200  0.11200  1.0000 0.6016924654
C   C35       1.0  0.50000  0.94640  0.44640  1.0000 -0.0323078451
C   C36       1.0  0.50000  0.88800  0.38800  1.0000 0.6016924654
C   C37       1.0  0.50000  0.44640  0.94640  1.0000 -0.0323078451
C   C38       1.0  0.50000  0.38800  0.88800  1.0000 0.6016924654
C   C39       1.0  0.50000  0.05360  0.55360  1.0000 -0.0323078451
C   C40       1.0  0.50000  0.11200  0.61200  1.0000 0.6016924654
C   C41       1.0  0.50000  0.55340  0.44660  1.0000 -0.0323078451
C   C42       1.0  0.50000  0.61180  0.38820  1.0000 0.6016924654
C   C43       1.0  0.50000  0.94660  0.05340  1.0000 -0.0323078451
C   C44       1.0  0.50000  0.88820  0.11180  1.0000 0.6016924654
C   C45       1.0  0.50000  0.44660  0.55340  1.0000 -0.0323078451
C   C46       1.0  0.50000  0.38820  0.61180  1.0000 0.6016924654
C   C47       1.0  0.50000  0.05340  0.94660  1.0000 -0.0323078451
C   C48       1.0  0.50000  0.11180  0.88820  1.0000 0.6016924654
O   O1        1.0  0.73144  0.80328  0.36652  1.0000 -0.5404357774
O   O2        1.0  0.56274  0.63508  0.19588  1.0000 -0.5326477936
O   O3        1.0  0.56324  0.63472  0.36610  1.0000 -0.5404357774
O   O4        1.0  0.73144  0.92816  0.36492  1.0000 -0.5404357774
O   O5        1.0  0.56274  0.92766  0.36686  1.0000 -0.5326477936
O   O6        1.0  0.56324  0.92852  0.19714  1.0000 -0.5404357774
O   O7        1.0  0.26856  0.63348  0.19672  1.0000 -0.5404357774
O   O8        1.0  0.43726  0.80412  0.36492  1.0000 -0.5326477936
O   O9        1.0  0.43676  0.63390  0.36528  1.0000 -0.5404357774
O   O10       1.0  0.26856  0.63508  0.07184  1.0000 -0.5404357774
O   O11       1.0  0.43726  0.63314  0.07234  1.0000 -0.5326477936
O   O12       1.0  0.43676  0.80286  0.07148  1.0000 -0.5404357774
O   O13       1.0  0.26856  0.19672  0.63348  1.0000 -0.5404357774
O   O14       1.0  0.43726  0.36492  0.80412  1.0000 -0.5326477936
O   O15       1.0  0.43676  0.36528  0.63390  1.0000 -0.5404357774
O   O16       1.0  0.26856  0.07184  0.63508  1.0000 -0.5404357774
O   O17       1.0  0.43726  0.07234  0.63314  1.0000 -0.5326477936
O   O18       1.0  0.43676  0.07148  0.80286  1.0000 -0.5404357774
O   O19       1.0  0.73144  0.36652  0.80328  1.0000 -0.5404357774
O   O20       1.0  0.56274  0.19588  0.63508  1.0000 -0.5326477936
O   O21       1.0  0.56324  0.36610  0.63472  1.0000 -0.5404357774
O   O22       1.0  0.73144  0.36492  0.92816  1.0000 -0.5404357774
O   O23       1.0  0.56274  0.36686  0.92766  1.0000 -0.5326477936
O   O24       1.0  0.56324  0.19714  0.92852  1.0000 -0.5404357774
O   O25       1.0  0.50000  0.75000  0.25000  1.0000 -1.0281448787
O   O26       1.0  0.50000  0.25000  0.75000  1.0000 -1.0281448787
