# DDEC6 charges by PACMAN v1.1 (https://github.com/mtap-research/PACMAN-charge/)
data_2014[Co][mmm]3[ASR]1
_chemical_formula_sum              "Co12 H48 C80 N32 Cl8 O32"
_cell_length_a       11.3528
_cell_length_b       11.3528
_cell_length_c       23.145
_cell_angle_alpha    90
_cell_angle_beta     90
_cell_angle_gamma    90

_symmetry_space_group_name_H-M    "P 1"
_symmetry_Int_Tables_number       1

loop_
  _symmetry_equiv_pos_as_xyz
  'x, y, z'

loop_
  _atom_site_type_symbol
  _atom_site_label
  _atom_site_symmetry_multiplicity
  _atom_site_fract_x
  _atom_site_fract_y
  _atom_site_fract_z
  _atom_site_occupancy
  _atom_site_charge
Co  Co1       1.0  0.50000  0.50000  0.25000  1.0000 0.6232380301
Co  Co2       1.0  0.00000  0.00000  0.25000  1.0000 0.6232380301
Co  Co3       1.0  0.00000  0.00000  0.75000  1.0000 0.6232380301
Co  Co4       1.0  0.50000  0.50000  0.75000  1.0000 0.6232380301
Co  Co5       1.0  0.25000  0.75000  0.00000  1.0000 0.8871361271
Co  Co6       1.0  0.75000  0.25000  0.00000  1.0000 0.8871361271
Co  Co7       1.0  0.75000  0.75000  0.00000  1.0000 0.8871361271
Co  Co8       1.0  0.25000  0.25000  0.00000  1.0000 0.8871361271
Co  Co9       1.0  0.25000  0.25000  0.50000  1.0000 0.8871361271
Co  Co10      1.0  0.75000  0.75000  0.50000  1.0000 0.8871361271
Co  Co11      1.0  0.75000  0.25000  0.50000  1.0000 0.8871361271
Co  Co12      1.0  0.25000  0.75000  0.50000  1.0000 0.8871361271
H   H1        1.0  0.36570  0.84560  0.12260  1.0000 0.1300338537
H   H2        1.0  0.63430  0.15440  0.12260  1.0000 0.1300338537
H   H3        1.0  0.65440  0.86570  0.12260  1.0000 0.1300338537
H   H4        1.0  0.34560  0.13430  0.12260  1.0000 0.1300338537
H   H5        1.0  0.13430  0.34560  0.37740  1.0000 0.1300338537
H   H6        1.0  0.86570  0.65440  0.37740  1.0000 0.1300338537
H   H7        1.0  0.84560  0.36570  0.37740  1.0000 0.1300338537
H   H8        1.0  0.15440  0.63430  0.37740  1.0000 0.1300338537
H   H9        1.0  0.13430  0.65440  0.87740  1.0000 0.1300338537
H   H10       1.0  0.86570  0.34560  0.87740  1.0000 0.1300338537
H   H11       1.0  0.84560  0.63430  0.87740  1.0000 0.1300338537
H   H12       1.0  0.15440  0.36570  0.87740  1.0000 0.1300338537
H   H13       1.0  0.36570  0.15440  0.62260  1.0000 0.1300338537
H   H14       1.0  0.63430  0.84560  0.62260  1.0000 0.1300338537
H   H15       1.0  0.65440  0.13430  0.62260  1.0000 0.1300338537
H   H16       1.0  0.34560  0.86570  0.62260  1.0000 0.1300338537
H   H17       1.0  0.43450  0.75780  0.20410  1.0000 0.1204964186
H   H18       1.0  0.56550  0.24220  0.20410  1.0000 0.1204964186
H   H19       1.0  0.74220  0.93450  0.20410  1.0000 0.1204964186
H   H20       1.0  0.25780  0.06550  0.20410  1.0000 0.1204964186
H   H21       1.0  0.06550  0.25780  0.29590  1.0000 0.1204964186
H   H22       1.0  0.93450  0.74220  0.29590  1.0000 0.1204964186
H   H23       1.0  0.75780  0.43450  0.29590  1.0000 0.1204964186
H   H24       1.0  0.24220  0.56550  0.29590  1.0000 0.1204964186
H   H25       1.0  0.06550  0.74220  0.79590  1.0000 0.1204964186
H   H26       1.0  0.93450  0.25780  0.79590  1.0000 0.1204964186
H   H27       1.0  0.75780  0.56550  0.79590  1.0000 0.1204964186
H   H28       1.0  0.24220  0.43450  0.79590  1.0000 0.1204964186
H   H29       1.0  0.43450  0.24220  0.70410  1.0000 0.1204964186
H   H30       1.0  0.56550  0.75780  0.70410  1.0000 0.1204964186
H   H31       1.0  0.74220  0.06550  0.70410  1.0000 0.1204964186
H   H32       1.0  0.25780  0.93450  0.70410  1.0000 0.1204964186
H   H33       1.0  0.35530  0.44920  0.14210  1.0000 0.1204964186
H   H34       1.0  0.64470  0.55080  0.14210  1.0000 0.1204964186
H   H35       1.0  0.05080  0.85530  0.14210  1.0000 0.1204964186
H   H36       1.0  0.94920  0.14470  0.14210  1.0000 0.1204964186
H   H37       1.0  0.14470  0.94920  0.35790  1.0000 0.1204964186
H   H38       1.0  0.85530  0.05080  0.35790  1.0000 0.1204964186
H   H39       1.0  0.44920  0.35530  0.35790  1.0000 0.1204964186
H   H40       1.0  0.55080  0.64470  0.35790  1.0000 0.1204964186
H   H41       1.0  0.14470  0.05080  0.85790  1.0000 0.1204964186
H   H42       1.0  0.85530  0.94920  0.85790  1.0000 0.1204964186
H   H43       1.0  0.44920  0.64470  0.85790  1.0000 0.1204964186
H   H44       1.0  0.55080  0.35530  0.85790  1.0000 0.1204964186
H   H45       1.0  0.35530  0.55080  0.64210  1.0000 0.1204964186
H   H46       1.0  0.64470  0.44920  0.64210  1.0000 0.1204964186
H   H47       1.0  0.05080  0.14470  0.64210  1.0000 0.1204964186
H   H48       1.0  0.94920  0.85530  0.64210  1.0000 0.1204964186
C   C1        1.0  0.31850  0.58310  0.08820  1.0000 0.0684285716
C   C2        1.0  0.68150  0.41690  0.08820  1.0000 0.0684285716
C   C3        1.0  0.91690  0.81850  0.08820  1.0000 0.0684285716
C   C4        1.0  0.08310  0.18150  0.08820  1.0000 0.0684285716
C   C5        1.0  0.18150  0.08310  0.41180  1.0000 0.0684285716
C   C6        1.0  0.81850  0.91690  0.41180  1.0000 0.0684285716
C   C7        1.0  0.58310  0.31850  0.41180  1.0000 0.0684285716
C   C8        1.0  0.41690  0.68150  0.41180  1.0000 0.0684285716
C   C9        1.0  0.18150  0.91690  0.91180  1.0000 0.0684285716
C   C10       1.0  0.81850  0.08310  0.91180  1.0000 0.0684285716
C   C11       1.0  0.58310  0.68150  0.91180  1.0000 0.0684285716
C   C12       1.0  0.41690  0.31850  0.91180  1.0000 0.0684285716
C   C13       1.0  0.31850  0.41690  0.58820  1.0000 0.0684285716
C   C14       1.0  0.68150  0.58310  0.58820  1.0000 0.0684285716
C   C15       1.0  0.91690  0.18150  0.58820  1.0000 0.0684285716
C   C16       1.0  0.08310  0.81850  0.58820  1.0000 0.0684285716
C   C17       1.0  0.36460  0.76390  0.12530  1.0000 0.050640346
C   C18       1.0  0.63540  0.23610  0.12530  1.0000 0.050640346
C   C19       1.0  0.73610  0.86460  0.12530  1.0000 0.050640346
C   C20       1.0  0.26390  0.13540  0.12530  1.0000 0.050640346
C   C21       1.0  0.13540  0.26390  0.37470  1.0000 0.050640346
C   C22       1.0  0.86460  0.73610  0.37470  1.0000 0.050640346
C   C23       1.0  0.76390  0.36460  0.37470  1.0000 0.050640346
C   C24       1.0  0.23610  0.63540  0.37470  1.0000 0.050640346
C   C25       1.0  0.13540  0.73610  0.87470  1.0000 0.050640346
C   C26       1.0  0.86460  0.26390  0.87470  1.0000 0.050640346
C   C27       1.0  0.76390  0.63540  0.87470  1.0000 0.050640346
C   C28       1.0  0.23610  0.36460  0.87470  1.0000 0.050640346
C   C29       1.0  0.36460  0.23610  0.62530  1.0000 0.050640346
C   C30       1.0  0.63540  0.76390  0.62530  1.0000 0.050640346
C   C31       1.0  0.73610  0.13540  0.62530  1.0000 0.050640346
C   C32       1.0  0.26390  0.86460  0.62530  1.0000 0.050640346
C   C33       1.0  0.40570  0.71070  0.17440  1.0000 0.0279706561
C   C34       1.0  0.59430  0.28930  0.17440  1.0000 0.0279706561
C   C35       1.0  0.78930  0.90570  0.17440  1.0000 0.0279706561
C   C36       1.0  0.21070  0.09430  0.17440  1.0000 0.0279706561
C   C37       1.0  0.09430  0.21070  0.32560  1.0000 0.0279706561
C   C38       1.0  0.90570  0.78930  0.32560  1.0000 0.0279706561
C   C39       1.0  0.71070  0.40570  0.32560  1.0000 0.0279706561
C   C40       1.0  0.28930  0.59430  0.32560  1.0000 0.0279706561
C   C41       1.0  0.09430  0.78930  0.82560  1.0000 0.0279706561
C   C42       1.0  0.90570  0.21070  0.82560  1.0000 0.0279706561
C   C43       1.0  0.71070  0.59430  0.82560  1.0000 0.0279706561
C   C44       1.0  0.28930  0.40570  0.82560  1.0000 0.0279706561
C   C45       1.0  0.40570  0.28930  0.67440  1.0000 0.0279706561
C   C46       1.0  0.59430  0.71070  0.67440  1.0000 0.0279706561
C   C47       1.0  0.78930  0.09430  0.67440  1.0000 0.0279706561
C   C48       1.0  0.21070  0.90570  0.67440  1.0000 0.0279706561
C   C49       1.0  0.35980  0.53060  0.13830  1.0000 0.0366134902
C   C50       1.0  0.64020  0.46940  0.13830  1.0000 0.0366134902
C   C51       1.0  0.96940  0.85980  0.13830  1.0000 0.0366134902
C   C52       1.0  0.03060  0.14020  0.13830  1.0000 0.0366134902
C   C53       1.0  0.14020  0.03060  0.36170  1.0000 0.0366134902
C   C54       1.0  0.85980  0.96940  0.36170  1.0000 0.0366134902
C   C55       1.0  0.53060  0.35980  0.36170  1.0000 0.0366134902
C   C56       1.0  0.46940  0.64020  0.36170  1.0000 0.0366134902
C   C57       1.0  0.14020  0.96940  0.86170  1.0000 0.0366134902
C   C58       1.0  0.85980  0.03060  0.86170  1.0000 0.0366134902
C   C59       1.0  0.53060  0.64020  0.86170  1.0000 0.0366134902
C   C60       1.0  0.46940  0.35980  0.86170  1.0000 0.0366134902
C   C61       1.0  0.35980  0.46940  0.63830  1.0000 0.0366134902
C   C62       1.0  0.64020  0.53060  0.63830  1.0000 0.0366134902
C   C63       1.0  0.96940  0.14020  0.63830  1.0000 0.0366134902
C   C64       1.0  0.03060  0.85980  0.63830  1.0000 0.0366134902
C   C65       1.0  0.26790  0.51240  0.03880  1.0000 0.5466808595
C   C66       1.0  0.73210  0.48760  0.03880  1.0000 0.5466808595
C   C67       1.0  0.98760  0.76790  0.03880  1.0000 0.5466808595
C   C68       1.0  0.01240  0.23210  0.03880  1.0000 0.5466808595
C   C69       1.0  0.23210  0.01240  0.46120  1.0000 0.5466808595
C   C70       1.0  0.76790  0.98760  0.46120  1.0000 0.5466808595
C   C71       1.0  0.51240  0.26790  0.46120  1.0000 0.5466808595
C   C72       1.0  0.48760  0.73210  0.46120  1.0000 0.5466808595
C   C73       1.0  0.23210  0.98760  0.96120  1.0000 0.5466808595
C   C74       1.0  0.76790  0.01240  0.96120  1.0000 0.5466808595
C   C75       1.0  0.51240  0.73210  0.96120  1.0000 0.5466808595
C   C76       1.0  0.48760  0.26790  0.96120  1.0000 0.5466808595
C   C77       1.0  0.26790  0.48760  0.53880  1.0000 0.5466808595
C   C78       1.0  0.73210  0.51240  0.53880  1.0000 0.5466808595
C   C79       1.0  0.98760  0.23210  0.53880  1.0000 0.5466808595
C   C80       1.0  0.01240  0.76790  0.53880  1.0000 0.5466808595
N   N1        1.0  0.32290  0.70050  0.08140  1.0000 -0.2134534612
N   N2        1.0  0.67710  0.29950  0.08140  1.0000 -0.2134534612
N   N3        1.0  0.79950  0.82290  0.08140  1.0000 -0.2134534612
N   N4        1.0  0.20050  0.17710  0.08140  1.0000 -0.2134534612
N   N5        1.0  0.17710  0.20050  0.41860  1.0000 -0.2134534612
N   N6        1.0  0.82290  0.79950  0.41860  1.0000 -0.2134534612
N   N7        1.0  0.70050  0.32290  0.41860  1.0000 -0.2134534612
N   N8        1.0  0.29950  0.67710  0.41860  1.0000 -0.2134534612
N   N9        1.0  0.17710  0.79950  0.91860  1.0000 -0.2134534612
N   N10       1.0  0.82290  0.20050  0.91860  1.0000 -0.2134534612
N   N11       1.0  0.70050  0.67710  0.91860  1.0000 -0.2134534612
N   N12       1.0  0.29950  0.32290  0.91860  1.0000 -0.2134534612
N   N13       1.0  0.32290  0.29950  0.58140  1.0000 -0.2134534612
N   N14       1.0  0.67710  0.70050  0.58140  1.0000 -0.2134534612
N   N15       1.0  0.79950  0.17710  0.58140  1.0000 -0.2134534612
N   N16       1.0  0.20050  0.82290  0.58140  1.0000 -0.2134534612
N   N17       1.0  0.40600  0.59440  0.18130  1.0000 -0.1602107703
N   N18       1.0  0.59400  0.40560  0.18130  1.0000 -0.1602107703
N   N19       1.0  0.90560  0.90600  0.18130  1.0000 -0.1602107703
N   N20       1.0  0.09440  0.09400  0.18130  1.0000 -0.1602107703
N   N21       1.0  0.09400  0.09440  0.31870  1.0000 -0.1602107703
N   N22       1.0  0.90600  0.90560  0.31870  1.0000 -0.1602107703
N   N23       1.0  0.59440  0.40600  0.31870  1.0000 -0.1602107703
N   N24       1.0  0.40560  0.59400  0.31870  1.0000 -0.1602107703
N   N25       1.0  0.09400  0.90560  0.81870  1.0000 -0.1602107703
N   N26       1.0  0.90600  0.09440  0.81870  1.0000 -0.1602107703
N   N27       1.0  0.59440  0.59400  0.81870  1.0000 -0.1602107703
N   N28       1.0  0.40560  0.40600  0.81870  1.0000 -0.1602107703
N   N29       1.0  0.40600  0.40560  0.68130  1.0000 -0.1602107703
N   N30       1.0  0.59400  0.59440  0.68130  1.0000 -0.1602107703
N   N31       1.0  0.90560  0.09400  0.68130  1.0000 -0.1602107703
N   N32       1.0  0.09440  0.90600  0.68130  1.0000 -0.1602107703
Cl  Cl1       1.0  0.34940  0.34940  0.25000  1.0000 -0.6038255214
Cl  Cl2       1.0  0.65060  0.65060  0.25000  1.0000 -0.6038255214
Cl  Cl3       1.0  0.15060  0.84940  0.25000  1.0000 -0.6038255214
Cl  Cl4       1.0  0.84940  0.15060  0.25000  1.0000 -0.6038255214
Cl  Cl5       1.0  0.15060  0.15060  0.75000  1.0000 -0.6038255214
Cl  Cl6       1.0  0.84940  0.84940  0.75000  1.0000 -0.6038255214
Cl  Cl7       1.0  0.34940  0.65060  0.75000  1.0000 -0.6038255214
Cl  Cl8       1.0  0.65060  0.34940  0.75000  1.0000 -0.6038255214
O   O1        1.0  0.26710  0.40500  0.04610  1.0000 -0.5125805966
O   O2        1.0  0.73290  0.59500  0.04610  1.0000 -0.5125805966
O   O3        1.0  0.09500  0.76710  0.04610  1.0000 -0.5125805966
O   O4        1.0  0.90500  0.23290  0.04610  1.0000 -0.5125805966
O   O5        1.0  0.23290  0.90500  0.45390  1.0000 -0.5125805966
O   O6        1.0  0.76710  0.09500  0.45390  1.0000 -0.5125805966
O   O7        1.0  0.40500  0.26710  0.45390  1.0000 -0.5125805966
O   O8        1.0  0.59500  0.73290  0.45390  1.0000 -0.5125805966
O   O9        1.0  0.23290  0.09500  0.95390  1.0000 -0.5125805966
O   O10       1.0  0.76710  0.90500  0.95390  1.0000 -0.5125805966
O   O11       1.0  0.40500  0.73290  0.95390  1.0000 -0.5125805966
O   O12       1.0  0.59500  0.26710  0.95390  1.0000 -0.5125805966
O   O13       1.0  0.26710  0.59500  0.54610  1.0000 -0.5125805966
O   O14       1.0  0.73290  0.40500  0.54610  1.0000 -0.5125805966
O   O15       1.0  0.09500  0.23290  0.54610  1.0000 -0.5125805966
O   O16       1.0  0.90500  0.76710  0.54610  1.0000 -0.5125805966
O   O17       1.0  0.23210  0.56750  0.99530  1.0000 -0.5125805966
O   O18       1.0  0.76790  0.43250  0.99530  1.0000 -0.5125805966
O   O19       1.0  0.93250  0.73210  0.99530  1.0000 -0.5125805966
O   O20       1.0  0.06750  0.26790  0.99530  1.0000 -0.5125805966
O   O21       1.0  0.26790  0.06750  0.50470  1.0000 -0.5125805966
O   O22       1.0  0.73210  0.93250  0.50470  1.0000 -0.5125805966
O   O23       1.0  0.56750  0.23210  0.50470  1.0000 -0.5125805966
O   O24       1.0  0.43250  0.76790  0.50470  1.0000 -0.5125805966
O   O25       1.0  0.26790  0.93250  0.00470  1.0000 -0.5125805966
O   O26       1.0  0.73210  0.06750  0.00470  1.0000 -0.5125805966
O   O27       1.0  0.56750  0.76790  0.00470  1.0000 -0.5125805966
O   O28       1.0  0.43250  0.23210  0.00470  1.0000 -0.5125805966
O   O29       1.0  0.23210  0.43250  0.49530  1.0000 -0.5125805966
O   O30       1.0  0.76790  0.56750  0.49530  1.0000 -0.5125805966
O   O31       1.0  0.93250  0.26790  0.49530  1.0000 -0.5125805966
O   O32       1.0  0.06750  0.73210  0.49530  1.0000 -0.5125805966
