# DDEC6 charges by PACMAN v1.1 (https://github.com/mtap-research/PACMAN-charge/)
data_2014[Zn][ths]3[ASR]1
_chemical_formula_sum              "Zn2 H40 C60 N12 O14"
_cell_length_a       7.5481
_cell_length_b       10.888
_cell_length_c       19.046
_cell_angle_alpha    79.948
_cell_angle_beta     79.57
_cell_angle_gamma    73.077

_symmetry_space_group_name_H-M    "P 1"
_symmetry_Int_Tables_number       1

loop_
  _symmetry_equiv_pos_as_xyz
  'x, y, z'

loop_
  _atom_site_type_symbol
  _atom_site_label
  _atom_site_symmetry_multiplicity
  _atom_site_fract_x
  _atom_site_fract_y
  _atom_site_fract_z
  _atom_site_occupancy
  _atom_site_charge
Zn  Zn1       1.0  0.28328  0.71290  0.03334  1.0000 0.7019530207
Zn  Zn2       1.0  0.60716  0.21506  0.54881  1.0000 0.7019530207
H   H1        1.0  0.69638  0.24166  0.25064  1.0000 0.1298106514
H   H2        1.0  0.59266  0.40861  0.14913  1.0000 0.1191787649
H   H3        1.0  0.81009  0.54621  0.08465  1.0000 0.100485184
H   H4        1.0  0.99566  0.05514  0.19231  1.0000 0.1298106514
H   H5        1.0  0.04920  0.81305  0.21067  1.0000 0.1091033869
H   H6        1.0  0.13082  0.79606  0.43147  1.0000 0.1091033869
H   H7        1.0  0.07226  0.03691  0.41573  1.0000 0.1380704276
H   H8        1.0  0.41682  0.81285  0.77656  1.0000 0.1298106514
H   H9        1.0  0.49158  0.96116  0.66743  1.0000 0.1091033869
H   H10       1.0  0.23925  0.07066  0.58579  1.0000 0.0906183727
H   H11       1.0  0.33825  0.63460  0.71743  1.0000 0.1298106514
H   H12       1.0  0.49758  0.39841  0.73631  1.0000 0.100485184
H   H13       1.0  0.20269  0.36560  0.95239  1.0000 0.1091033869
H   H14       1.0  0.04852  0.60661  0.93640  1.0000 0.1298106514
H   H15       1.0  0.28079  0.99180  0.91292  1.0000 0.1091033869
H   H16       1.0  0.86287  0.81383  0.02628  1.0000 0.1191787649
H   H17       1.0  0.69258  0.04559  0.94222  1.0000 0.1298106514
H   H18       1.0  0.14949  0.09624  0.77920  1.0000 0.1298106514
H   H19       1.0  0.88271  0.50841  0.75303  1.0000 0.1472246974
H   H20       1.0  0.77351  0.27046  0.95604  1.0000 0.1472246974
H   H21       1.0  0.78397  0.66604  0.80759  1.0000 0.1298106514
H   H22       1.0  0.53519  0.82436  0.89814  1.0000 0.1191787649
H   H23       1.0  0.53985  0.43653  0.98329  1.0000 0.1191787649
H   H24       1.0  0.39996  0.20608  0.70449  1.0000 0.1191787649
H   H25       1.0  0.17660  0.40879  0.51487  1.0000 0.1091033869
H   H26       1.0  0.89102  0.43856  0.63095  1.0000 0.1380704276
H   H27       1.0  0.68859  0.92599  0.49166  1.0000 0.1191787649
H   H28       1.0  0.39562  0.30661  0.41495  1.0000 0.100485184
H   H29       1.0  0.38036  0.14555  0.32229  1.0000 0.1191787649
H   H30       1.0  0.64626  0.74849  0.45864  1.0000 0.1380704276
H   H31       1.0  0.64090  0.58417  0.26879  1.0000 0.1472246974
H   H32       1.0  0.49952  0.00264  0.26198  1.0000 0.1472246974
H   H33       1.0  0.43050  0.64099  0.18662  1.0000 0.1191787649
H   H34       1.0  0.41318  0.97278  0.03105  1.0000 0.1191787649
H   H35       1.0  0.54965  0.01041  0.14945  1.0000 0.1472246974
H   H36       1.0  0.96457  0.45127  0.33803  1.0000 0.1380704276
H   H37       1.0  0.47102  0.53406  0.49048  1.0000 0.1091033869
H   H38       1.0  0.96287  0.23522  0.44406  1.0000 0.1298106514
H   H39       1.0  0.22377  0.49840  0.38874  1.0000 0.3716728955
H   H40       1.0  0.62735  0.07671  0.79883  1.0000 0.3716728955
C   C1        1.0  0.15696  0.52686  0.10683  1.0000 0.5602312952
C   C2        1.0  0.29814  0.29461  0.22384  1.0000 0.5949959427
C   C3        1.0  0.03800  0.44171  0.14511  1.0000 -0.0576477193
C   C4        1.0  0.10374  0.34083  0.19962  1.0000 -0.1041410446
C   C5        1.0  0.97260  0.27379  0.23641  1.0000 0.190898028
C   C6        1.0  0.79237  0.29650  0.21977  1.0000 -0.1714668751
C   C7        1.0  0.73390  0.39232  0.16280  1.0000 -0.08269996
C   C8        1.0  0.85516  0.46608  0.12726  1.0000 -0.1137564436
C   C9        1.0  0.03836  0.05822  0.30235  1.0000 0.2889950543
C   C10       1.0  0.02490  0.99859  0.24414  1.0000 -0.2109466896
C   C11       1.0  0.05450  0.86474  0.25446  1.0000 -0.0499393355
C   C12       1.0  0.09681  0.79246  0.32124  1.0000 -0.1041410446
C   C13       1.0  0.10097  0.85457  0.37966  1.0000 -0.072193119
C   C14       1.0  0.07035  0.98792  0.37053  1.0000 -0.20056777
C   C15       1.0  0.14206  0.65199  0.32692  1.0000 0.5435614854
C   C16       1.0  0.89123  0.06364  0.60542  1.0000 0.5602312952
C   C17       1.0  0.79488  0.88383  0.74145  1.0000 0.6051740914
C   C18       1.0  0.02951  0.99324  0.65551  1.0000 -0.0499393355
C   C19       1.0  0.98239  0.91464  0.71919  1.0000 -0.1368877024
C   C20       1.0  0.12871  0.84768  0.75972  1.0000 0.2037021785
C   C21       1.0  0.30859  0.86518  0.74259  1.0000 -0.1827340603
C   C22       1.0  0.35036  0.94707  0.68018  1.0000 -0.072193119
C   C23       1.0  0.21240  0.00765  0.63616  1.0000 -0.1137564436
C   C24       1.0  0.18198  0.63321  0.82577  1.0000 0.276523289
C   C25       1.0  0.30834  0.57610  0.76884  1.0000 -0.2179233015
C   C26       1.0  0.39657  0.44359  0.77952  1.0000 -0.072193119
C   C27       1.0  0.35867  0.36645  0.84500  1.0000 -0.089057466
C   C28       1.0  0.23068  0.42602  0.90129  1.0000 -0.072193119
C   C29       1.0  0.14358  0.55861  0.89232  1.0000 -0.20056777
C   C30       1.0  0.45154  0.22389  0.85562  1.0000 0.5602312952
C   C31       1.0  0.14797  0.96886  0.93214  1.0000 0.100485184
C   C32       1.0  0.92218  0.88631  0.99078  1.0000 -0.0217711496
C   C33       1.0  0.83756  0.99940  0.95136  1.0000 -0.089057466
C   C34       1.0  0.96007  0.17314  0.87102  1.0000 0.2176232606
C   C35       1.0  0.05738  0.18245  0.80144  1.0000 -0.234543103
C   C36       1.0  0.02421  0.30424  0.76037  1.0000 0.2106181092
C   C37       1.0  0.90110  0.41467  0.78662  1.0000 -0.2538591952
C   C38       1.0  0.81168  0.40198  0.85759  1.0000 0.2176232606
C   C39       1.0  0.83898  0.28153  0.90017  1.0000 -0.2570202083
C   C40       1.0  0.70059  0.64102  0.85799  1.0000 -0.072193119
C   C41       1.0  0.57293  0.71916  0.90331  1.0000 -0.0217711496
C   C42       1.0  0.57187  0.51981  0.94841  1.0000 0.1191787649
C   C43       1.0  0.30293  0.26423  0.66779  1.0000 0.1191787649
C   C44       1.0  0.18214  0.37256  0.57157  1.0000 -0.0271951903
C   C45       1.0  0.03886  0.38789  0.62813  1.0000 -0.089057466
C   C46       1.0  0.60430  0.00704  0.45983  1.0000 0.1091033869
C   C47       1.0  0.45051  0.20208  0.41861  1.0000 -0.0271951903
C   C48       1.0  0.44248  0.12276  0.37168  1.0000 -0.072193119
C   C49       1.0  0.57102  0.88720  0.36402  1.0000 0.2106181092
C   C50       1.0  0.62328  0.76356  0.40243  1.0000 -0.2706342668
C   C51       1.0  0.64711  0.65724  0.36656  1.0000 0.2106181092
C   C52       1.0  0.61988  0.67029  0.29472  1.0000 -0.2434540868
C   C53       1.0  0.56385  0.79567  0.25866  1.0000 0.2106181092
C   C54       1.0  0.54253  0.90522  0.29185  1.0000 -0.2570202083
C   C55       1.0  0.44995  0.73349  0.15944  1.0000 0.1091033869
C   C56       1.0  0.44032  0.90831  0.08103  1.0000 -0.0271951903
C   C57       1.0  0.51153  0.92703  0.13826  1.0000 -0.08269996
C   C58       1.0  0.86488  0.43444  0.38561  1.0000 -0.08269996
C   C59       1.0  0.60687  0.48105  0.46583  1.0000 0.0906183727
C   C60       1.0  0.86320  0.33014  0.43768  1.0000 -0.0217711496
N   N1        1.0  0.70200  0.35942  0.48747  1.0000 -0.2820200255
N   N2        1.0  0.11548  0.86835  0.97877  1.0000 -0.2820200255
N   N3        1.0  0.98239  0.05063  0.91438  1.0000 0.0072615396
N   N4        1.0  0.34651  0.29626  0.59710  1.0000 -0.2881409854
N   N5        1.0  0.11774  0.31777  0.68858  1.0000 0.0072615396
N   N6        1.0  0.69854  0.51463  0.88690  1.0000 -0.0004644761
N   N7        1.0  0.55085  0.12965  0.47338  1.0000 -0.2820200255
N   N8        1.0  0.54076  0.99890  0.39815  1.0000 0.0038383705
N   N9        1.0  0.70227  0.52967  0.40450  1.0000 0.0038383705
N   N10       1.0  0.40141  0.78802  0.09496  1.0000 -0.2881409854
N   N11       1.0  0.51887  0.81504  0.18758  1.0000 0.0038383705
N   N12       1.0  0.49311  0.64270  0.95905  1.0000 -0.2881409854
O   O1        1.0  0.07061  0.63637  0.07143  1.0000 -0.5496268302
O   O2        1.0  0.33120  0.49847  0.10759  1.0000 -0.5318494767
O   O3        1.0  0.40709  0.19432  0.19705  1.0000 -0.596559617
O   O4        1.0  0.32749  0.34765  0.27293  1.0000 -0.5661273331
O   O5        1.0  0.02901  0.18629  0.29767  1.0000 -0.20056777
O   O6        1.0  0.14682  0.59210  0.27730  1.0000 -0.4420192272
O   O7        1.0  0.18229  0.58954  0.39553  1.0000 -0.5234357745
O   O8        1.0  0.94284  0.07906  0.53832  1.0000 -0.5496268302
O   O9        1.0  0.71846  0.11154  0.63397  1.0000 -0.5425771207
O   O10       1.0  0.77408  0.79458  0.71215  1.0000 -0.5661273331
O   O11       1.0  0.67797  0.94316  0.79127  1.0000 -0.5856273503
O   O12       1.0  0.08379  0.76264  0.82104  1.0000 -0.2109466896
O   O13       1.0  0.57069  0.18101  0.79814  1.0000 -0.5234357745
O   O14       1.0  0.41795  0.15434  0.91314  1.0000 -0.5425771207
