# DDEC6 charges by PACMAN v1.1 (https://github.com/mtap-research/PACMAN-charge/)
data_2014[In][nan]3[ASR]2
_chemical_formula_sum              "In6 H36 C72 N18 O42"
_cell_length_a       18.7391
_cell_length_b       18.7391
_cell_length_c       18.7391
_cell_angle_alpha    113.912
_cell_angle_beta     113.912
_cell_angle_gamma    113.912

_symmetry_space_group_name_H-M    "P 1"
_symmetry_Int_Tables_number       1

loop_
  _symmetry_equiv_pos_as_xyz
  'x, y, z'

loop_
  _atom_site_type_symbol
  _atom_site_label
  _atom_site_symmetry_multiplicity
  _atom_site_fract_x
  _atom_site_fract_y
  _atom_site_fract_z
  _atom_site_occupancy
  _atom_site_charge
In  In1       1.0  0.83274  0.39885  0.32052  1.0000 1.1724193326
In  In2       1.0  0.39885  0.32052  0.83274  1.0000 1.1724193326
In  In3       1.0  0.32052  0.83274  0.39885  1.0000 1.1724193326
In  In4       1.0  0.33274  0.82052  0.89885  1.0000 1.1724193326
In  In5       1.0  0.89885  0.33274  0.82052  1.0000 1.1724193326
In  In6       1.0  0.82052  0.89885  0.33274  1.0000 1.1724193326
H   H1        1.0  0.67170  0.35150  0.11620  1.0000 0.1302066625
H   H2        1.0  0.35150  0.11620  0.67170  1.0000 0.1302066625
H   H3        1.0  0.11620  0.67170  0.35150  1.0000 0.1302066625
H   H4        1.0  0.17170  0.61620  0.85150  1.0000 0.1302066625
H   H5        1.0  0.85150  0.17170  0.61620  1.0000 0.1302066625
H   H6        1.0  0.61620  0.85150  0.17170  1.0000 0.1302066625
H   H7        1.0  0.60120  0.52650  0.18900  1.0000 0.1385009204
H   H8        1.0  0.52650  0.18900  0.60120  1.0000 0.1385009204
H   H9        1.0  0.18900  0.60120  0.52650  1.0000 0.1385009204
H   H10       1.0  0.10120  0.68900  0.02650  1.0000 0.1385009204
H   H11       1.0  0.02650  0.10120  0.68900  1.0000 0.1385009204
H   H12       1.0  0.68900  0.02650  0.10120  1.0000 0.1385009204
H   H13       1.0  0.72270  0.61160  0.36460  1.0000 0.1385009204
H   H14       1.0  0.61160  0.36460  0.72270  1.0000 0.1385009204
H   H15       1.0  0.36460  0.72270  0.61160  1.0000 0.1385009204
H   H16       1.0  0.22270  0.86460  0.11160  1.0000 0.1385009204
H   H17       1.0  0.11160  0.22270  0.86460  1.0000 0.1385009204
H   H18       1.0  0.86460  0.11160  0.22270  1.0000 0.1385009204
H   H19       1.0  0.84380  0.69220  0.52650  1.0000 0.1385009204
H   H20       1.0  0.69220  0.52650  0.84380  1.0000 0.1385009204
H   H21       1.0  0.52650  0.84380  0.69220  1.0000 0.1385009204
H   H22       1.0  0.34380  0.02650  0.19220  1.0000 0.1385009204
H   H23       1.0  0.19220  0.34380  0.02650  1.0000 0.1385009204
H   H24       1.0  0.02650  0.19220  0.34380  1.0000 0.1385009204
H   H25       1.0  0.99770  0.78960  0.69850  1.0000 0.1302066625
H   H26       1.0  0.78960  0.69850  0.99770  1.0000 0.1302066625
H   H27       1.0  0.69850  0.99770  0.78960  1.0000 0.1302066625
H   H28       1.0  0.49770  0.19850  0.28960  1.0000 0.1302066625
H   H29       1.0  0.28960  0.49770  0.19850  1.0000 0.1302066625
H   H30       1.0  0.19850  0.28960  0.49770  1.0000 0.1302066625
H   H31       1.0  0.02210  0.58340  0.57460  1.0000 0.1302066625
H   H32       1.0  0.58340  0.57460  0.02210  1.0000 0.1302066625
H   H33       1.0  0.57460  0.02210  0.58340  1.0000 0.1302066625
H   H34       1.0  0.52210  0.07460  0.08340  1.0000 0.1302066625
H   H35       1.0  0.08340  0.52210  0.07460  1.0000 0.1302066625
H   H36       1.0  0.07460  0.08340  0.52210  1.0000 0.1302066625
C   C1        1.0  0.68170  0.40470  0.16670  1.0000 0.087213872
C   C2        1.0  0.40470  0.16670  0.68170  1.0000 0.087213872
C   C3        1.0  0.16670  0.68170  0.40470  1.0000 0.087213872
C   C4        1.0  0.18170  0.66667  0.90470  1.0000 0.087213872
C   C5        1.0  0.90470  0.18170  0.66667  1.0000 0.087213872
C   C6        1.0  0.66667  0.90470  0.18170  1.0000 0.087213872
C   C7        1.0  0.62540  0.43100  0.13400  1.0000 -0.0624540669
C   C8        1.0  0.43100  0.13400  0.62540  1.0000 -0.0624540669
C   C9        1.0  0.13400  0.62540  0.43100  1.0000 -0.0624540669
C   C10       1.0  0.12540  0.63400  0.93100  1.0000 -0.0624540669
C   C11       1.0  0.93100  0.12540  0.63400  1.0000 -0.0624540669
C   C12       1.0  0.63400  0.93100  0.12540  1.0000 -0.0624540669
C   C13       1.0  0.63980  0.50830  0.20880  1.0000 -0.0261484814
C   C14       1.0  0.50830  0.20880  0.63980  1.0000 -0.0261484814
C   C15       1.0  0.20880  0.63980  0.50830  1.0000 -0.0261484814
C   C16       1.0  0.13980  0.70880  0.00830  1.0000 -0.0261484814
C   C17       1.0  0.00830  0.13980  0.70880  1.0000 -0.0261484814
C   C18       1.0  0.70880  0.00830  0.13980  1.0000 -0.0229612883
C   C19       1.0  0.71160  0.55820  0.31270  1.0000 -0.1622091054
C   C20       1.0  0.55820  0.31270  0.71160  1.0000 -0.1622091054
C   C21       1.0  0.31270  0.71160  0.55820  1.0000 -0.1622091054
C   C22       1.0  0.21160  0.81270  0.05820  1.0000 -0.1622091054
C   C23       1.0  0.05820  0.21160  0.81270  1.0000 -0.1622091054
C   C24       1.0  0.81270  0.05820  0.21160  1.0000 -0.1622091054
C   C25       1.0  0.76720  0.53020  0.34120  1.0000 0.1705780408
C   C26       1.0  0.53020  0.34120  0.76720  1.0000 0.1705780408
C   C27       1.0  0.34120  0.76720  0.53020  1.0000 0.1705780408
C   C28       1.0  0.26720  0.84120  0.03020  1.0000 0.1705780408
C   C29       1.0  0.03020  0.26720  0.84120  1.0000 0.1705780408
C   C30       1.0  0.84120  0.03020  0.26720  1.0000 0.1705780408
C   C31       1.0  0.85235  0.58655  0.45260  1.0000 0.1784930459
C   C32       1.0  0.58655  0.45260  0.85235  1.0000 0.1784930459
C   C33       1.0  0.45260  0.85235  0.58655  1.0000 0.1784930459
C   C34       1.0  0.35235  0.95260  0.08655  1.0000 0.1784930459
C   C35       1.0  0.08655  0.35235  0.95260  1.0000 0.1784930459
C   C36       1.0  0.95260  0.08655  0.35235  1.0000 0.1784930459
C   C37       1.0  0.88270  0.67260  0.53720  1.0000 -0.1725898404
C   C38       1.0  0.67260  0.53720  0.88270  1.0000 -0.1725898404
C   C39       1.0  0.53720  0.88270  0.67260  1.0000 -0.1725898404
C   C40       1.0  0.38270  0.03720  0.17260  1.0000 -0.1725898404
C   C41       1.0  0.17260  0.38270  0.03720  1.0000 -0.1725898404
C   C42       1.0  0.03720  0.17260  0.38270  1.0000 -0.1725898404
C   C43       1.0  0.97370  0.72970  0.63960  1.0000 -0.0229612883
C   C44       1.0  0.72970  0.63960  0.97370  1.0000 -0.0229612883
C   C45       1.0  0.63960  0.97370  0.72970  1.0000 -0.0229612883
C   C46       1.0  0.47370  0.13960  0.22970  1.0000 -0.0229612883
C   C47       1.0  0.22970  0.47370  0.13960  1.0000 -0.0229612883
C   C48       1.0  0.13960  0.22970  0.47370  1.0000 -0.0229612883
C   C49       1.0  0.02750  0.69760  0.65330  1.0000 -0.0624540669
C   C50       1.0  0.69760  0.65330  0.02750  1.0000 -0.0624540669
C   C51       1.0  0.65330  0.02750  0.69760  1.0000 -0.0624540669
C   C52       1.0  0.52750  0.15330  0.19760  1.0000 -0.0624540669
C   C53       1.0  0.19760  0.52750  0.15330  1.0000 -0.0624540669
C   C54       1.0  0.15330  0.19760  0.52750  1.0000 -0.0624540669
C   C55       1.0  0.98719  0.60732  0.56549  1.0000 0.0722083753
C   C56       1.0  0.60732  0.56549  0.98719  1.0000 0.0722083753
C   C57       1.0  0.56549  0.98719  0.60732  1.0000 0.0722083753
C   C58       1.0  0.48719  0.06549  0.10732  1.0000 0.0722083753
C   C59       1.0  0.10732  0.48719  0.06549  1.0000 0.0722083753
C   C60       1.0  0.06549  0.10732  0.48719  1.0000 0.0722083753
C   C61       1.0  0.55290  0.37600  0.02000  1.0000 0.5502713552
C   C62       1.0  0.37600  0.02000  0.55290  1.0000 0.5502713552
C   C63       1.0  0.02000  0.55290  0.37600  1.0000 0.5502713552
C   C64       1.0  0.05290  0.52000  0.87600  1.0000 0.5502713552
C   C65       1.0  0.87600  0.05290  0.52000  1.0000 0.5502713552
C   C66       1.0  0.52000  0.87600  0.05290  1.0000 0.5502713552
C   C67       1.0  0.13090  0.76190  0.76190  1.0000 0.5502713552
C   C68       1.0  0.76190  0.76190  0.13090  1.0000 0.5502713552
C   C69       1.0  0.76190  0.13090  0.76190  1.0000 0.5502713552
C   C70       1.0  0.63090  0.26190  0.26190  1.0000 0.5502713552
C   C71       1.0  0.26190  0.63090  0.26190  1.0000 0.5502713552
C   C72       1.0  0.26190  0.26190  0.63090  1.0000 0.5502713552
N   N1        1.0  0.75061  0.45272  0.26847  1.0000 -0.2581199327
N   N2        1.0  0.45272  0.26847  0.75061  1.0000 -0.2581199327
N   N3        1.0  0.26847  0.75061  0.45272  1.0000 -0.2581199327
N   N4        1.0  0.25061  0.76847  0.95272  1.0000 -0.2581199327
N   N5        1.0  0.95272  0.25061  0.76847  1.0000 -0.2581199327
N   N6        1.0  0.76847  0.95272  0.25061  1.0000 -0.2581199327
N   N7        1.0  0.90076  0.55165  0.46759  1.0000 -0.2581199327
N   N8        1.0  0.55165  0.46759  0.90076  1.0000 -0.2581199327
N   N9        1.0  0.46759  0.90076  0.55165  1.0000 -0.2581199327
N   N10       1.0  0.40076  0.96759  0.05165  1.0000 -0.2581199327
N   N11       1.0  0.05165  0.40076  0.96759  1.0000 -0.2581199327
N   N12       1.0  0.96759  0.05165  0.40076  1.0000 -0.2581199327
N   N13       1.0  0.79490  0.24740  0.15320  1.0000 0.665988349
N   N14       1.0  0.24740  0.15320  0.79490  1.0000 0.665988349
N   N15       1.0  0.15320  0.79490  0.24740  1.0000 0.665988349
N   N16       1.0  0.29490  0.65320  0.74740  1.0000 0.665988349
N   N17       1.0  0.74740  0.29490  0.65320  1.0000 0.665988349
N   N18       1.0  0.65320  0.74740  0.29490  1.0000 0.665988349
O   O1        1.0  0.55720  0.32440  0.96050  1.0000 -0.4896636376
O   O2        1.0  0.32440  0.96050  0.55720  1.0000 -0.4896636376
O   O3        1.0  0.96050  0.55720  0.32440  1.0000 -0.4896636376
O   O4        1.0  0.05720  0.46050  0.82440  1.0000 -0.4896636376
O   O5        1.0  0.82440  0.05720  0.46050  1.0000 -0.4896636376
O   O6        1.0  0.46050  0.82440  0.05720  1.0000 -0.4896636376
O   O7        1.0  0.48945  0.38990  0.99155  1.0000 -0.5253243813
O   O8        1.0  0.38990  0.99155  0.48945  1.0000 -0.5253243813
O   O9        1.0  0.99155  0.48945  0.38990  1.0000 -0.5193157137
O   O10       1.0  0.98945  0.49155  0.88990  1.0000 -0.5253243813
O   O11       1.0  0.88990  0.98945  0.49155  1.0000 -0.5253243813
O   O12       1.0  0.49155  0.88990  0.98945  1.0000 -0.5253243813
O   O13       1.0  0.17779  0.72985  0.75966  1.0000 -0.5193157137
O   O14       1.0  0.72985  0.75966  0.17779  1.0000 -0.5193157137
O   O15       1.0  0.75966  0.17779  0.72985  1.0000 -0.5193157137
O   O16       1.0  0.67779  0.25966  0.22985  1.0000 -0.5193157137
O   O17       1.0  0.22985  0.67779  0.25966  1.0000 -0.5193157137
O   O18       1.0  0.25966  0.22985  0.67779  1.0000 -0.5193157137
O   O19       1.0  0.16310  0.83800  0.84080  1.0000 -0.5046019325
O   O20       1.0  0.83800  0.84080  0.16310  1.0000 -0.5052073368
O   O21       1.0  0.84080  0.16310  0.83800  1.0000 -0.5046019325
O   O22       1.0  0.66310  0.34080  0.33800  1.0000 -0.5052073368
O   O23       1.0  0.33800  0.66310  0.34080  1.0000 -0.5052073368
O   O24       1.0  0.34080  0.33800  0.66310  1.0000 -0.5046019325
O   O25       1.0  0.82770  0.25390  0.22640  1.0000 -0.3874209393
O   O26       1.0  0.25390  0.22640  0.82770  1.0000 -0.3874209393
O   O27       1.0  0.22640  0.82770  0.25390  1.0000 -0.3874209393
O   O28       1.0  0.32770  0.72640  0.75390  1.0000 -0.3874209393
O   O29       1.0  0.75390  0.32770  0.72640  1.0000 -0.3874209393
O   O30       1.0  0.72640  0.75390  0.32770  1.0000 -0.3874209393
O   O31       1.0  0.78300  0.31250  0.16000  1.0000 -0.439487792
O   O32       1.0  0.31250  0.16000  0.78300  1.0000 -0.4343338975
O   O33       1.0  0.16000  0.78300  0.31250  1.0000 -0.4343338975
O   O34       1.0  0.28300  0.66000  0.81250  1.0000 -0.4343338975
O   O35       1.0  0.81250  0.28300  0.66000  1.0000 -0.4343338975
O   O36       1.0  0.66000  0.81250  0.28300  1.0000 -0.4343338975
O   O37       1.0  0.77240  0.18290  0.07130  1.0000 -0.3682202169
O   O38       1.0  0.18290  0.07130  0.77240  1.0000 -0.3682202169
O   O39       1.0  0.07130  0.77240  0.18290  1.0000 -0.3682202169
O   O40       1.0  0.27240  0.57130  0.68290  1.0000 -0.3682202169
O   O41       1.0  0.68290  0.27240  0.57130  1.0000 -0.3682202169
O   O42       1.0  0.57130  0.68290  0.27240  1.0000 -0.3682202169
