# DDEC6 charges by PACMAN v1.1 (https://github.com/mtap-research/PACMAN-charge/)
data_2014[Cu][acs]3[ASR]1
_chemical_formula_sum              "Cu6 H18 C18 O36"
_cell_length_a       7.3192
_cell_length_b       7.3192
_cell_length_c       24.381
_cell_angle_alpha    90
_cell_angle_beta     90
_cell_angle_gamma    120

_symmetry_space_group_name_H-M    "P 1"
_symmetry_Int_Tables_number       1

loop_
  _symmetry_equiv_pos_as_xyz
  'x, y, z'

loop_
  _atom_site_type_symbol
  _atom_site_label
  _atom_site_symmetry_multiplicity
  _atom_site_fract_x
  _atom_site_fract_y
  _atom_site_fract_z
  _atom_site_occupancy
  _atom_site_charge
Cu  Cu1       1.0  0.36459  0.68229  0.08333  1.0000 0.9222231784
Cu  Cu2       1.0  0.31771  0.68229  0.41667  1.0000 0.9222231784
Cu  Cu3       1.0  0.31771  0.63541  0.75000  1.0000 0.9222231784
Cu  Cu4       1.0  0.63541  0.31771  0.58333  1.0000 0.9222231784
Cu  Cu5       1.0  0.68229  0.31771  0.91667  1.0000 0.9222231784
Cu  Cu6       1.0  0.68229  0.36459  0.25000  1.0000 0.9222231784
H   H1        1.0  0.59970  0.59970  0.16667  1.0000 0.1231548467
H   H2        1.0  0.40030  0.00000  0.50000  1.0000 0.1231548467
H   H3        1.0  0.00000  0.40030  0.83333  1.0000 0.1231548467
H   H4        1.0  0.40030  0.40030  0.66667  1.0000 0.1231548467
H   H5        1.0  0.59970  0.00000  0.00000  1.0000 0.1231548467
H   H6        1.0  0.00000  0.59970  0.33333  1.0000 0.1231548467
H   H7        1.0  0.02960  0.55720  0.99780  1.0000 0.1276083158
H   H8        1.0  0.44280  0.47240  0.33113  1.0000 0.1276083158
H   H9        1.0  0.52760  0.97040  0.66447  1.0000 0.1276083158
H   H10       1.0  0.97040  0.44280  0.49780  1.0000 0.1276083158
H   H11       1.0  0.55720  0.52760  0.83113  1.0000 0.1276083158
H   H12       1.0  0.47240  0.02960  0.16447  1.0000 0.1276083158
H   H13       1.0  0.55720  0.02960  0.33553  1.0000 0.1276083158
H   H14       1.0  0.47240  0.44280  0.00220  1.0000 0.1276083158
H   H15       1.0  0.97040  0.52760  0.66887  1.0000 0.1276083158
H   H16       1.0  0.44280  0.97040  0.83553  1.0000 0.1276083158
H   H17       1.0  0.52760  0.55720  0.50220  1.0000 0.1276083158
H   H18       1.0  0.02960  0.47240  0.16887  1.0000 0.1276083158
C   C1        1.0  0.47270  0.47270  0.16667  1.0000 0.4987454492
C   C2        1.0  0.52730  0.00000  0.50000  1.0000 0.4987454492
C   C3        1.0  0.00000  0.52730  0.83333  1.0000 0.4987454492
C   C4        1.0  0.52730  0.52730  0.66667  1.0000 0.4987454492
C   C5        1.0  0.47270  0.00000  0.00000  1.0000 0.4987454492
C   C6        1.0  0.00000  0.47270  0.33333  1.0000 0.4987454492
C   C7        1.0  0.03140  0.43110  0.99900  1.0000 0.4987454492
C   C8        1.0  0.56890  0.60030  0.33233  1.0000 0.4987454492
C   C9        1.0  0.39970  0.96860  0.66567  1.0000 0.4987454492
C   C10       1.0  0.96860  0.56890  0.49900  1.0000 0.4987454492
C   C11       1.0  0.43110  0.39970  0.83233  1.0000 0.4987454492
C   C12       1.0  0.60030  0.03140  0.16567  1.0000 0.4987454492
C   C13       1.0  0.43110  0.03140  0.33433  1.0000 0.4987454492
C   C14       1.0  0.60030  0.56890  0.00100  1.0000 0.4987454492
C   C15       1.0  0.96860  0.39970  0.66767  1.0000 0.4987454492
C   C16       1.0  0.56890  0.96860  0.83433  1.0000 0.4987454492
C   C17       1.0  0.39970  0.43110  0.50100  1.0000 0.4987454492
C   C18       1.0  0.03140  0.60030  0.16767  1.0000 0.4987454492
O   O1        1.0  0.33810  0.45140  0.13246  1.0000 -0.4548029325
O   O2        1.0  0.54860  0.88670  0.46579  1.0000 -0.4548029325
O   O3        1.0  0.11330  0.66190  0.79913  1.0000 -0.4548029325
O   O4        1.0  0.66190  0.54860  0.63246  1.0000 -0.4548029325
O   O5        1.0  0.45140  0.11330  0.96579  1.0000 -0.4548029325
O   O6        1.0  0.88670  0.33810  0.29913  1.0000 -0.4548029325
O   O7        1.0  0.45140  0.33810  0.20087  1.0000 -0.4548029325
O   O8        1.0  0.88670  0.54860  0.86754  1.0000 -0.4548029325
O   O9        1.0  0.66190  0.11330  0.53421  1.0000 -0.4548029325
O   O10       1.0  0.54860  0.66190  0.70087  1.0000 -0.4548029325
O   O11       1.0  0.11330  0.45140  0.36754  1.0000 -0.4548029325
O   O12       1.0  0.33810  0.88670  0.03421  1.0000 -0.4548029325
O   O13       1.0  0.92120  0.29790  0.96440  1.0000 -0.4841416102
O   O14       1.0  0.70210  0.62330  0.29773  1.0000 -0.4841416102
O   O15       1.0  0.37670  0.07880  0.63107  1.0000 -0.4841416102
O   O16       1.0  0.07880  0.70210  0.46440  1.0000 -0.4841416102
O   O17       1.0  0.29790  0.37670  0.79773  1.0000 -0.4841416102
O   O18       1.0  0.62330  0.92120  0.13107  1.0000 -0.4841416102
O   O19       1.0  0.29790  0.92120  0.36893  1.0000 -0.4841416102
O   O20       1.0  0.62330  0.70210  0.03560  1.0000 -0.4841416102
O   O21       1.0  0.07880  0.37670  0.70227  1.0000 -0.4841416102
O   O22       1.0  0.70210  0.07880  0.86893  1.0000 -0.4841416102
O   O23       1.0  0.37670  0.29790  0.53560  1.0000 -0.4841416102
O   O24       1.0  0.92120  0.62330  0.20227  1.0000 -0.4841416102
O   O25       1.0  0.14090  0.41950  0.03423  1.0000 -0.4594709596
O   O26       1.0  0.58050  0.72140  0.36756  1.0000 -0.4594709596
O   O27       1.0  0.27860  0.85910  0.70090  1.0000 -0.4594709596
O   O28       1.0  0.85910  0.58050  0.53423  1.0000 -0.4594709596
O   O29       1.0  0.41950  0.27860  0.86756  1.0000 -0.4594709596
O   O30       1.0  0.72140  0.14090  0.20090  1.0000 -0.4594709596
O   O31       1.0  0.41950  0.14090  0.29910  1.0000 -0.4594709596
O   O32       1.0  0.72140  0.58050  0.96577  1.0000 -0.4594709596
O   O33       1.0  0.85910  0.27860  0.63244  1.0000 -0.4594709596
O   O34       1.0  0.58050  0.85910  0.79910  1.0000 -0.4594709596
O   O35       1.0  0.27860  0.41950  0.46577  1.0000 -0.4594709596
O   O36       1.0  0.14090  0.72140  0.13244  1.0000 -0.4594709596
