# DDEC6 charges by PACMAN v1.1 (https://github.com/mtap-research/PACMAN-charge/)
data_2014[Zn][pcu]3[ASR]12
_chemical_formula_sum              "Zn8 H24 C48 O26"
_cell_length_a       18.0703
_cell_length_b       18.0703
_cell_length_c       18.0703
_cell_angle_alpha    60
_cell_angle_beta     60
_cell_angle_gamma    60

_symmetry_space_group_name_H-M    "P 1"
_symmetry_Int_Tables_number       1

loop_
  _symmetry_equiv_pos_as_xyz
  'x, y, z'

loop_
  _atom_site_type_symbol
  _atom_site_label
  _atom_site_symmetry_multiplicity
  _atom_site_fract_x
  _atom_site_fract_y
  _atom_site_fract_z
  _atom_site_occupancy
  _atom_site_charge
Zn  Zn1       1.0  0.29350  0.29350  0.29350  1.0000 0.9408208768
Zn  Zn2       1.0  0.29350  0.29350  0.11950  1.0000 0.9408208768
Zn  Zn3       1.0  0.29350  0.11950  0.29350  1.0000 0.9408208768
Zn  Zn4       1.0  0.11950  0.29350  0.29350  1.0000 0.9408208768
Zn  Zn5       1.0  0.70650  0.70650  0.70650  1.0000 0.9408208768
Zn  Zn6       1.0  0.70650  0.70650  0.88050  1.0000 0.9408208768
Zn  Zn7       1.0  0.88050  0.70650  0.70650  1.0000 0.9408208768
Zn  Zn8       1.0  0.70650  0.88050  0.70650  1.0000 0.9408208768
H   H1        1.0  0.45110  0.45110  0.92847  1.0000 0.1079945661
H   H2        1.0  0.45110  0.45110  0.16934  1.0000 0.1079945661
H   H3        1.0  0.92847  0.16934  0.45110  1.0000 0.1079945661
H   H4        1.0  0.16934  0.92847  0.45110  1.0000 0.1079945661
H   H5        1.0  0.45110  0.92847  0.16934  1.0000 0.1079945661
H   H6        1.0  0.45110  0.16934  0.92847  1.0000 0.1079945661
H   H7        1.0  0.92847  0.45110  0.45110  1.0000 0.1079945661
H   H8        1.0  0.16934  0.45110  0.45110  1.0000 0.1079945661
H   H9        1.0  0.45110  0.16934  0.45110  1.0000 0.1079945661
H   H10       1.0  0.45110  0.92847  0.45110  1.0000 0.1079945661
H   H11       1.0  0.92847  0.45110  0.16934  1.0000 0.1079945661
H   H12       1.0  0.16934  0.45110  0.92847  1.0000 0.1079945661
H   H13       1.0  0.54890  0.54890  0.07153  1.0000 0.1079945661
H   H14       1.0  0.54890  0.54890  0.83066  1.0000 0.1079945661
H   H15       1.0  0.83066  0.07153  0.54890  1.0000 0.1079945661
H   H16       1.0  0.07153  0.83066  0.54890  1.0000 0.1079945661
H   H17       1.0  0.07153  0.54890  0.83066  1.0000 0.1079945661
H   H18       1.0  0.83066  0.54890  0.07153  1.0000 0.1079945661
H   H19       1.0  0.54890  0.07153  0.54890  1.0000 0.1079945661
H   H20       1.0  0.54890  0.83066  0.54890  1.0000 0.1079945661
H   H21       1.0  0.83066  0.54890  0.54890  1.0000 0.1079945661
H   H22       1.0  0.07153  0.54890  0.54890  1.0000 0.1079945661
H   H23       1.0  0.54890  0.07153  0.83066  1.0000 0.1079945661
H   H24       1.0  0.54890  0.83066  0.07153  1.0000 0.1079945661
C   C1        1.0  0.47340  0.47340  0.96080  1.0000 -0.0782343295
C   C2        1.0  0.47340  0.47340  0.09240  1.0000 -0.0782343295
C   C3        1.0  0.96080  0.09240  0.47340  1.0000 -0.0782343295
C   C4        1.0  0.09240  0.96080  0.47340  1.0000 -0.0782343295
C   C5        1.0  0.47340  0.96080  0.09240  1.0000 -0.0782343295
C   C6        1.0  0.47340  0.09240  0.96080  1.0000 -0.0782343295
C   C7        1.0  0.96080  0.47340  0.47340  1.0000 -0.0782343295
C   C8        1.0  0.09240  0.47340  0.47340  1.0000 -0.0782343295
C   C9        1.0  0.47340  0.09240  0.47340  1.0000 -0.0782343295
C   C10       1.0  0.47340  0.96080  0.47340  1.0000 -0.0782343295
C   C11       1.0  0.96080  0.47340  0.09240  1.0000 -0.0782343295
C   C12       1.0  0.09240  0.47340  0.96080  1.0000 -0.0782343295
C   C13       1.0  0.52660  0.52660  0.03920  1.0000 -0.0782343295
C   C14       1.0  0.52660  0.52660  0.90760  1.0000 -0.0782343295
C   C15       1.0  0.90760  0.03920  0.52660  1.0000 -0.0782343295
C   C16       1.0  0.03920  0.90760  0.52660  1.0000 -0.0782343295
C   C17       1.0  0.03920  0.52660  0.90760  1.0000 -0.0782343295
C   C18       1.0  0.90760  0.52660  0.03920  1.0000 -0.0782343295
C   C19       1.0  0.52660  0.03920  0.52660  1.0000 -0.0782343295
C   C20       1.0  0.52660  0.90760  0.52660  1.0000 -0.0782343295
C   C21       1.0  0.90760  0.52660  0.52660  1.0000 -0.0782343295
C   C22       1.0  0.03920  0.52660  0.52660  1.0000 -0.0782343295
C   C23       1.0  0.52660  0.03920  0.90760  1.0000 -0.0782343295
C   C24       1.0  0.52660  0.90760  0.03920  1.0000 -0.0782343295
C   C25       1.0  0.38820  0.38820  0.11180  1.0000 0.5995622691
C   C26       1.0  0.44590  0.44590  0.05410  1.0000 -0.0438632713
C   C27       1.0  0.11180  0.11180  0.38820  1.0000 0.5995622691
C   C28       1.0  0.05410  0.05410  0.44590  1.0000 -0.0438632713
C   C29       1.0  0.38820  0.11180  0.11180  1.0000 0.5995622691
C   C30       1.0  0.44590  0.05410  0.05410  1.0000 -0.0438632713
C   C31       1.0  0.11180  0.38820  0.38820  1.0000 0.5995622691
C   C32       1.0  0.05410  0.44590  0.44590  1.0000 -0.0438632713
C   C33       1.0  0.38820  0.11180  0.38820  1.0000 0.5995622691
C   C34       1.0  0.44590  0.05410  0.44590  1.0000 -0.0438632713
C   C35       1.0  0.11180  0.38820  0.11180  1.0000 0.5995622691
C   C36       1.0  0.05410  0.44590  0.05410  1.0000 -0.0438632713
C   C37       1.0  0.61180  0.61180  0.88820  1.0000 0.5995622691
C   C38       1.0  0.55410  0.55410  0.94590  1.0000 -0.0438632713
C   C39       1.0  0.88820  0.88820  0.61180  1.0000 0.5995622691
C   C40       1.0  0.94590  0.94590  0.55410  1.0000 -0.0438632713
C   C41       1.0  0.88820  0.61180  0.88820  1.0000 0.5995622691
C   C42       1.0  0.94590  0.55410  0.94590  1.0000 -0.0438632713
C   C43       1.0  0.61180  0.88820  0.61180  1.0000 0.5995622691
C   C44       1.0  0.55410  0.94590  0.55410  1.0000 -0.0438632713
C   C45       1.0  0.88820  0.61180  0.61180  1.0000 0.5995622691
C   C46       1.0  0.94590  0.55410  0.55410  1.0000 -0.0438632713
C   C47       1.0  0.61180  0.88820  0.88820  1.0000 0.5995622691
C   C48       1.0  0.55410  0.94590  0.94590  1.0000 -0.0438632713
O   O1        1.0  0.25000  0.25000  0.25000  1.0000 -1.0175239627
O   O2        1.0  0.75000  0.75000  0.75000  1.0000 -1.0175239627
O   O3        1.0  0.36569  0.36569  0.19789  1.0000 -0.5364230309
O   O4        1.0  0.36569  0.36569  0.07073  1.0000 -0.5364230309
O   O5        1.0  0.19789  0.07073  0.36569  1.0000 -0.5364230309
O   O6        1.0  0.07073  0.19789  0.36569  1.0000 -0.5364230309
O   O7        1.0  0.36569  0.19789  0.07073  1.0000 -0.5364230309
O   O8        1.0  0.36569  0.07073  0.19789  1.0000 -0.5364230309
O   O9        1.0  0.19789  0.36569  0.36569  1.0000 -0.5364230309
O   O10       1.0  0.07073  0.36569  0.36569  1.0000 -0.5364230309
O   O11       1.0  0.36569  0.07073  0.36569  1.0000 -0.5364230309
O   O12       1.0  0.36569  0.19789  0.36569  1.0000 -0.5364230309
O   O13       1.0  0.19789  0.36569  0.07073  1.0000 -0.5364230309
O   O14       1.0  0.07073  0.36569  0.19789  1.0000 -0.5364230309
O   O15       1.0  0.63431  0.63431  0.80211  1.0000 -0.5364230309
O   O16       1.0  0.63431  0.63431  0.92927  1.0000 -0.5364230309
O   O17       1.0  0.92927  0.80211  0.63431  1.0000 -0.5364230309
O   O18       1.0  0.80211  0.92927  0.63431  1.0000 -0.5364230309
O   O19       1.0  0.80211  0.63431  0.92927  1.0000 -0.5364230309
O   O20       1.0  0.92927  0.63431  0.80211  1.0000 -0.5364230309
O   O21       1.0  0.63431  0.80211  0.63431  1.0000 -0.5364230309
O   O22       1.0  0.63431  0.92927  0.63431  1.0000 -0.5364230309
O   O23       1.0  0.92927  0.63431  0.63431  1.0000 -0.5364230309
O   O24       1.0  0.80211  0.63431  0.63431  1.0000 -0.5364230309
O   O25       1.0  0.63431  0.80211  0.92927  1.0000 -0.5364230309
O   O26       1.0  0.63431  0.92927  0.80211  1.0000 -0.5364230309
