# DDEC6 charges by PACMAN v1.1 (https://github.com/mtap-research/PACMAN-charge/)
data_2014[Cd][nan]3[ASR]3
_chemical_formula_sum              "Cd8 H72 C124 N24 O32"
_cell_length_a       13.3294
_cell_length_b       16.202
_cell_length_c       20.283
_cell_angle_alpha    90
_cell_angle_beta     99.496
_cell_angle_gamma    90

_symmetry_space_group_name_H-M    "P 1"
_symmetry_Int_Tables_number       1

loop_
  _symmetry_equiv_pos_as_xyz
  'x, y, z'

loop_
  _atom_site_type_symbol
  _atom_site_label
  _atom_site_symmetry_multiplicity
  _atom_site_fract_x
  _atom_site_fract_y
  _atom_site_fract_z
  _atom_site_occupancy
  _atom_site_charge
Cd  Cd1       1.0  0.67568  0.50194  0.64213  1.0000 0.8322892625
Cd  Cd2       1.0  0.32432  0.00194  0.85787  1.0000 0.8322892625
Cd  Cd3       1.0  0.32432  0.49806  0.35787  1.0000 0.8322892625
Cd  Cd4       1.0  0.67568  0.99806  0.14213  1.0000 0.8322892625
Cd  Cd5       1.0  0.96978  0.69844  0.26484  1.0000 0.8848115344
Cd  Cd6       1.0  0.03022  0.19844  0.23516  1.0000 0.8848115344
Cd  Cd7       1.0  0.03022  0.30156  0.73516  1.0000 0.8848115344
Cd  Cd8       1.0  0.96978  0.80156  0.76484  1.0000 0.8848115344
H   H1        1.0  0.85590  0.58830  0.47210  1.0000 0.1212663389
H   H2        1.0  0.14410  0.08830  0.02790  1.0000 0.1212663389
H   H3        1.0  0.14410  0.41170  0.52790  1.0000 0.1212663389
H   H4        1.0  0.85590  0.91170  0.97210  1.0000 0.1212663389
H   H5        1.0  0.14940  0.65170  0.48620  1.0000 0.110374832
H   H6        1.0  0.85060  0.15170  0.01380  1.0000 0.110374832
H   H7        1.0  0.85060  0.34830  0.51380  1.0000 0.110374832
H   H8        1.0  0.14940  0.84830  0.98620  1.0000 0.110374832
H   H9        1.0  0.03990  0.58340  0.64850  1.0000 0.1212663389
H   H10       1.0  0.96010  0.08340  0.85150  1.0000 0.1212663389
H   H11       1.0  0.96010  0.41660  0.35150  1.0000 0.1212663389
H   H12       1.0  0.03990  0.91660  0.14850  1.0000 0.1212663389
H   H13       1.0  0.31150  0.74440  0.74870  1.0000 0.1037957136
H   H14       1.0  0.68850  0.24440  0.75130  1.0000 0.1037957136
H   H15       1.0  0.68850  0.25560  0.25130  1.0000 0.1037957136
H   H16       1.0  0.31150  0.75560  0.24870  1.0000 0.1037957136
H   H17       1.0  0.45790  0.68510  0.72520  1.0000 0.1212663389
H   H18       1.0  0.54210  0.18510  0.77480  1.0000 0.1212663389
H   H19       1.0  0.54210  0.31490  0.27480  1.0000 0.1212663389
H   H20       1.0  0.45790  0.81490  0.22520  1.0000 0.1212663389
H   H21       1.0  0.29810  0.56770  0.56800  1.0000 0.1212663389
H   H22       1.0  0.70190  0.06770  0.93200  1.0000 0.1212663389
H   H23       1.0  0.70190  0.43230  0.43200  1.0000 0.1212663389
H   H24       1.0  0.29810  0.93230  0.06800  1.0000 0.1212663389
H   H25       1.0  0.55420  0.38420  0.52000  1.0000 0.1307865277
H   H26       1.0  0.44580  0.88420  0.98000  1.0000 0.1307865277
H   H27       1.0  0.44580  0.61580  0.48000  1.0000 0.1307865277
H   H28       1.0  0.55420  0.11580  0.02000  1.0000 0.1307865277
H   H29       1.0  0.77350  0.30570  0.65780  1.0000 0.1307865277
H   H30       1.0  0.22650  0.80570  0.84220  1.0000 0.1307865277
H   H31       1.0  0.22650  0.69430  0.34220  1.0000 0.1307865277
H   H32       1.0  0.77350  0.19430  0.15780  1.0000 0.1307865277
H   H33       1.0  0.72750  0.19110  0.58110  1.0000 0.1364396551
H   H34       1.0  0.27250  0.69110  0.91890  1.0000 0.1364396551
H   H35       1.0  0.27250  0.80890  0.41890  1.0000 0.1364396551
H   H36       1.0  0.72750  0.30890  0.08110  1.0000 0.1364396551
H   H37       1.0  0.43200  0.26760  0.48120  1.0000 0.1468610951
H   H38       1.0  0.56800  0.76760  0.01880  1.0000 0.1468610951
H   H39       1.0  0.56800  0.73240  0.51880  1.0000 0.1468610951
H   H40       1.0  0.43200  0.23240  0.98120  1.0000 0.1468610951
H   H41       1.0  0.44410  0.12350  0.31990  1.0000 0.1307865277
H   H42       1.0  0.55590  0.62350  0.18010  1.0000 0.1307865277
H   H43       1.0  0.55590  0.87650  0.68010  1.0000 0.1307865277
H   H44       1.0  0.44410  0.37650  0.81990  1.0000 0.1307865277
H   H45       1.0  0.70070  0.17800  0.44710  1.0000 0.1468610951
H   H46       1.0  0.29930  0.67800  0.05290  1.0000 0.1468610951
H   H47       1.0  0.29930  0.82200  0.55290  1.0000 0.1468610951
H   H48       1.0  0.70070  0.32200  0.94710  1.0000 0.1468610951
H   H49       1.0  0.26330  0.23400  0.46630  1.0000 0.1364396551
H   H50       1.0  0.73670  0.73400  0.03370  1.0000 0.1364396551
H   H51       1.0  0.73670  0.76600  0.53370  1.0000 0.1364396551
H   H52       1.0  0.26330  0.26600  0.96630  1.0000 0.1364396551
H   H53       1.0  0.09360  0.23330  0.39840  1.0000 0.1364396551
H   H54       1.0  0.90640  0.73330  0.10160  1.0000 0.1364396551
H   H55       1.0  0.90640  0.76670  0.60160  1.0000 0.1364396551
H   H56       1.0  0.09360  0.26670  0.89840  1.0000 0.1364396551
H   H57       1.0  0.28400  0.17040  0.28390  1.0000 0.1212663389
H   H58       1.0  0.71600  0.67040  0.21610  1.0000 0.1212663389
H   H59       1.0  0.71600  0.82960  0.71610  1.0000 0.1212663389
H   H60       1.0  0.28400  0.32960  0.78390  1.0000 0.1212663389
H   H61       1.0  0.55390  0.10010  0.24650  1.0000 0.1212663389
H   H62       1.0  0.44610  0.60010  0.25350  1.0000 0.1212663389
H   H63       1.0  0.44610  0.89990  0.75350  1.0000 0.1212663389
H   H64       1.0  0.55390  0.39990  0.74650  1.0000 0.1212663389
H   H65       1.0  0.82410  0.00780  0.30250  1.0000 0.1468610951
H   H66       1.0  0.17590  0.50780  0.19750  1.0000 0.1468610951
H   H67       1.0  0.17590  0.99220  0.69750  1.0000 0.1468610951
H   H68       1.0  0.82410  0.49220  0.80250  1.0000 0.1468610951
H   H69       1.0  0.77130  0.06870  0.39950  1.0000 0.1307865277
H   H70       1.0  0.22870  0.56870  0.10050  1.0000 0.1307865277
H   H71       1.0  0.22870  0.93130  0.60050  1.0000 0.1307865277
H   H72       1.0  0.77130  0.43130  0.89950  1.0000 0.1307865277
C   C1        1.0  0.93450  0.58220  0.56570  1.0000 -0.0190460088
C   C2        1.0  0.06550  0.08220  0.93430  1.0000 -0.0190460088
C   C3        1.0  0.06550  0.41780  0.43430  1.0000 -0.0190460088
C   C4        1.0  0.93450  0.91780  0.06570  1.0000 -0.0190460088
C   C5        1.0  0.91980  0.59700  0.49750  1.0000 -0.1158059995
C   C6        1.0  0.08020  0.09700  0.00250  1.0000 -0.1158059995
C   C7        1.0  0.08020  0.40300  0.50250  1.0000 -0.1158059995
C   C8        1.0  0.91980  0.90300  0.99750  1.0000 -0.1158059995
C   C9        1.0  0.99860  0.62460  0.46660  1.0000 -0.0190460088
C   C10       1.0  0.00140  0.12460  0.03340  1.0000 -0.0190460088
C   C11       1.0  0.00140  0.37540  0.53340  1.0000 -0.0190460088
C   C12       1.0  0.99860  0.87540  0.96660  1.0000 -0.0190460088
C   C13       1.0  0.09500  0.63520  0.50640  1.0000 -0.1393171063
C   C14       1.0  0.90500  0.13520  0.99360  1.0000 -0.1393171063
C   C15       1.0  0.90500  0.36480  0.49360  1.0000 -0.1393171063
C   C16       1.0  0.09500  0.86480  0.00640  1.0000 -0.1393171063
C   C17       1.0  0.11050  0.62170  0.57400  1.0000 0.0684732821
C   C18       1.0  0.88950  0.12170  0.92600  1.0000 0.0684732821
C   C19       1.0  0.88950  0.37830  0.42600  1.0000 0.0684732821
C   C20       1.0  0.11050  0.87830  0.07400  1.0000 0.0684732821
C   C21       1.0  0.02970  0.59420  0.60290  1.0000 -0.1393171063
C   C22       1.0  0.97030  0.09420  0.89710  1.0000 -0.1393171063
C   C23       1.0  0.97030  0.40580  0.39710  1.0000 -0.1393171063
C   C24       1.0  0.02970  0.90580  0.10290  1.0000 -0.1393171063
C   C25       1.0  0.21150  0.64010  0.61700  1.0000 0.0540180158
C   C26       1.0  0.78850  0.14010  0.88300  1.0000 0.0540180158
C   C27       1.0  0.78850  0.35990  0.38300  1.0000 0.0540180158
C   C28       1.0  0.21150  0.85990  0.11700  1.0000 0.0540180158
C   C29       1.0  0.21570  0.69420  0.67120  1.0000 -0.0479480337
C   C30       1.0  0.78430  0.19420  0.82880  1.0000 -0.0479480337
C   C31       1.0  0.78430  0.30580  0.32880  1.0000 -0.0479480337
C   C32       1.0  0.21570  0.80580  0.17120  1.0000 -0.0479480337
C   C33       1.0  0.30870  0.70960  0.71190  1.0000 -0.1393171063
C   C34       1.0  0.69130  0.20960  0.78810  1.0000 -0.1393171063
C   C35       1.0  0.69130  0.29040  0.28810  1.0000 -0.1393171063
C   C36       1.0  0.30870  0.79040  0.21190  1.0000 -0.1393171063
C   C37       1.0  0.39610  0.67370  0.69810  1.0000 -0.1275511693
C   C38       1.0  0.60390  0.17370  0.80190  1.0000 -0.1275511693
C   C39       1.0  0.60390  0.32630  0.30190  1.0000 -0.1275511693
C   C40       1.0  0.39610  0.82630  0.19810  1.0000 -0.1275511693
C   C41       1.0  0.39350  0.62100  0.64440  1.0000 -0.0190460088
C   C42       1.0  0.60650  0.12100  0.85560  1.0000 -0.0190460088
C   C43       1.0  0.60650  0.37900  0.35560  1.0000 -0.0190460088
C   C44       1.0  0.39350  0.87900  0.14440  1.0000 -0.0190460088
C   C45       1.0  0.30040  0.60380  0.60390  1.0000 -0.1648199718
C   C46       1.0  0.69960  0.10380  0.89610  1.0000 -0.1648199718
C   C47       1.0  0.69960  0.39620  0.39610  1.0000 -0.1648199718
C   C48       1.0  0.30040  0.89620  0.10390  1.0000 -0.1648199718
C   C49       1.0  0.84690  0.55490  0.59840  1.0000 0.5398231883
C   C50       1.0  0.15310  0.05490  0.90160  1.0000 0.5398231883
C   C51       1.0  0.15310  0.44510  0.40160  1.0000 0.5398231883
C   C52       1.0  0.84690  0.94510  0.09840  1.0000 0.5398231883
C   C53       1.0  0.98030  0.64830  0.39450  1.0000 0.5398231883
C   C54       1.0  0.01970  0.14830  0.10550  1.0000 0.5398231883
C   C55       1.0  0.01970  0.35170  0.60550  1.0000 0.5398231883
C   C56       1.0  0.98030  0.85170  0.89450  1.0000 0.5398231883
C   C57       1.0  0.12500  0.74070  0.68790  1.0000 0.5459693212
C   C58       1.0  0.87500  0.24070  0.81210  1.0000 0.5459693212
C   C59       1.0  0.87500  0.25930  0.31210  1.0000 0.5459693212
C   C60       1.0  0.12500  0.75930  0.18790  1.0000 0.5459693212
C   C61       1.0  0.49170  0.58130  0.63340  1.0000 0.5270648737
C   C62       1.0  0.50830  0.08130  0.86660  1.0000 0.5270648737
C   C63       1.0  0.50830  0.41870  0.36660  1.0000 0.5270648737
C   C64       1.0  0.49170  0.91870  0.13340  1.0000 0.5270648737
C   C65       1.0  0.60310  0.35080  0.54480  1.0000 0.1212663389
C   C66       1.0  0.39690  0.85080  0.95520  1.0000 0.1212663389
C   C67       1.0  0.39690  0.64920  0.45520  1.0000 0.1212663389
C   C68       1.0  0.60310  0.14920  0.04480  1.0000 0.1212663389
C   C69       1.0  0.72300  0.30690  0.62020  1.0000 -0.0190460088
C   C70       1.0  0.27700  0.80690  0.87980  1.0000 -0.0190460088
C   C71       1.0  0.27700  0.69310  0.37980  1.0000 -0.0190460088
C   C72       1.0  0.72300  0.19310  0.12020  1.0000 -0.0190460088
C   C73       1.0  0.69890  0.24360  0.57820  1.0000 -0.099103057
C   C74       1.0  0.30110  0.74360  0.92180  1.0000 -0.099103057
C   C75       1.0  0.30110  0.75640  0.42180  1.0000 -0.099103057
C   C76       1.0  0.69890  0.25640  0.07820  1.0000 -0.099103057
C   C77       1.0  0.57240  0.22860  0.47160  1.0000 0.200607716
C   C78       1.0  0.42760  0.72860  0.02840  1.0000 0.200607716
C   C79       1.0  0.42760  0.77140  0.52840  1.0000 0.200607716
C   C80       1.0  0.57240  0.27140  0.97160  1.0000 0.200607716
C   C81       1.0  0.46910  0.23650  0.45520  1.0000 -0.2599434715
C   C82       1.0  0.53090  0.73650  0.04480  1.0000 -0.2599434715
C   C83       1.0  0.53090  0.76350  0.54480  1.0000 -0.2599434715
C   C84       1.0  0.46910  0.26350  0.95520  1.0000 -0.2599434715
C   C85       1.0  0.42180  0.19590  0.39760  1.0000 0.2139739234
C   C86       1.0  0.57820  0.69590  0.10240  1.0000 0.2139739234
C   C87       1.0  0.57820  0.80410  0.60240  1.0000 0.2139739234
C   C88       1.0  0.42180  0.30410  0.89760  1.0000 0.2139739234
C   C89       1.0  0.47650  0.14980  0.35830  1.0000 -0.2896628875
C   C90       1.0  0.52350  0.64980  0.14170  1.0000 -0.2896628875
C   C91       1.0  0.52350  0.85020  0.64170  1.0000 -0.2896628875
C   C92       1.0  0.47650  0.35020  0.85830  1.0000 -0.2896628875
C   C93       1.0  0.58130  0.14380  0.37800  1.0000 0.200607716
C   C94       1.0  0.41870  0.64380  0.12200  1.0000 0.200607716
C   C95       1.0  0.41870  0.85620  0.62200  1.0000 0.200607716
C   C96       1.0  0.58130  0.35620  0.87800  1.0000 0.200607716
C   C97       1.0  0.63060  0.18250  0.43430  1.0000 -0.2515710678
C   C98       1.0  0.36940  0.68250  0.06570  1.0000 -0.2515710678
C   C99       1.0  0.36940  0.81750  0.56570  1.0000 -0.2515710678
C   C100      1.0  0.63060  0.31750  0.93430  1.0000 -0.2515710678
C   C101      1.0  0.24780  0.22210  0.42090  1.0000 -0.0889462244
C   C102      1.0  0.75220  0.72210  0.07910  1.0000 -0.0889462244
C   C103      1.0  0.75220  0.77790  0.57910  1.0000 -0.0889462244
C   C104      1.0  0.24780  0.27790  0.92090  1.0000 -0.0889462244
C   C105      1.0  0.15390  0.22090  0.38310  1.0000 -0.009806392
C   C106      1.0  0.84610  0.72090  0.11690  1.0000 -0.009806392
C   C107      1.0  0.84610  0.77910  0.61690  1.0000 -0.009806392
C   C108      1.0  0.15390  0.27910  0.88310  1.0000 -0.009806392
C   C109      1.0  0.25710  0.18760  0.32110  1.0000 0.110374832
C   C110      1.0  0.74290  0.68760  0.17890  1.0000 0.110374832
C   C111      1.0  0.74290  0.81240  0.67890  1.0000 0.110374832
C   C112      1.0  0.25710  0.31240  0.82110  1.0000 0.110374832
C   C113      1.0  0.61480  0.08350  0.27230  1.0000 0.110374832
C   C114      1.0  0.38520  0.58350  0.22770  1.0000 0.110374832
C   C115      1.0  0.38520  0.91650  0.72770  1.0000 0.110374832
C   C116      1.0  0.61480  0.41650  0.77230  1.0000 0.110374832
C   C117      1.0  0.76210  0.03380  0.30320  1.0000 -0.0190460088
C   C118      1.0  0.23790  0.53380  0.19680  1.0000 -0.0190460088
C   C119      1.0  0.23790  0.96620  0.69680  1.0000 -0.0190460088
C   C120      1.0  0.76210  0.46620  0.80320  1.0000 -0.0190460088
C   C121      1.0  0.73360  0.06700  0.35670  1.0000 -0.0889462244
C   C122      1.0  0.26640  0.56700  0.14330  1.0000 -0.0889462244
C   C123      1.0  0.26640  0.93300  0.64330  1.0000 -0.0889462244
C   C124      1.0  0.73360  0.43300  0.85670  1.0000 -0.0889462244
N   N1        1.0  0.66320  0.37340  0.60010  1.0000 -0.2896628875
N   N2        1.0  0.33680  0.87340  0.89990  1.0000 -0.2896628875
N   N3        1.0  0.33680  0.62660  0.39990  1.0000 -0.2896628875
N   N4        1.0  0.66320  0.12660  0.10010  1.0000 -0.2896628875
N   N5        1.0  0.62260  0.27310  0.52970  1.0000 -0.0020105142
N   N6        1.0  0.37740  0.77310  0.97030  1.0000 -0.0020105142
N   N7        1.0  0.37740  0.72690  0.47030  1.0000 -0.0020105142
N   N8        1.0  0.62260  0.22690  0.02970  1.0000 -0.0020105142
N   N9        1.0  0.31480  0.20250  0.37960  1.0000 0.0035907709
N   N10       1.0  0.68520  0.70250  0.12040  1.0000 0.0035907709
N   N11       1.0  0.68520  0.79750  0.62040  1.0000 0.0035907709
N   N12       1.0  0.31480  0.29750  0.87960  1.0000 0.0035907709
N   N13       1.0  0.16100  0.19890  0.31970  1.0000 -0.2896628875
N   N14       1.0  0.83900  0.69890  0.18030  1.0000 -0.2896628875
N   N15       1.0  0.83900  0.80110  0.68030  1.0000 -0.2896628875
N   N16       1.0  0.16100  0.30110  0.81970  1.0000 -0.2896628875
N   N17       1.0  0.63910  0.09820  0.33720  1.0000 0.0035907709
N   N18       1.0  0.36090  0.59820  0.16280  1.0000 0.0035907709
N   N19       1.0  0.36090  0.90180  0.66280  1.0000 0.0035907709
N   N20       1.0  0.63910  0.40180  0.83720  1.0000 0.0035907709
N   N21       1.0  0.68620  0.04310  0.24830  1.0000 -0.2896628875
N   N22       1.0  0.31380  0.54310  0.25170  1.0000 -0.2896628875
N   N23       1.0  0.31380  0.95690  0.75170  1.0000 -0.2896628875
N   N24       1.0  0.68620  0.45690  0.74830  1.0000 -0.2896628875
O   O1        1.0  0.85740  0.53620  0.65810  1.0000 -0.5313981112
O   O2        1.0  0.14260  0.03620  0.84190  1.0000 -0.5313981112
O   O3        1.0  0.14260  0.46380  0.34190  1.0000 -0.5313981112
O   O4        1.0  0.85740  0.96380  0.15810  1.0000 -0.5313981112
O   O5        1.0  0.75890  0.55210  0.56180  1.0000 -0.5556055169
O   O6        1.0  0.24110  0.05210  0.93820  1.0000 -0.5556055169
O   O7        1.0  0.24110  0.44790  0.43820  1.0000 -0.5556055169
O   O8        1.0  0.75890  0.94790  0.06180  1.0000 -0.5556055169
O   O9        1.0  0.89900  0.63590  0.35900  1.0000 -0.5313981112
O   O10       1.0  0.10100  0.13590  0.14100  1.0000 -0.5313981112
O   O11       1.0  0.10100  0.36410  0.64100  1.0000 -0.5313981112
O   O12       1.0  0.89900  0.86410  0.85900  1.0000 -0.5313981112
O   O13       1.0  0.04910  0.68700  0.37260  1.0000 -0.5313981112
O   O14       1.0  0.95090  0.18700  0.12740  1.0000 -0.5313981112
O   O15       1.0  0.95090  0.31300  0.62740  1.0000 -0.5313981112
O   O16       1.0  0.04910  0.81300  0.87260  1.0000 -0.5313981112
O   O17       1.0  0.07660  0.78540  0.64360  1.0000 -0.5696756106
O   O18       1.0  0.92340  0.28540  0.85640  1.0000 -0.5696756106
O   O19       1.0  0.92340  0.21460  0.35640  1.0000 -0.5696756106
O   O20       1.0  0.07660  0.71460  0.14360  1.0000 -0.5696756106
O   O21       1.0  0.10430  0.73140  0.74450  1.0000 -0.5313981112
O   O22       1.0  0.89570  0.23140  0.75550  1.0000 -0.5313981112
O   O23       1.0  0.89570  0.26860  0.25550  1.0000 -0.5313981112
O   O24       1.0  0.10430  0.76860  0.24450  1.0000 -0.5313981112
O   O25       1.0  0.49100  0.52480  0.59170  1.0000 -0.5383931111
O   O26       1.0  0.50900  0.02480  0.90830  1.0000 -0.5383931111
O   O27       1.0  0.50900  0.47520  0.40830  1.0000 -0.5383931111
O   O28       1.0  0.49100  0.97520  0.09170  1.0000 -0.5383931111
O   O29       1.0  0.57320  0.60630  0.66680  1.0000 -0.5539247852
O   O30       1.0  0.42680  0.10630  0.83320  1.0000 -0.5539247852
O   O31       1.0  0.42680  0.39370  0.33320  1.0000 -0.5539247852
O   O32       1.0  0.57320  0.89370  0.16680  1.0000 -0.5539247852
