# DDEC6 charges by PACMAN v1.1 (https://github.com/mtap-research/PACMAN-charge/)
data_2014[Co][nan]3[ASR]37
_chemical_formula_sum              "Co4 H16 C24 N8 O16"
_cell_length_a       8.9978
_cell_length_b       9.4638
_cell_length_c       10.433
_cell_angle_alpha    90
_cell_angle_beta     90
_cell_angle_gamma    90

_symmetry_space_group_name_H-M    "P 1"
_symmetry_Int_Tables_number       1

loop_
  _symmetry_equiv_pos_as_xyz
  'x, y, z'

loop_
  _atom_site_type_symbol
  _atom_site_label
  _atom_site_symmetry_multiplicity
  _atom_site_fract_x
  _atom_site_fract_y
  _atom_site_fract_z
  _atom_site_occupancy
  _atom_site_charge
Co  Co1       1.0  0.70432  0.05272  0.73099  1.0000 0.8381372412
Co  Co2       1.0  0.79568  0.94728  0.23099  1.0000 0.8381372412
Co  Co3       1.0  0.20432  0.44728  0.26901  1.0000 0.8381372412
Co  Co4       1.0  0.29568  0.55272  0.76901  1.0000 0.8381372412
H   H1        1.0  0.55430  0.77630  0.80120  1.0000 0.094260905
H   H2        1.0  0.94570  0.22370  0.30120  1.0000 0.094260905
H   H3        1.0  0.05430  0.72370  0.19880  1.0000 0.094260905
H   H4        1.0  0.44570  0.27630  0.69880  1.0000 0.094260905
H   H5        1.0  0.95450  0.20350  0.56500  1.0000 0.1191117746
H   H6        1.0  0.54550  0.79650  0.06500  1.0000 0.1191117746
H   H7        1.0  0.45450  0.29650  0.43500  1.0000 0.1191117746
H   H8        1.0  0.04550  0.70350  0.93500  1.0000 0.1191117746
H   H9        1.0  0.88340  0.21310  0.93460  1.0000 0.1287229081
H   H10       1.0  0.61660  0.78690  0.43460  1.0000 0.1287229081
H   H11       1.0  0.38340  0.28690  0.06540  1.0000 0.1287229081
H   H12       1.0  0.11660  0.71310  0.56540  1.0000 0.1287229081
H   H13       1.0  0.07760  0.36570  0.96150  1.0000 0.1287229081
H   H14       1.0  0.42240  0.63430  0.46150  1.0000 0.1287229081
H   H15       1.0  0.57760  0.13430  0.03850  1.0000 0.1287229081
H   H16       1.0  0.92240  0.86570  0.53850  1.0000 0.1287229081
C   C1        1.0  0.50570  0.80140  0.72590  1.0000 0.4708827381
C   C2        1.0  0.99430  0.19860  0.22590  1.0000 0.4708827381
C   C3        1.0  0.00570  0.69860  0.27410  1.0000 0.4708827381
C   C4        1.0  0.49430  0.30140  0.77410  1.0000 0.4708827381
C   C5        1.0  0.18340  0.39050  0.55270  1.0000 0.5143255313
C   C6        1.0  0.31660  0.60950  0.05270  1.0000 0.5143255313
C   C7        1.0  0.68340  0.10950  0.44730  1.0000 0.5143255313
C   C8        1.0  0.81660  0.89050  0.94730  1.0000 0.5143255313
C   C9        1.0  0.09620  0.33320  0.66380  1.0000 0.0788481572
C   C10       1.0  0.40380  0.66680  0.16380  1.0000 0.0788481572
C   C11       1.0  0.59620  0.16680  0.33620  1.0000 0.0788481572
C   C12       1.0  0.90380  0.83320  0.83620  1.0000 0.0788481572
C   C13       1.0  0.97770  0.23540  0.64690  1.0000 0.0320776398
C   C14       1.0  0.52230  0.76460  0.14690  1.0000 0.0320776398
C   C15       1.0  0.47770  0.26460  0.35310  1.0000 0.0320776398
C   C16       1.0  0.02230  0.73540  0.85310  1.0000 0.0320776398
C   C17       1.0  0.93710  0.24150  0.86290  1.0000 0.0320776398
C   C18       1.0  0.56290  0.75850  0.36290  1.0000 0.0320776398
C   C19       1.0  0.43710  0.25850  0.13710  1.0000 0.0320776398
C   C20       1.0  0.06290  0.74150  0.63710  1.0000 0.0320776398
C   C21       1.0  0.05210  0.33590  0.87940  1.0000 0.0320776398
C   C22       1.0  0.44790  0.66410  0.37940  1.0000 0.0320776398
C   C23       1.0  0.55210  0.16410  0.12060  1.0000 0.0320776398
C   C24       1.0  0.94790  0.83590  0.62060  1.0000 0.0320776398
N   N1        1.0  0.12810  0.38560  0.77700  1.0000 -0.2497683223
N   N2        1.0  0.37190  0.61440  0.27700  1.0000 -0.2497683223
N   N3        1.0  0.62810  0.11440  0.22300  1.0000 -0.2497683223
N   N4        1.0  0.87190  0.88560  0.72300  1.0000 -0.2497683223
N   N5        1.0  0.89870  0.18830  0.74770  1.0000 -0.2083932328
N   N6        1.0  0.60130  0.81170  0.24770  1.0000 -0.2083932328
N   N7        1.0  0.39870  0.31170  0.25230  1.0000 -0.2083932328
N   N8        1.0  0.10130  0.68830  0.75230  1.0000 -0.2083932328
O   O1        1.0  0.53970  0.91550  0.67950  1.0000 -0.4828799944
O   O2        1.0  0.96030  0.08450  0.17950  1.0000 -0.4828799944
O   O3        1.0  0.03970  0.58450  0.32050  1.0000 -0.4828799944
O   O4        1.0  0.46030  0.41550  0.82050  1.0000 -0.4828799944
O   O5        1.0  0.41510  0.71650  0.68480  1.0000 -0.4640980567
O   O6        1.0  0.08490  0.28350  0.18480  1.0000 -0.4640980567
O   O7        1.0  0.91510  0.78350  0.31520  1.0000 -0.4640980567
O   O8        1.0  0.58490  0.21650  0.81520  1.0000 -0.4640980567
O   O9        1.0  0.15250  0.34720  0.44310  1.0000 -0.5261144916
O   O10       1.0  0.34750  0.65280  0.94310  1.0000 -0.5261144916
O   O11       1.0  0.65250  0.15280  0.55690  1.0000 -0.5261144916
O   O12       1.0  0.84750  0.84720  0.05690  1.0000 -0.5261144916
O   O13       1.0  0.28050  0.47950  0.58110  1.0000 -0.5379909853
O   O14       1.0  0.21950  0.52050  0.08110  1.0000 -0.5379909853
O   O15       1.0  0.78050  0.02050  0.41890  1.0000 -0.5379909853
O   O16       1.0  0.71950  0.97950  0.91890  1.0000 -0.5379909853
