# DDEC6 charges by PACMAN v1.1 (https://github.com/mtap-research/PACMAN-charge/)
data_2014[Cu][nan]3[ASR]1
_chemical_formula_sum              "Cu42 H240 C480 N24 O144"
_cell_length_a       33.7831
_cell_length_b       33.7831
_cell_length_c       43.456
_cell_angle_alpha    90
_cell_angle_beta     90
_cell_angle_gamma    120

_symmetry_space_group_name_H-M    "P 1"
_symmetry_Int_Tables_number       1

loop_
  _symmetry_equiv_pos_as_xyz
  'x, y, z'

loop_
  _atom_site_type_symbol
  _atom_site_label
  _atom_site_symmetry_multiplicity
  _atom_site_fract_x
  _atom_site_fract_y
  _atom_site_fract_z
  _atom_site_occupancy
  _atom_site_charge
Cu  Cu1       1.0  0.47876  0.52124  0.51088  1.0000 0.8450027355
Cu  Cu2       1.0  0.47876  0.95752  0.51088  1.0000 0.8450027355
Cu  Cu3       1.0  0.04248  0.52124  0.51088  1.0000 0.8450027355
Cu  Cu4       1.0  0.52124  0.47876  0.01088  1.0000 0.8450027355
Cu  Cu5       1.0  0.52124  0.04248  0.01088  1.0000 0.8450027355
Cu  Cu6       1.0  0.95752  0.47876  0.01088  1.0000 0.8450027355
Cu  Cu7       1.0  0.52124  0.47876  0.48912  1.0000 0.8450027355
Cu  Cu8       1.0  0.95752  0.47876  0.48912  1.0000 0.8450027355
Cu  Cu9       1.0  0.52124  0.04248  0.48912  1.0000 0.8450027355
Cu  Cu10      1.0  0.47876  0.52124  0.98912  1.0000 0.8450027355
Cu  Cu11      1.0  0.04248  0.52124  0.98912  1.0000 0.8450027355
Cu  Cu12      1.0  0.47876  0.95752  0.98912  1.0000 0.8450027355
Cu  Cu13      1.0  0.38211  0.19106  0.59988  1.0000 0.8819362569
Cu  Cu14      1.0  0.80895  0.19106  0.59988  1.0000 0.8819362569
Cu  Cu15      1.0  0.80895  0.61789  0.59988  1.0000 0.8819362569
Cu  Cu16      1.0  0.61789  0.80895  0.09988  1.0000 0.8819362569
Cu  Cu17      1.0  0.19106  0.80895  0.09988  1.0000 0.8819362569
Cu  Cu18      1.0  0.19106  0.38211  0.09988  1.0000 0.8819362569
Cu  Cu19      1.0  0.19106  0.38211  0.40012  1.0000 0.8819362569
Cu  Cu20      1.0  0.19106  0.80895  0.40012  1.0000 0.8819362569
Cu  Cu21      1.0  0.61789  0.80895  0.40012  1.0000 0.8819362569
Cu  Cu22      1.0  0.80895  0.61789  0.90012  1.0000 0.8819362569
Cu  Cu23      1.0  0.80895  0.19106  0.90012  1.0000 0.8819362569
Cu  Cu24      1.0  0.38211  0.19106  0.90012  1.0000 0.8819362569
Cu  Cu25      1.0  0.44310  0.22155  0.55586  1.0000 0.8370792665
Cu  Cu26      1.0  0.77845  0.22155  0.55586  1.0000 0.8370792665
Cu  Cu27      1.0  0.77845  0.55690  0.55586  1.0000 0.8370792665
Cu  Cu28      1.0  0.55690  0.77845  0.05586  1.0000 0.8370792665
Cu  Cu29      1.0  0.22155  0.77845  0.05586  1.0000 0.8370792665
Cu  Cu30      1.0  0.22155  0.44310  0.05586  1.0000 0.8370792665
Cu  Cu31      1.0  0.22155  0.44310  0.44414  1.0000 0.8370792665
Cu  Cu32      1.0  0.22155  0.77845  0.44414  1.0000 0.8370792665
Cu  Cu33      1.0  0.55690  0.77845  0.44414  1.0000 0.8370792665
Cu  Cu34      1.0  0.77845  0.55690  0.94414  1.0000 0.8370792665
Cu  Cu35      1.0  0.77845  0.22155  0.94414  1.0000 0.8370792665
Cu  Cu36      1.0  0.44310  0.22155  0.94414  1.0000 0.8370792665
Cu  Cu37      1.0  0.19193  0.38385  0.75000  1.0000 0.5459276287
Cu  Cu38      1.0  0.61615  0.80807  0.75000  1.0000 0.5459276287
Cu  Cu39      1.0  0.19193  0.80807  0.75000  1.0000 0.5459276287
Cu  Cu40      1.0  0.80807  0.61615  0.25000  1.0000 0.536460049
Cu  Cu41      1.0  0.38385  0.19193  0.25000  1.0000 0.536460049
Cu  Cu42      1.0  0.80807  0.19193  0.25000  1.0000 0.536460049
H   H1        1.0  0.36450  0.30320  0.61450  1.0000 0.1211958178
H   H2        1.0  0.69680  0.06130  0.61450  1.0000 0.1211958178
H   H3        1.0  0.93870  0.63550  0.61450  1.0000 0.1211958178
H   H4        1.0  0.63550  0.69680  0.11450  1.0000 0.1211958178
H   H5        1.0  0.30320  0.93870  0.11450  1.0000 0.1211958178
H   H6        1.0  0.06130  0.36450  0.11450  1.0000 0.1211958178
H   H7        1.0  0.30320  0.36450  0.38550  1.0000 0.1211958178
H   H8        1.0  0.06130  0.69680  0.38550  1.0000 0.1211958178
H   H9        1.0  0.63550  0.93870  0.38550  1.0000 0.1211958178
H   H10       1.0  0.69680  0.63550  0.88550  1.0000 0.1211958178
H   H11       1.0  0.93870  0.30320  0.88550  1.0000 0.1211958178
H   H12       1.0  0.36450  0.06130  0.88550  1.0000 0.1211958178
H   H13       1.0  0.63550  0.69680  0.38550  1.0000 0.1211958178
H   H14       1.0  0.30320  0.93870  0.38550  1.0000 0.1211958178
H   H15       1.0  0.06130  0.36450  0.38550  1.0000 0.1211958178
H   H16       1.0  0.36450  0.30320  0.88550  1.0000 0.1211958178
H   H17       1.0  0.69680  0.06130  0.88550  1.0000 0.1211958178
H   H18       1.0  0.93870  0.63550  0.88550  1.0000 0.1211958178
H   H19       1.0  0.69680  0.63550  0.61450  1.0000 0.1211958178
H   H20       1.0  0.93870  0.30320  0.61450  1.0000 0.1211958178
H   H21       1.0  0.36450  0.06130  0.61450  1.0000 0.1211958178
H   H22       1.0  0.30320  0.36450  0.11450  1.0000 0.1211958178
H   H23       1.0  0.06130  0.69680  0.11450  1.0000 0.1211958178
H   H24       1.0  0.63550  0.93870  0.11450  1.0000 0.1211958178
H   H25       1.0  0.45430  0.35520  0.54430  1.0000 0.1371190653
H   H26       1.0  0.64480  0.09910  0.54430  1.0000 0.1371190653
H   H27       1.0  0.90090  0.54570  0.54430  1.0000 0.1371190653
H   H28       1.0  0.54570  0.64480  0.04430  1.0000 0.1371190653
H   H29       1.0  0.35520  0.90090  0.04430  1.0000 0.1371190653
H   H30       1.0  0.09910  0.45430  0.04430  1.0000 0.1371190653
H   H31       1.0  0.35520  0.45430  0.45570  1.0000 0.1371190653
H   H32       1.0  0.09910  0.64480  0.45570  1.0000 0.1371190653
H   H33       1.0  0.54570  0.90090  0.45570  1.0000 0.1371190653
H   H34       1.0  0.64480  0.54570  0.95570  1.0000 0.1371190653
H   H35       1.0  0.90090  0.35520  0.95570  1.0000 0.1371190653
H   H36       1.0  0.45430  0.09910  0.95570  1.0000 0.1371190653
H   H37       1.0  0.54570  0.64480  0.45570  1.0000 0.1371190653
H   H38       1.0  0.35520  0.90090  0.45570  1.0000 0.1371190653
H   H39       1.0  0.09910  0.45430  0.45570  1.0000 0.1371190653
H   H40       1.0  0.45430  0.35520  0.95570  1.0000 0.1371190653
H   H41       1.0  0.64480  0.09910  0.95570  1.0000 0.1371190653
H   H42       1.0  0.90090  0.54570  0.95570  1.0000 0.1371190653
H   H43       1.0  0.64480  0.54570  0.54430  1.0000 0.1371190653
H   H44       1.0  0.90090  0.35520  0.54430  1.0000 0.1371190653
H   H45       1.0  0.45430  0.09910  0.54430  1.0000 0.1371190653
H   H46       1.0  0.35520  0.45430  0.04430  1.0000 0.1371190653
H   H47       1.0  0.09910  0.64480  0.04430  1.0000 0.1371190653
H   H48       1.0  0.54570  0.90090  0.04430  1.0000 0.1371190653
H   H49       1.0  0.40280  0.42910  0.58190  1.0000 0.125662167
H   H50       1.0  0.57090  0.97370  0.58190  1.0000 0.125662167
H   H51       1.0  0.02630  0.59720  0.58190  1.0000 0.125662167
H   H52       1.0  0.59720  0.57090  0.08190  1.0000 0.125662167
H   H53       1.0  0.42910  0.02630  0.08190  1.0000 0.125662167
H   H54       1.0  0.97370  0.40280  0.08190  1.0000 0.125662167
H   H55       1.0  0.42910  0.40280  0.41810  1.0000 0.125662167
H   H56       1.0  0.97370  0.57090  0.41810  1.0000 0.125662167
H   H57       1.0  0.59720  0.02630  0.41810  1.0000 0.125662167
H   H58       1.0  0.57090  0.59720  0.91810  1.0000 0.125662167
H   H59       1.0  0.02630  0.42910  0.91810  1.0000 0.125662167
H   H60       1.0  0.40280  0.97370  0.91810  1.0000 0.125662167
H   H61       1.0  0.59720  0.57090  0.41810  1.0000 0.125662167
H   H62       1.0  0.42910  0.02630  0.41810  1.0000 0.125662167
H   H63       1.0  0.97370  0.40280  0.41810  1.0000 0.125662167
H   H64       1.0  0.40280  0.42910  0.91810  1.0000 0.125662167
H   H65       1.0  0.57090  0.97370  0.91810  1.0000 0.125662167
H   H66       1.0  0.02630  0.59720  0.91810  1.0000 0.125662167
H   H67       1.0  0.57090  0.59720  0.58190  1.0000 0.125662167
H   H68       1.0  0.02630  0.42910  0.58190  1.0000 0.125662167
H   H69       1.0  0.40280  0.97370  0.58190  1.0000 0.125662167
H   H70       1.0  0.42910  0.40280  0.08190  1.0000 0.125662167
H   H71       1.0  0.97370  0.57090  0.08190  1.0000 0.125662167
H   H72       1.0  0.59720  0.02630  0.08190  1.0000 0.125662167
H   H73       1.0  0.22780  0.38300  0.63500  1.0000 0.1211958178
H   H74       1.0  0.61700  0.84480  0.63500  1.0000 0.1211958178
H   H75       1.0  0.15520  0.77220  0.63500  1.0000 0.1211958178
H   H76       1.0  0.77220  0.61700  0.13500  1.0000 0.1211958178
H   H77       1.0  0.38300  0.15520  0.13500  1.0000 0.1211958178
H   H78       1.0  0.84480  0.22780  0.13500  1.0000 0.1211958178
H   H79       1.0  0.38300  0.22780  0.36500  1.0000 0.1211958178
H   H80       1.0  0.84480  0.61700  0.36500  1.0000 0.1211958178
H   H81       1.0  0.77220  0.15520  0.36500  1.0000 0.1211958178
H   H82       1.0  0.61700  0.77220  0.86500  1.0000 0.1211958178
H   H83       1.0  0.15520  0.38300  0.86500  1.0000 0.1211958178
H   H84       1.0  0.22780  0.84480  0.86500  1.0000 0.1211958178
H   H85       1.0  0.77220  0.61700  0.36500  1.0000 0.1211958178
H   H86       1.0  0.38300  0.15520  0.36500  1.0000 0.1211958178
H   H87       1.0  0.84480  0.22780  0.36500  1.0000 0.1211958178
H   H88       1.0  0.22780  0.38300  0.86500  1.0000 0.1211958178
H   H89       1.0  0.61700  0.84480  0.86500  1.0000 0.1211958178
H   H90       1.0  0.15520  0.77220  0.86500  1.0000 0.1211958178
H   H91       1.0  0.61700  0.77220  0.63500  1.0000 0.1211958178
H   H92       1.0  0.15520  0.38300  0.63500  1.0000 0.1211958178
H   H93       1.0  0.22780  0.84480  0.63500  1.0000 0.1211958178
H   H94       1.0  0.38300  0.22780  0.13500  1.0000 0.1211958178
H   H95       1.0  0.84480  0.61700  0.13500  1.0000 0.1211958178
H   H96       1.0  0.77220  0.15520  0.13500  1.0000 0.1211958178
H   H97       1.0  0.33750  0.38270  0.72120  1.0000 0.1211958178
H   H98       1.0  0.61730  0.95480  0.72120  1.0000 0.1211958178
H   H99       1.0  0.04520  0.66250  0.72120  1.0000 0.1211958178
H   H100      1.0  0.66250  0.61730  0.22120  1.0000 0.1211958178
H   H101      1.0  0.38270  0.04520  0.22120  1.0000 0.1211958178
H   H102      1.0  0.95480  0.33750  0.22120  1.0000 0.1211958178
H   H103      1.0  0.38270  0.33750  0.27880  1.0000 0.1211958178
H   H104      1.0  0.95480  0.61730  0.27880  1.0000 0.1211958178
H   H105      1.0  0.66250  0.04520  0.27880  1.0000 0.1211958178
H   H106      1.0  0.61730  0.66250  0.77880  1.0000 0.1211958178
H   H107      1.0  0.04520  0.38270  0.77880  1.0000 0.1211958178
H   H108      1.0  0.33750  0.95480  0.77880  1.0000 0.1211958178
H   H109      1.0  0.66250  0.61730  0.27880  1.0000 0.1211958178
H   H110      1.0  0.38270  0.04520  0.27880  1.0000 0.1211958178
H   H111      1.0  0.95480  0.33750  0.27880  1.0000 0.1211958178
H   H112      1.0  0.33750  0.38270  0.77880  1.0000 0.1211958178
H   H113      1.0  0.61730  0.95480  0.77880  1.0000 0.1211958178
H   H114      1.0  0.04520  0.66250  0.77880  1.0000 0.1211958178
H   H115      1.0  0.61730  0.66250  0.72120  1.0000 0.1211958178
H   H116      1.0  0.04520  0.38270  0.72120  1.0000 0.1211958178
H   H117      1.0  0.33750  0.95480  0.72120  1.0000 0.1211958178
H   H118      1.0  0.38270  0.33750  0.22120  1.0000 0.1211958178
H   H119      1.0  0.95480  0.61730  0.22120  1.0000 0.1211958178
H   H120      1.0  0.66250  0.04520  0.22120  1.0000 0.1211958178
H   H121      1.0  0.34380  0.44490  0.67070  1.0000 0.1211958178
H   H122      1.0  0.55510  0.89890  0.67070  1.0000 0.1211958178
H   H123      1.0  0.10110  0.65620  0.67070  1.0000 0.1211958178
H   H124      1.0  0.65620  0.55510  0.17070  1.0000 0.1211958178
H   H125      1.0  0.44490  0.10110  0.17070  1.0000 0.1211958178
H   H126      1.0  0.89890  0.34380  0.17070  1.0000 0.1211958178
H   H127      1.0  0.44490  0.34380  0.32930  1.0000 0.1211958178
H   H128      1.0  0.89890  0.55510  0.32930  1.0000 0.1211958178
H   H129      1.0  0.65620  0.10110  0.32930  1.0000 0.1211958178
H   H130      1.0  0.55510  0.65620  0.82930  1.0000 0.1211958178
H   H131      1.0  0.10110  0.44490  0.82930  1.0000 0.1211958178
H   H132      1.0  0.34380  0.89890  0.82930  1.0000 0.1211958178
H   H133      1.0  0.65620  0.55510  0.32930  1.0000 0.1211958178
H   H134      1.0  0.44490  0.10110  0.32930  1.0000 0.1211958178
H   H135      1.0  0.89890  0.34380  0.32930  1.0000 0.1211958178
H   H136      1.0  0.34380  0.44490  0.82930  1.0000 0.1211958178
H   H137      1.0  0.55510  0.89890  0.82930  1.0000 0.1211958178
H   H138      1.0  0.10110  0.65620  0.82930  1.0000 0.1211958178
H   H139      1.0  0.55510  0.65620  0.67070  1.0000 0.1211958178
H   H140      1.0  0.10110  0.44490  0.67070  1.0000 0.1211958178
H   H141      1.0  0.34380  0.89890  0.67070  1.0000 0.1211958178
H   H142      1.0  0.44490  0.34380  0.17070  1.0000 0.1211958178
H   H143      1.0  0.89890  0.55510  0.17070  1.0000 0.1211958178
H   H144      1.0  0.65620  0.10110  0.17070  1.0000 0.1211958178
H   H145      1.0  0.38990  0.43750  0.63390  1.0000 0.1148777845
H   H146      1.0  0.56250  0.95240  0.63390  1.0000 0.1148777845
H   H147      1.0  0.04760  0.61010  0.63390  1.0000 0.1148777845
H   H148      1.0  0.61010  0.56250  0.13390  1.0000 0.1148777845
H   H149      1.0  0.43750  0.04760  0.13390  1.0000 0.1148777845
H   H150      1.0  0.95240  0.38990  0.13390  1.0000 0.1148777845
H   H151      1.0  0.43750  0.38990  0.36610  1.0000 0.1148777845
H   H152      1.0  0.95240  0.56250  0.36610  1.0000 0.1148777845
H   H153      1.0  0.61010  0.04760  0.36610  1.0000 0.1148777845
H   H154      1.0  0.56250  0.61010  0.86610  1.0000 0.1148777845
H   H155      1.0  0.04760  0.43750  0.86610  1.0000 0.1148777845
H   H156      1.0  0.38990  0.95240  0.86610  1.0000 0.1148777845
H   H157      1.0  0.61010  0.56250  0.36610  1.0000 0.1148777845
H   H158      1.0  0.43750  0.04760  0.36610  1.0000 0.1148777845
H   H159      1.0  0.95240  0.38990  0.36610  1.0000 0.1148777845
H   H160      1.0  0.38990  0.43750  0.86610  1.0000 0.1148777845
H   H161      1.0  0.56250  0.95240  0.86610  1.0000 0.1148777845
H   H162      1.0  0.04760  0.61010  0.86610  1.0000 0.1148777845
H   H163      1.0  0.56250  0.61010  0.63390  1.0000 0.1148777845
H   H164      1.0  0.04760  0.43750  0.63390  1.0000 0.1148777845
H   H165      1.0  0.38990  0.95240  0.63390  1.0000 0.1148777845
H   H166      1.0  0.43750  0.38990  0.13390  1.0000 0.1148777845
H   H167      1.0  0.95240  0.56250  0.13390  1.0000 0.1148777845
H   H168      1.0  0.61010  0.04760  0.13390  1.0000 0.1148777845
H   H169      1.0  0.29630  0.30390  0.62410  1.0000 0.1211958178
H   H170      1.0  0.69610  0.99240  0.62410  1.0000 0.1211958178
H   H171      1.0  0.00760  0.70370  0.62410  1.0000 0.1211958178
H   H172      1.0  0.70370  0.69610  0.12410  1.0000 0.1211958178
H   H173      1.0  0.30390  0.00760  0.12410  1.0000 0.1211958178
H   H174      1.0  0.99240  0.29630  0.12410  1.0000 0.1211958178
H   H175      1.0  0.30390  0.29630  0.37590  1.0000 0.1211958178
H   H176      1.0  0.99240  0.69610  0.37590  1.0000 0.1211958178
H   H177      1.0  0.70370  0.00760  0.37590  1.0000 0.1211958178
H   H178      1.0  0.69610  0.70370  0.87590  1.0000 0.1211958178
H   H179      1.0  0.00760  0.30390  0.87590  1.0000 0.1211958178
H   H180      1.0  0.29630  0.99240  0.87590  1.0000 0.1211958178
H   H181      1.0  0.70370  0.69610  0.37590  1.0000 0.1211958178
H   H182      1.0  0.30390  0.00760  0.37590  1.0000 0.1211958178
H   H183      1.0  0.99240  0.29630  0.37590  1.0000 0.1211958178
H   H184      1.0  0.29630  0.30390  0.87590  1.0000 0.1211958178
H   H185      1.0  0.69610  0.99240  0.87590  1.0000 0.1211958178
H   H186      1.0  0.00760  0.70370  0.87590  1.0000 0.1211958178
H   H187      1.0  0.69610  0.70370  0.62410  1.0000 0.1211958178
H   H188      1.0  0.00760  0.30390  0.62410  1.0000 0.1211958178
H   H189      1.0  0.29630  0.99240  0.62410  1.0000 0.1211958178
H   H190      1.0  0.30390  0.29630  0.12410  1.0000 0.1211958178
H   H191      1.0  0.99240  0.69610  0.12410  1.0000 0.1211958178
H   H192      1.0  0.70370  0.00760  0.12410  1.0000 0.1211958178
H   H193      1.0  0.25020  0.31120  0.66090  1.0000 0.1211958178
H   H194      1.0  0.68880  0.93900  0.66090  1.0000 0.1211958178
H   H195      1.0  0.06100  0.74980  0.66090  1.0000 0.1211958178
H   H196      1.0  0.74980  0.68880  0.16090  1.0000 0.1211958178
H   H197      1.0  0.31120  0.06100  0.16090  1.0000 0.1211958178
H   H198      1.0  0.93900  0.25020  0.16090  1.0000 0.1211958178
H   H199      1.0  0.31120  0.25020  0.33910  1.0000 0.1211958178
H   H200      1.0  0.93900  0.68880  0.33910  1.0000 0.1211958178
H   H201      1.0  0.74980  0.06100  0.33910  1.0000 0.1211958178
H   H202      1.0  0.68880  0.74980  0.83910  1.0000 0.1211958178
H   H203      1.0  0.06100  0.31120  0.83910  1.0000 0.1211958178
H   H204      1.0  0.25020  0.93900  0.83910  1.0000 0.1211958178
H   H205      1.0  0.74980  0.68880  0.33910  1.0000 0.1211958178
H   H206      1.0  0.31120  0.06100  0.33910  1.0000 0.1211958178
H   H207      1.0  0.93900  0.25020  0.33910  1.0000 0.1211958178
H   H208      1.0  0.25020  0.31120  0.83910  1.0000 0.1211958178
H   H209      1.0  0.68880  0.93900  0.83910  1.0000 0.1211958178
H   H210      1.0  0.06100  0.74980  0.83910  1.0000 0.1211958178
H   H211      1.0  0.68880  0.74980  0.66090  1.0000 0.1211958178
H   H212      1.0  0.06100  0.31120  0.66090  1.0000 0.1211958178
H   H213      1.0  0.25020  0.93900  0.66090  1.0000 0.1211958178
H   H214      1.0  0.31120  0.25020  0.16090  1.0000 0.1211958178
H   H215      1.0  0.93900  0.68880  0.16090  1.0000 0.1211958178
H   H216      1.0  0.74980  0.06100  0.16090  1.0000 0.1211958178
H   H217      1.0  0.32710  0.16355  0.52200  1.0000 0.1506454296
H   H218      1.0  0.83645  0.16355  0.52200  1.0000 0.1506454296
H   H219      1.0  0.83645  0.67290  0.52200  1.0000 0.1506454296
H   H220      1.0  0.67290  0.83645  0.02200  1.0000 0.1506454296
H   H221      1.0  0.16355  0.83645  0.02200  1.0000 0.1506454296
H   H222      1.0  0.16355  0.32710  0.02200  1.0000 0.1506454296
H   H223      1.0  0.16355  0.32710  0.47800  1.0000 0.1506454296
H   H224      1.0  0.16355  0.83645  0.47800  1.0000 0.1506454296
H   H225      1.0  0.67290  0.83645  0.47800  1.0000 0.1506454296
H   H226      1.0  0.83645  0.67290  0.97800  1.0000 0.1506454296
H   H227      1.0  0.83645  0.16355  0.97800  1.0000 0.1506454296
H   H228      1.0  0.32710  0.16355  0.97800  1.0000 0.1506454296
H   H229      1.0  0.50230  0.25115  0.63330  1.0000 0.1371190653
H   H230      1.0  0.74885  0.25115  0.63330  1.0000 0.1371190653
H   H231      1.0  0.74885  0.49770  0.63330  1.0000 0.1371190653
H   H232      1.0  0.49770  0.74885  0.13330  1.0000 0.1371190653
H   H233      1.0  0.25115  0.74885  0.13330  1.0000 0.1371190653
H   H234      1.0  0.25115  0.50230  0.13330  1.0000 0.1371190653
H   H235      1.0  0.25115  0.50230  0.36670  1.0000 0.1371190653
H   H236      1.0  0.25115  0.74885  0.36670  1.0000 0.1371190653
H   H237      1.0  0.49770  0.74885  0.36670  1.0000 0.1371190653
H   H238      1.0  0.74885  0.49770  0.86670  1.0000 0.1371190653
H   H239      1.0  0.74885  0.25115  0.86670  1.0000 0.1371190653
H   H240      1.0  0.50230  0.25115  0.86670  1.0000 0.1371190653
C   C1        1.0  0.26200  0.38260  0.69510  1.0000 -0.1086725616
C   C2        1.0  0.61740  0.87940  0.69510  1.0000 -0.1086725616
C   C3        1.0  0.12060  0.73800  0.69510  1.0000 -0.1086725616
C   C4        1.0  0.73800  0.61740  0.19510  1.0000 -0.1086725616
C   C5        1.0  0.38260  0.12060  0.19510  1.0000 -0.1086725616
C   C6        1.0  0.87940  0.26200  0.19510  1.0000 -0.1086725616
C   C7        1.0  0.38260  0.26200  0.30490  1.0000 -0.1086725616
C   C8        1.0  0.87940  0.61740  0.30490  1.0000 -0.1086725616
C   C9        1.0  0.73800  0.12060  0.30490  1.0000 -0.1086725616
C   C10       1.0  0.61740  0.73800  0.80490  1.0000 -0.1086725616
C   C11       1.0  0.12060  0.38260  0.80490  1.0000 -0.1086725616
C   C12       1.0  0.26200  0.87940  0.80490  1.0000 -0.1086725616
C   C13       1.0  0.73800  0.61740  0.30490  1.0000 -0.1086725616
C   C14       1.0  0.38260  0.12060  0.30490  1.0000 -0.1086725616
C   C15       1.0  0.87940  0.26200  0.30490  1.0000 -0.1086725616
C   C16       1.0  0.26200  0.38260  0.80490  1.0000 -0.1086725616
C   C17       1.0  0.61740  0.87940  0.80490  1.0000 -0.1086725616
C   C18       1.0  0.12060  0.73800  0.80490  1.0000 -0.1086725616
C   C19       1.0  0.61740  0.73800  0.69510  1.0000 -0.1086725616
C   C20       1.0  0.12060  0.38260  0.69510  1.0000 -0.1086725616
C   C21       1.0  0.26200  0.87940  0.69510  1.0000 -0.1086725616
C   C22       1.0  0.38260  0.26200  0.19510  1.0000 -0.1086725616
C   C23       1.0  0.87940  0.61740  0.19510  1.0000 -0.1086725616
C   C24       1.0  0.73800  0.12060  0.19510  1.0000 -0.1086725616
C   C25       1.0  0.22460  0.38400  0.68500  1.0000 0.1794820177
C   C26       1.0  0.61600  0.84060  0.68500  1.0000 0.1794820177
C   C27       1.0  0.15940  0.77540  0.68500  1.0000 0.1794820177
C   C28       1.0  0.77540  0.61600  0.18500  1.0000 0.1794820177
C   C29       1.0  0.38400  0.15940  0.18500  1.0000 0.1794820177
C   C30       1.0  0.84060  0.22460  0.18500  1.0000 0.1794820177
C   C31       1.0  0.38400  0.22460  0.31500  1.0000 0.1794820177
C   C32       1.0  0.84060  0.61600  0.31500  1.0000 0.1794820177
C   C33       1.0  0.77540  0.15940  0.31500  1.0000 0.1794820177
C   C34       1.0  0.61600  0.77540  0.81500  1.0000 0.1794820177
C   C35       1.0  0.15940  0.38400  0.81500  1.0000 0.1794820177
C   C36       1.0  0.22460  0.84060  0.81500  1.0000 0.1794820177
C   C37       1.0  0.77540  0.61600  0.31500  1.0000 0.1794820177
C   C38       1.0  0.38400  0.15940  0.31500  1.0000 0.1794820177
C   C39       1.0  0.84060  0.22460  0.31500  1.0000 0.1794820177
C   C40       1.0  0.22460  0.38400  0.81500  1.0000 0.1794820177
C   C41       1.0  0.61600  0.84060  0.81500  1.0000 0.1794820177
C   C42       1.0  0.15940  0.77540  0.81500  1.0000 0.1794820177
C   C43       1.0  0.61600  0.77540  0.68500  1.0000 0.1794820177
C   C44       1.0  0.15940  0.38400  0.68500  1.0000 0.1794820177
C   C45       1.0  0.22460  0.84060  0.68500  1.0000 0.1794820177
C   C46       1.0  0.38400  0.22460  0.18500  1.0000 0.1794820177
C   C47       1.0  0.84060  0.61600  0.18500  1.0000 0.1794820177
C   C48       1.0  0.77540  0.15940  0.18500  1.0000 0.1794820177
C   C49       1.0  0.37911  0.36690  0.60166  1.0000 0.0641517662
C   C50       1.0  0.63310  0.01221  0.60166  1.0000 0.0641517662
C   C51       1.0  0.98779  0.62089  0.60166  1.0000 0.0641517662
C   C52       1.0  0.62089  0.63310  0.10166  1.0000 0.0641517662
C   C53       1.0  0.36690  0.98779  0.10166  1.0000 0.0641517662
C   C54       1.0  0.01221  0.37911  0.10166  1.0000 0.0641517662
C   C55       1.0  0.36690  0.37911  0.39834  1.0000 0.0641517662
C   C56       1.0  0.01221  0.63310  0.39834  1.0000 0.0641517662
C   C57       1.0  0.62089  0.98779  0.39834  1.0000 0.0641517662
C   C58       1.0  0.63310  0.62089  0.89834  1.0000 0.0641517662
C   C59       1.0  0.98779  0.36690  0.89834  1.0000 0.0641517662
C   C60       1.0  0.37911  0.01221  0.89834  1.0000 0.0641517662
C   C61       1.0  0.62089  0.63310  0.39834  1.0000 0.0641517662
C   C62       1.0  0.36690  0.98779  0.39834  1.0000 0.0641517662
C   C63       1.0  0.01221  0.37911  0.39834  1.0000 0.0641517662
C   C64       1.0  0.37911  0.36690  0.89834  1.0000 0.0641517662
C   C65       1.0  0.63310  0.01221  0.89834  1.0000 0.0641517662
C   C66       1.0  0.98779  0.62089  0.89834  1.0000 0.0641517662
C   C67       1.0  0.63310  0.62089  0.60166  1.0000 0.0641517662
C   C68       1.0  0.98779  0.36690  0.60166  1.0000 0.0641517662
C   C69       1.0  0.37911  0.01221  0.60166  1.0000 0.0641517662
C   C70       1.0  0.36690  0.37911  0.10166  1.0000 0.0641517662
C   C71       1.0  0.01221  0.63310  0.10166  1.0000 0.0641517662
C   C72       1.0  0.62089  0.98779  0.10166  1.0000 0.0641517662
C   C73       1.0  0.38170  0.32710  0.60067  1.0000 -0.1191841891
C   C74       1.0  0.67290  0.05460  0.60067  1.0000 -0.1191841891
C   C75       1.0  0.94540  0.61830  0.60067  1.0000 -0.1191841891
C   C76       1.0  0.61830  0.67290  0.10067  1.0000 -0.1191841891
C   C77       1.0  0.32710  0.94540  0.10067  1.0000 -0.1191841891
C   C78       1.0  0.05460  0.38170  0.10067  1.0000 -0.1191841891
C   C79       1.0  0.32710  0.38170  0.39933  1.0000 -0.1191841891
C   C80       1.0  0.05460  0.67290  0.39933  1.0000 -0.1191841891
C   C81       1.0  0.61830  0.94540  0.39933  1.0000 -0.1191841891
C   C82       1.0  0.67290  0.61830  0.89933  1.0000 -0.1191841891
C   C83       1.0  0.94540  0.32710  0.89933  1.0000 -0.1191841891
C   C84       1.0  0.38170  0.05460  0.89933  1.0000 -0.1191841891
C   C85       1.0  0.61830  0.67290  0.39933  1.0000 -0.1191841891
C   C86       1.0  0.32710  0.94540  0.39933  1.0000 -0.1191841891
C   C87       1.0  0.05460  0.38170  0.39933  1.0000 -0.1191841891
C   C88       1.0  0.38170  0.32710  0.89933  1.0000 -0.1191841891
C   C89       1.0  0.67290  0.05460  0.89933  1.0000 -0.1191841891
C   C90       1.0  0.94540  0.61830  0.89933  1.0000 -0.1191841891
C   C91       1.0  0.67290  0.61830  0.60067  1.0000 -0.1191841891
C   C92       1.0  0.94540  0.32710  0.60067  1.0000 -0.1191841891
C   C93       1.0  0.38170  0.05460  0.60067  1.0000 -0.1191841891
C   C94       1.0  0.32710  0.38170  0.10067  1.0000 -0.1191841891
C   C95       1.0  0.05460  0.67290  0.10067  1.0000 -0.1191841891
C   C96       1.0  0.61830  0.94540  0.10067  1.0000 -0.1191841891
C   C97       1.0  0.40980  0.32280  0.57922  1.0000 -0.0720902701
C   C98       1.0  0.67720  0.08700  0.57922  1.0000 -0.0720902701
C   C99       1.0  0.91300  0.59020  0.57922  1.0000 -0.0720902701
C   C100      1.0  0.59020  0.67720  0.07922  1.0000 -0.0720902701
C   C101      1.0  0.32280  0.91300  0.07922  1.0000 -0.0720902701
C   C102      1.0  0.08700  0.40980  0.07922  1.0000 -0.0720902701
C   C103      1.0  0.32280  0.40980  0.42078  1.0000 -0.0720902701
C   C104      1.0  0.08700  0.67720  0.42078  1.0000 -0.0720902701
C   C105      1.0  0.59020  0.91300  0.42078  1.0000 -0.0720902701
C   C106      1.0  0.67720  0.59020  0.92078  1.0000 -0.0720902701
C   C107      1.0  0.91300  0.32280  0.92078  1.0000 -0.0720902701
C   C108      1.0  0.40980  0.08700  0.92078  1.0000 -0.0720902701
C   C109      1.0  0.59020  0.67720  0.42078  1.0000 -0.0720902701
C   C110      1.0  0.32280  0.91300  0.42078  1.0000 -0.0720902701
C   C111      1.0  0.08700  0.40980  0.42078  1.0000 -0.0720902701
C   C112      1.0  0.40980  0.32280  0.92078  1.0000 -0.0720902701
C   C113      1.0  0.67720  0.08700  0.92078  1.0000 -0.0720902701
C   C114      1.0  0.91300  0.59020  0.92078  1.0000 -0.0720902701
C   C115      1.0  0.67720  0.59020  0.57922  1.0000 -0.0720902701
C   C116      1.0  0.91300  0.32280  0.57922  1.0000 -0.0720902701
C   C117      1.0  0.40980  0.08700  0.57922  1.0000 -0.0720902701
C   C118      1.0  0.32280  0.40980  0.07922  1.0000 -0.0720902701
C   C119      1.0  0.08700  0.67720  0.07922  1.0000 -0.0720902701
C   C120      1.0  0.59020  0.91300  0.07922  1.0000 -0.0720902701
C   C121      1.0  0.43533  0.35820  0.55877  1.0000 -0.0720902701
C   C122      1.0  0.64180  0.07713  0.55877  1.0000 -0.0720902701
C   C123      1.0  0.92287  0.56467  0.55877  1.0000 -0.0720902701
C   C124      1.0  0.56467  0.64180  0.05877  1.0000 -0.0720902701
C   C125      1.0  0.35820  0.92287  0.05877  1.0000 -0.0756229065
C   C126      1.0  0.07713  0.43533  0.05877  1.0000 -0.0720902701
C   C127      1.0  0.35820  0.43533  0.44123  1.0000 -0.0720902701
C   C128      1.0  0.07713  0.64180  0.44123  1.0000 -0.0720902701
C   C129      1.0  0.56467  0.92287  0.44123  1.0000 -0.0720902701
C   C130      1.0  0.64180  0.56467  0.94123  1.0000 -0.0720902701
C   C131      1.0  0.92287  0.35820  0.94123  1.0000 -0.0720902701
C   C132      1.0  0.43533  0.07713  0.94123  1.0000 -0.0720902701
C   C133      1.0  0.56467  0.64180  0.44123  1.0000 -0.0720902701
C   C134      1.0  0.35820  0.92287  0.44123  1.0000 -0.0720902701
C   C135      1.0  0.07713  0.43533  0.44123  1.0000 -0.0720902701
C   C136      1.0  0.43533  0.35820  0.94123  1.0000 -0.0720902701
C   C137      1.0  0.64180  0.07713  0.94123  1.0000 -0.0720902701
C   C138      1.0  0.92287  0.56467  0.94123  1.0000 -0.0720902701
C   C139      1.0  0.64180  0.56467  0.55877  1.0000 -0.0720902701
C   C140      1.0  0.92287  0.35820  0.55877  1.0000 -0.0720902701
C   C141      1.0  0.43533  0.07713  0.55877  1.0000 -0.0720902701
C   C142      1.0  0.35820  0.43533  0.05877  1.0000 -0.0720902701
C   C143      1.0  0.07713  0.64180  0.05877  1.0000 -0.0720902701
C   C144      1.0  0.56467  0.92287  0.05877  1.0000 -0.0756229065
C   C145      1.0  0.43271  0.39790  0.55976  1.0000 -0.0157279153
C   C146      1.0  0.60210  0.03481  0.55976  1.0000 -0.0157279153
C   C147      1.0  0.96519  0.56729  0.55976  1.0000 -0.0157279153
C   C148      1.0  0.56729  0.60210  0.05976  1.0000 -0.0157279153
C   C149      1.0  0.39790  0.96519  0.05976  1.0000 -0.0157279153
C   C150      1.0  0.03481  0.43271  0.05976  1.0000 -0.0157279153
C   C151      1.0  0.39790  0.43271  0.44024  1.0000 -0.0157279153
C   C152      1.0  0.03481  0.60210  0.44024  1.0000 -0.0157279153
C   C153      1.0  0.56729  0.96519  0.44024  1.0000 -0.0157279153
C   C154      1.0  0.60210  0.56729  0.94024  1.0000 -0.0157279153
C   C155      1.0  0.96519  0.39790  0.94024  1.0000 -0.0157279153
C   C156      1.0  0.43271  0.03481  0.94024  1.0000 -0.0157279153
C   C157      1.0  0.56729  0.60210  0.44024  1.0000 -0.0157279153
C   C158      1.0  0.39790  0.96519  0.44024  1.0000 -0.0157279153
C   C159      1.0  0.03481  0.43271  0.44024  1.0000 -0.0157279153
C   C160      1.0  0.43271  0.39790  0.94024  1.0000 -0.0157279153
C   C161      1.0  0.60210  0.03481  0.94024  1.0000 -0.0157279153
C   C162      1.0  0.96519  0.56729  0.94024  1.0000 -0.0157279153
C   C163      1.0  0.60210  0.56729  0.55976  1.0000 -0.0157279153
C   C164      1.0  0.96519  0.39790  0.55976  1.0000 -0.0157279153
C   C165      1.0  0.43271  0.03481  0.55976  1.0000 -0.0157279153
C   C166      1.0  0.39790  0.43271  0.05976  1.0000 -0.0157279153
C   C167      1.0  0.03481  0.60210  0.05976  1.0000 -0.0157279153
C   C168      1.0  0.56729  0.96519  0.05976  1.0000 -0.0157279153
C   C169      1.0  0.40460  0.40230  0.58121  1.0000 -0.1436883018
C   C170      1.0  0.59770  0.00230  0.58121  1.0000 -0.1436883018
C   C171      1.0  0.99770  0.59540  0.58121  1.0000 -0.1436883018
C   C172      1.0  0.59540  0.59770  0.08121  1.0000 -0.1436883018
C   C173      1.0  0.40230  0.99770  0.08121  1.0000 -0.1436883018
C   C174      1.0  0.00230  0.40460  0.08121  1.0000 -0.1436883018
C   C175      1.0  0.40230  0.40460  0.41879  1.0000 -0.1436883018
C   C176      1.0  0.00230  0.59770  0.41879  1.0000 -0.1436883018
C   C177      1.0  0.59540  0.99770  0.41879  1.0000 -0.1436883018
C   C178      1.0  0.59770  0.59540  0.91879  1.0000 -0.1436883018
C   C179      1.0  0.99770  0.40230  0.91879  1.0000 -0.1436883018
C   C180      1.0  0.40460  0.00230  0.91879  1.0000 -0.1436883018
C   C181      1.0  0.59540  0.59770  0.41879  1.0000 -0.1436883018
C   C182      1.0  0.40230  0.99770  0.41879  1.0000 -0.1436883018
C   C183      1.0  0.00230  0.40460  0.41879  1.0000 -0.1436883018
C   C184      1.0  0.40460  0.40230  0.91879  1.0000 -0.1436883018
C   C185      1.0  0.59770  0.00230  0.91879  1.0000 -0.1436883018
C   C186      1.0  0.99770  0.59540  0.91879  1.0000 -0.1436883018
C   C187      1.0  0.59770  0.59540  0.58121  1.0000 -0.1436883018
C   C188      1.0  0.99770  0.40230  0.58121  1.0000 -0.1436883018
C   C189      1.0  0.40460  0.00230  0.58121  1.0000 -0.1436883018
C   C190      1.0  0.40230  0.40460  0.08121  1.0000 -0.1436883018
C   C191      1.0  0.00230  0.59770  0.08121  1.0000 -0.1436883018
C   C192      1.0  0.59540  0.99770  0.08121  1.0000 -0.1436883018
C   C193      1.0  0.21140  0.38330  0.65244  1.0000 -0.1656711197
C   C194      1.0  0.61670  0.82810  0.65244  1.0000 -0.1656711197
C   C195      1.0  0.17190  0.78860  0.65244  1.0000 -0.1656711197
C   C196      1.0  0.78860  0.61670  0.15244  1.0000 -0.1656711197
C   C197      1.0  0.38330  0.17190  0.15244  1.0000 -0.1656711197
C   C198      1.0  0.82810  0.21140  0.15244  1.0000 -0.1656711197
C   C199      1.0  0.38330  0.21140  0.34756  1.0000 -0.1656711197
C   C200      1.0  0.82810  0.61670  0.34756  1.0000 -0.1656711197
C   C201      1.0  0.78860  0.17190  0.34756  1.0000 -0.1656711197
C   C202      1.0  0.61670  0.78860  0.84756  1.0000 -0.1656711197
C   C203      1.0  0.17190  0.38330  0.84756  1.0000 -0.1656711197
C   C204      1.0  0.21140  0.82810  0.84756  1.0000 -0.1656711197
C   C205      1.0  0.78860  0.61670  0.34756  1.0000 -0.1656711197
C   C206      1.0  0.38330  0.17190  0.34756  1.0000 -0.1656711197
C   C207      1.0  0.82810  0.21140  0.34756  1.0000 -0.1656711197
C   C208      1.0  0.21140  0.38330  0.84756  1.0000 -0.1656711197
C   C209      1.0  0.61670  0.82810  0.84756  1.0000 -0.1656711197
C   C210      1.0  0.17190  0.78860  0.84756  1.0000 -0.1656711197
C   C211      1.0  0.61670  0.78860  0.65244  1.0000 -0.1656711197
C   C212      1.0  0.17190  0.38330  0.65244  1.0000 -0.1656711197
C   C213      1.0  0.21140  0.82810  0.65244  1.0000 -0.1656711197
C   C214      1.0  0.38330  0.21140  0.15244  1.0000 -0.1656711197
C   C215      1.0  0.82810  0.61670  0.15244  1.0000 -0.1656711197
C   C216      1.0  0.78860  0.17190  0.15244  1.0000 -0.1656711197
C   C217      1.0  0.31560  0.38280  0.73437  1.0000 -0.1909484617
C   C218      1.0  0.61720  0.93280  0.73437  1.0000 -0.1909484617
C   C219      1.0  0.06720  0.68440  0.73437  1.0000 -0.1909484617
C   C220      1.0  0.68440  0.61720  0.23437  1.0000 -0.1909484617
C   C221      1.0  0.38280  0.06720  0.23437  1.0000 -0.1909484617
C   C222      1.0  0.93280  0.31560  0.23437  1.0000 -0.1909484617
C   C223      1.0  0.38280  0.31560  0.26563  1.0000 -0.1909484617
C   C224      1.0  0.93280  0.61720  0.26563  1.0000 -0.1909484617
C   C225      1.0  0.68440  0.06720  0.26563  1.0000 -0.1909484617
C   C226      1.0  0.61720  0.68440  0.76563  1.0000 -0.1909484617
C   C227      1.0  0.06720  0.38280  0.76563  1.0000 -0.1909484617
C   C228      1.0  0.31560  0.93280  0.76563  1.0000 -0.1909484617
C   C229      1.0  0.68440  0.61720  0.26563  1.0000 -0.1909484617
C   C230      1.0  0.38280  0.06720  0.26563  1.0000 -0.1909484617
C   C231      1.0  0.93280  0.31560  0.26563  1.0000 -0.1909484617
C   C232      1.0  0.31560  0.38280  0.76563  1.0000 -0.1909484617
C   C233      1.0  0.61720  0.93280  0.76563  1.0000 -0.1909484617
C   C234      1.0  0.06720  0.68440  0.76563  1.0000 -0.1909484617
C   C235      1.0  0.61720  0.68440  0.73437  1.0000 -0.1909484617
C   C236      1.0  0.06720  0.38280  0.73437  1.0000 -0.1909484617
C   C237      1.0  0.31560  0.93280  0.73437  1.0000 -0.1909484617
C   C238      1.0  0.38280  0.31560  0.23437  1.0000 -0.1909484617
C   C239      1.0  0.93280  0.61720  0.23437  1.0000 -0.1909484617
C   C240      1.0  0.68440  0.06720  0.23437  1.0000 -0.1909484617
C   C241      1.0  0.27430  0.38300  0.72590  1.0000 0.1794820177
C   C242      1.0  0.61700  0.89130  0.72590  1.0000 0.1794820177
C   C243      1.0  0.10870  0.72570  0.72590  1.0000 0.1794820177
C   C244      1.0  0.72570  0.61700  0.22590  1.0000 0.1794820177
C   C245      1.0  0.38300  0.10870  0.22590  1.0000 0.1794820177
C   C246      1.0  0.89130  0.27430  0.22590  1.0000 0.1794820177
C   C247      1.0  0.38300  0.27430  0.27410  1.0000 0.1794820177
C   C248      1.0  0.89130  0.61700  0.27410  1.0000 0.1794820177
C   C249      1.0  0.72570  0.10870  0.27410  1.0000 0.1794820177
C   C250      1.0  0.61700  0.72570  0.77410  1.0000 0.1794820177
C   C251      1.0  0.10870  0.38300  0.77410  1.0000 0.1794820177
C   C252      1.0  0.27430  0.89130  0.77410  1.0000 0.1794820177
C   C253      1.0  0.72570  0.61700  0.27410  1.0000 0.1794820177
C   C254      1.0  0.38300  0.10870  0.27410  1.0000 0.1794820177
C   C255      1.0  0.89130  0.27430  0.27410  1.0000 0.1794820177
C   C256      1.0  0.27430  0.38300  0.77410  1.0000 0.1794820177
C   C257      1.0  0.61700  0.89130  0.77410  1.0000 0.1794820177
C   C258      1.0  0.10870  0.72570  0.77410  1.0000 0.1794820177
C   C259      1.0  0.61700  0.72570  0.72590  1.0000 0.1794820177
C   C260      1.0  0.10870  0.38300  0.72590  1.0000 0.1794820177
C   C261      1.0  0.27430  0.89130  0.72590  1.0000 0.1794820177
C   C262      1.0  0.38300  0.27430  0.22590  1.0000 0.1794820177
C   C263      1.0  0.89130  0.61700  0.22590  1.0000 0.1794820177
C   C264      1.0  0.72570  0.10870  0.22590  1.0000 0.1794820177
C   C265      1.0  0.45890  0.43550  0.53690  1.0000 0.5764096625
C   C266      1.0  0.56450  0.02340  0.53690  1.0000 0.5764096625
C   C267      1.0  0.97660  0.54110  0.53690  1.0000 0.5764096625
C   C268      1.0  0.54110  0.56450  0.03690  1.0000 0.5764096625
C   C269      1.0  0.43550  0.97660  0.03690  1.0000 0.5764096625
C   C270      1.0  0.02340  0.45890  0.03690  1.0000 0.5764096625
C   C271      1.0  0.43550  0.45890  0.46310  1.0000 0.5764096625
C   C272      1.0  0.02340  0.56450  0.46310  1.0000 0.5764096625
C   C273      1.0  0.54110  0.97660  0.46310  1.0000 0.5764096625
C   C274      1.0  0.56450  0.54110  0.96310  1.0000 0.5764096625
C   C275      1.0  0.97660  0.43550  0.96310  1.0000 0.5764096625
C   C276      1.0  0.45890  0.02340  0.96310  1.0000 0.5764096625
C   C277      1.0  0.54110  0.56450  0.46310  1.0000 0.5764096625
C   C278      1.0  0.43550  0.97660  0.46310  1.0000 0.5764096625
C   C279      1.0  0.02340  0.45890  0.46310  1.0000 0.5764096625
C   C280      1.0  0.45890  0.43550  0.96310  1.0000 0.5764096625
C   C281      1.0  0.56450  0.02340  0.96310  1.0000 0.5764096625
C   C282      1.0  0.97660  0.54110  0.96310  1.0000 0.5764096625
C   C283      1.0  0.56450  0.54110  0.53690  1.0000 0.5764096625
C   C284      1.0  0.97660  0.43550  0.53690  1.0000 0.5764096625
C   C285      1.0  0.45890  0.02340  0.53690  1.0000 0.5764096625
C   C286      1.0  0.43550  0.45890  0.03690  1.0000 0.5764096625
C   C287      1.0  0.02340  0.56450  0.03690  1.0000 0.5764096625
C   C288      1.0  0.54110  0.97660  0.03690  1.0000 0.5764096625
C   C289      1.0  0.41090  0.28250  0.57820  1.0000 0.536460049
C   C290      1.0  0.71750  0.12840  0.57820  1.0000 0.536460049
C   C291      1.0  0.87160  0.58910  0.57820  1.0000 0.536460049
C   C292      1.0  0.58910  0.71750  0.07820  1.0000 0.536460049
C   C293      1.0  0.28250  0.87160  0.07820  1.0000 0.536460049
C   C294      1.0  0.12840  0.41090  0.07820  1.0000 0.536460049
C   C295      1.0  0.28250  0.41090  0.42180  1.0000 0.536460049
C   C296      1.0  0.12840  0.71750  0.42180  1.0000 0.536460049
C   C297      1.0  0.58910  0.87160  0.42180  1.0000 0.536460049
C   C298      1.0  0.71750  0.58910  0.92180  1.0000 0.536460049
C   C299      1.0  0.87160  0.28250  0.92180  1.0000 0.536460049
C   C300      1.0  0.41090  0.12840  0.92180  1.0000 0.536460049
C   C301      1.0  0.58910  0.71750  0.42180  1.0000 0.536460049
C   C302      1.0  0.28250  0.87160  0.42180  1.0000 0.536460049
C   C303      1.0  0.12840  0.41090  0.42180  1.0000 0.536460049
C   C304      1.0  0.41090  0.28250  0.92180  1.0000 0.536460049
C   C305      1.0  0.71750  0.12840  0.92180  1.0000 0.536460049
C   C306      1.0  0.87160  0.58910  0.92180  1.0000 0.536460049
C   C307      1.0  0.71750  0.58910  0.57820  1.0000 0.536460049
C   C308      1.0  0.87160  0.28250  0.57820  1.0000 0.536460049
C   C309      1.0  0.41090  0.12840  0.57820  1.0000 0.536460049
C   C310      1.0  0.28250  0.41090  0.07820  1.0000 0.536460049
C   C311      1.0  0.12840  0.71750  0.07820  1.0000 0.536460049
C   C312      1.0  0.58910  0.87160  0.07820  1.0000 0.536460049
C   C313      1.0  0.29260  0.37880  0.66932  1.0000 0.0950539731
C   C314      1.0  0.62120  0.91380  0.66932  1.0000 0.0950539731
C   C315      1.0  0.08620  0.70740  0.66932  1.0000 0.0950539731
C   C316      1.0  0.70740  0.62120  0.16932  1.0000 0.0950539731
C   C317      1.0  0.37880  0.08620  0.16932  1.0000 0.0950539731
C   C318      1.0  0.91380  0.29260  0.16932  1.0000 0.0950539731
C   C319      1.0  0.37880  0.29260  0.33068  1.0000 0.0950539731
C   C320      1.0  0.91380  0.62120  0.33068  1.0000 0.0950539731
C   C321      1.0  0.70740  0.08620  0.33068  1.0000 0.0950539731
C   C322      1.0  0.62120  0.70740  0.83068  1.0000 0.0950539731
C   C323      1.0  0.08620  0.37880  0.83068  1.0000 0.0950539731
C   C324      1.0  0.29260  0.91380  0.83068  1.0000 0.0950539731
C   C325      1.0  0.70740  0.62120  0.33068  1.0000 0.0950539731
C   C326      1.0  0.37880  0.08620  0.33068  1.0000 0.0950539731
C   C327      1.0  0.91380  0.29260  0.33068  1.0000 0.0950539731
C   C328      1.0  0.29260  0.37880  0.83068  1.0000 0.0950539731
C   C329      1.0  0.62120  0.91380  0.83068  1.0000 0.0950539731
C   C330      1.0  0.08620  0.70740  0.83068  1.0000 0.0950539731
C   C331      1.0  0.62120  0.70740  0.66932  1.0000 0.0950539731
C   C332      1.0  0.08620  0.37880  0.66932  1.0000 0.0950539731
C   C333      1.0  0.29260  0.91380  0.66932  1.0000 0.0950539731
C   C334      1.0  0.37880  0.29260  0.16932  1.0000 0.0950539731
C   C335      1.0  0.91380  0.62120  0.16932  1.0000 0.0950539731
C   C336      1.0  0.70740  0.08620  0.16932  1.0000 0.0950539731
C   C337      1.0  0.33420  0.41640  0.66129  1.0000 -0.1597162512
C   C338      1.0  0.58360  0.91780  0.66129  1.0000 -0.1597162512
C   C339      1.0  0.08220  0.66580  0.66129  1.0000 -0.1597162512
C   C340      1.0  0.66580  0.58360  0.16129  1.0000 -0.1597162512
C   C341      1.0  0.41640  0.08220  0.16129  1.0000 -0.1597162512
C   C342      1.0  0.91780  0.33420  0.16129  1.0000 -0.1597162512
C   C343      1.0  0.41640  0.33420  0.33871  1.0000 -0.1597162512
C   C344      1.0  0.91780  0.58360  0.33871  1.0000 -0.1597162512
C   C345      1.0  0.66580  0.08220  0.33871  1.0000 -0.1597162512
C   C346      1.0  0.58360  0.66580  0.83871  1.0000 -0.1597162512
C   C347      1.0  0.08220  0.41640  0.83871  1.0000 -0.1597162512
C   C348      1.0  0.33420  0.91780  0.83871  1.0000 -0.1597162512
C   C349      1.0  0.66580  0.58360  0.33871  1.0000 -0.1597162512
C   C350      1.0  0.41640  0.08220  0.33871  1.0000 -0.1597162512
C   C351      1.0  0.91780  0.33420  0.33871  1.0000 -0.1597162512
C   C352      1.0  0.33420  0.41640  0.83871  1.0000 -0.1597162512
C   C353      1.0  0.58360  0.91780  0.83871  1.0000 -0.1597162512
C   C354      1.0  0.08220  0.66580  0.83871  1.0000 -0.1597162512
C   C355      1.0  0.58360  0.66580  0.66129  1.0000 -0.1597162512
C   C356      1.0  0.08220  0.41640  0.66129  1.0000 -0.1597162512
C   C357      1.0  0.33420  0.91780  0.66129  1.0000 -0.1597162512
C   C358      1.0  0.41640  0.33420  0.16129  1.0000 -0.1597162512
C   C359      1.0  0.91780  0.58360  0.16129  1.0000 -0.1597162512
C   C360      1.0  0.66580  0.08220  0.16129  1.0000 -0.1597162512
C   C361      1.0  0.36180  0.41200  0.63940  1.0000 -0.1436883018
C   C362      1.0  0.58800  0.94980  0.63940  1.0000 -0.1436883018
C   C363      1.0  0.05020  0.63820  0.63940  1.0000 -0.1436883018
C   C364      1.0  0.63820  0.58800  0.13940  1.0000 -0.1436883018
C   C365      1.0  0.41200  0.05020  0.13940  1.0000 -0.1436883018
C   C366      1.0  0.94980  0.36180  0.13940  1.0000 -0.1436883018
C   C367      1.0  0.41200  0.36180  0.36060  1.0000 -0.1436883018
C   C368      1.0  0.94980  0.58800  0.36060  1.0000 -0.1436883018
C   C369      1.0  0.63820  0.05020  0.36060  1.0000 -0.1436883018
C   C370      1.0  0.58800  0.63820  0.86060  1.0000 -0.1436883018
C   C371      1.0  0.05020  0.41200  0.86060  1.0000 -0.1436883018
C   C372      1.0  0.36180  0.94980  0.86060  1.0000 -0.1436883018
C   C373      1.0  0.63820  0.58800  0.36060  1.0000 -0.1436883018
C   C374      1.0  0.41200  0.05020  0.36060  1.0000 -0.1436883018
C   C375      1.0  0.94980  0.36180  0.36060  1.0000 -0.1436883018
C   C376      1.0  0.36180  0.41200  0.86060  1.0000 -0.1436883018
C   C377      1.0  0.58800  0.94980  0.86060  1.0000 -0.1436883018
C   C378      1.0  0.05020  0.63820  0.86060  1.0000 -0.1436883018
C   C379      1.0  0.58800  0.63820  0.63940  1.0000 -0.1436883018
C   C380      1.0  0.05020  0.41200  0.63940  1.0000 -0.1436883018
C   C381      1.0  0.36180  0.94980  0.63940  1.0000 -0.1436883018
C   C382      1.0  0.41200  0.36180  0.13940  1.0000 -0.1436883018
C   C383      1.0  0.94980  0.58800  0.13940  1.0000 -0.1436883018
C   C384      1.0  0.63820  0.05020  0.13940  1.0000 -0.1436883018
C   C385      1.0  0.34760  0.37000  0.62547  1.0000 0.0682934164
C   C386      1.0  0.63000  0.97760  0.62547  1.0000 0.0682934164
C   C387      1.0  0.02240  0.65240  0.62547  1.0000 0.0682934164
C   C388      1.0  0.65240  0.63000  0.12547  1.0000 0.0682934164
C   C389      1.0  0.37000  0.02240  0.12547  1.0000 0.0682934164
C   C390      1.0  0.97760  0.34760  0.12547  1.0000 0.0682934164
C   C391      1.0  0.37000  0.34760  0.37453  1.0000 0.0682934164
C   C392      1.0  0.97760  0.63000  0.37453  1.0000 0.0682934164
C   C393      1.0  0.65240  0.02240  0.37453  1.0000 0.0682934164
C   C394      1.0  0.63000  0.65240  0.87453  1.0000 0.0682934164
C   C395      1.0  0.02240  0.37000  0.87453  1.0000 0.0682934164
C   C396      1.0  0.34760  0.97760  0.87453  1.0000 0.0682934164
C   C397      1.0  0.65240  0.63000  0.37453  1.0000 0.0682934164
C   C398      1.0  0.37000  0.02240  0.37453  1.0000 0.0682934164
C   C399      1.0  0.97760  0.34760  0.37453  1.0000 0.0682934164
C   C400      1.0  0.34760  0.37000  0.87453  1.0000 0.0682934164
C   C401      1.0  0.63000  0.97760  0.87453  1.0000 0.0682934164
C   C402      1.0  0.02240  0.65240  0.87453  1.0000 0.0682934164
C   C403      1.0  0.63000  0.65240  0.62547  1.0000 0.0682934164
C   C404      1.0  0.02240  0.37000  0.62547  1.0000 0.0682934164
C   C405      1.0  0.34760  0.97760  0.62547  1.0000 0.0682934164
C   C406      1.0  0.37000  0.34760  0.12547  1.0000 0.0682934164
C   C407      1.0  0.97760  0.63000  0.12547  1.0000 0.0682934164
C   C408      1.0  0.65240  0.02240  0.12547  1.0000 0.0682934164
C   C409      1.0  0.30590  0.33230  0.63351  1.0000 -0.1476152492
C   C410      1.0  0.66770  0.97360  0.63351  1.0000 -0.1476152492
C   C411      1.0  0.02640  0.69410  0.63351  1.0000 -0.1476152492
C   C412      1.0  0.69410  0.66770  0.13351  1.0000 -0.1476152492
C   C413      1.0  0.33230  0.02640  0.13351  1.0000 -0.1476152492
C   C414      1.0  0.97360  0.30590  0.13351  1.0000 -0.1476152492
C   C415      1.0  0.33230  0.30590  0.36649  1.0000 -0.1476152492
C   C416      1.0  0.97360  0.66770  0.36649  1.0000 -0.1476152492
C   C417      1.0  0.69410  0.02640  0.36649  1.0000 -0.1476152492
C   C418      1.0  0.66770  0.69410  0.86649  1.0000 -0.1476152492
C   C419      1.0  0.02640  0.33230  0.86649  1.0000 -0.1476152492
C   C420      1.0  0.30590  0.97360  0.86649  1.0000 -0.1476152492
C   C421      1.0  0.69410  0.66770  0.36649  1.0000 -0.1476152492
C   C422      1.0  0.33230  0.02640  0.36649  1.0000 -0.1476152492
C   C423      1.0  0.97360  0.30590  0.36649  1.0000 -0.1476152492
C   C424      1.0  0.30590  0.33230  0.86649  1.0000 -0.1476152492
C   C425      1.0  0.66770  0.97360  0.86649  1.0000 -0.1476152492
C   C426      1.0  0.02640  0.69410  0.86649  1.0000 -0.1476152492
C   C427      1.0  0.66770  0.69410  0.63351  1.0000 -0.1476152492
C   C428      1.0  0.02640  0.33230  0.63351  1.0000 -0.1476152492
C   C429      1.0  0.30590  0.97360  0.63351  1.0000 -0.1476152492
C   C430      1.0  0.33230  0.30590  0.13351  1.0000 -0.1476152492
C   C431      1.0  0.97360  0.66770  0.13351  1.0000 -0.1476152492
C   C432      1.0  0.69410  0.02640  0.13351  1.0000 -0.1476152492
C   C433      1.0  0.27839  0.33670  0.65543  1.0000 -0.1597162512
C   C434      1.0  0.66330  0.94169  0.65543  1.0000 -0.1597162512
C   C435      1.0  0.05831  0.72161  0.65543  1.0000 -0.1597162512
C   C436      1.0  0.72161  0.66330  0.15543  1.0000 -0.1597162512
C   C437      1.0  0.33670  0.05831  0.15543  1.0000 -0.1597162512
C   C438      1.0  0.94169  0.27839  0.15543  1.0000 -0.1597162512
C   C439      1.0  0.33670  0.27839  0.34457  1.0000 -0.1597162512
C   C440      1.0  0.94169  0.66330  0.34457  1.0000 -0.1597162512
C   C441      1.0  0.72161  0.05831  0.34457  1.0000 -0.1597162512
C   C442      1.0  0.66330  0.72161  0.84457  1.0000 -0.1597162512
C   C443      1.0  0.05831  0.33670  0.84457  1.0000 -0.1597162512
C   C444      1.0  0.27839  0.94169  0.84457  1.0000 -0.1597162512
C   C445      1.0  0.72161  0.66330  0.34457  1.0000 -0.1597162512
C   C446      1.0  0.33670  0.05831  0.34457  1.0000 -0.1597162512
C   C447      1.0  0.94169  0.27839  0.34457  1.0000 -0.1597162512
C   C448      1.0  0.27839  0.33670  0.84457  1.0000 -0.1597162512
C   C449      1.0  0.66330  0.94169  0.84457  1.0000 -0.1597162512
C   C450      1.0  0.05831  0.72161  0.84457  1.0000 -0.1597162512
C   C451      1.0  0.66330  0.72161  0.65543  1.0000 -0.1597162512
C   C452      1.0  0.05831  0.33670  0.65543  1.0000 -0.1597162512
C   C453      1.0  0.27839  0.94169  0.65543  1.0000 -0.1597162512
C   C454      1.0  0.33670  0.27839  0.15543  1.0000 -0.1597162512
C   C455      1.0  0.94169  0.66330  0.15543  1.0000 -0.1597162512
C   C456      1.0  0.72161  0.05831  0.15543  1.0000 -0.1597162512
C   C457      1.0  0.35090  0.17545  0.53660  1.0000 0.4265418767
C   C458      1.0  0.82455  0.17545  0.53660  1.0000 0.4265418767
C   C459      1.0  0.82455  0.64910  0.53660  1.0000 0.4265418767
C   C460      1.0  0.64910  0.82455  0.03660  1.0000 0.4265418767
C   C461      1.0  0.17545  0.82455  0.03660  1.0000 0.4241251596
C   C462      1.0  0.17545  0.35090  0.03660  1.0000 0.4241251596
C   C463      1.0  0.17545  0.35090  0.46340  1.0000 0.4241251596
C   C464      1.0  0.17545  0.82455  0.46340  1.0000 0.4241251596
C   C465      1.0  0.64910  0.82455  0.46340  1.0000 0.4265418767
C   C466      1.0  0.82455  0.64910  0.96340  1.0000 0.4265418767
C   C467      1.0  0.82455  0.17545  0.96340  1.0000 0.4265418767
C   C468      1.0  0.35090  0.17545  0.96340  1.0000 0.4241251596
C   C469      1.0  0.47890  0.23945  0.61840  1.0000 0.4430675082
C   C470      1.0  0.76055  0.23945  0.61840  1.0000 0.4430675082
C   C471      1.0  0.76055  0.52110  0.61840  1.0000 0.4430675082
C   C472      1.0  0.52110  0.76055  0.11840  1.0000 0.4430675082
C   C473      1.0  0.23945  0.76055  0.11840  1.0000 0.4430675082
C   C474      1.0  0.23945  0.47890  0.11840  1.0000 0.4430675082
C   C475      1.0  0.23945  0.47890  0.38160  1.0000 0.4430675082
C   C476      1.0  0.23945  0.76055  0.38160  1.0000 0.4430675082
C   C477      1.0  0.52110  0.76055  0.38160  1.0000 0.4430675082
C   C478      1.0  0.76055  0.52110  0.88160  1.0000 0.4430675082
C   C479      1.0  0.76055  0.23945  0.88160  1.0000 0.4430675082
C   C480      1.0  0.47890  0.23945  0.88160  1.0000 0.4430675082
N   N1        1.0  0.19230  0.38460  0.70400  1.0000 -0.3271217596
N   N2        1.0  0.61540  0.80770  0.70400  1.0000 -0.3271217596
N   N3        1.0  0.19230  0.80770  0.70400  1.0000 -0.3271217596
N   N4        1.0  0.80770  0.61540  0.20400  1.0000 -0.3271217596
N   N5        1.0  0.38460  0.19230  0.20400  1.0000 -0.3271217596
N   N6        1.0  0.80770  0.19230  0.20400  1.0000 -0.3271217596
N   N7        1.0  0.38460  0.19230  0.29600  1.0000 -0.3271217596
N   N8        1.0  0.80770  0.61540  0.29600  1.0000 -0.3271217596
N   N9        1.0  0.80770  0.19230  0.29600  1.0000 -0.3271217596
N   N10       1.0  0.61540  0.80770  0.79600  1.0000 -0.3271217596
N   N11       1.0  0.19230  0.38460  0.79600  1.0000 -0.3271217596
N   N12       1.0  0.19230  0.80770  0.79600  1.0000 -0.3271217596
N   N13       1.0  0.25080  0.38530  0.75000  1.0000 -0.31037127
N   N14       1.0  0.61470  0.86550  0.75000  1.0000 -0.31037127
N   N15       1.0  0.13450  0.74920  0.75000  1.0000 -0.31037127
N   N16       1.0  0.74920  0.61470  0.25000  1.0000 -0.31037127
N   N17       1.0  0.38530  0.13450  0.25000  1.0000 -0.31037127
N   N18       1.0  0.86550  0.25080  0.25000  1.0000 -0.31037127
N   N19       1.0  0.38530  0.25080  0.25000  1.0000 -0.31037127
N   N20       1.0  0.86550  0.61470  0.25000  1.0000 -0.31037127
N   N21       1.0  0.74920  0.13450  0.25000  1.0000 -0.31037127
N   N22       1.0  0.61470  0.74920  0.75000  1.0000 -0.31037127
N   N23       1.0  0.13450  0.38530  0.75000  1.0000 -0.31037127
N   N24       1.0  0.25080  0.86550  0.75000  1.0000 -0.31037127
O   O1        1.0  0.45037  0.46784  0.53840  1.0000 -0.5278808328
O   O2        1.0  0.53216  0.98253  0.53840  1.0000 -0.5278808328
O   O3        1.0  0.01747  0.54963  0.53840  1.0000 -0.5278808328
O   O4        1.0  0.54963  0.53216  0.03840  1.0000 -0.5278808328
O   O5        1.0  0.46784  0.01747  0.03840  1.0000 -0.5278808328
O   O6        1.0  0.98253  0.45037  0.03840  1.0000 -0.5278808328
O   O7        1.0  0.46784  0.45037  0.46160  1.0000 -0.5278808328
O   O8        1.0  0.98253  0.53216  0.46160  1.0000 -0.5278808328
O   O9        1.0  0.54963  0.01747  0.46160  1.0000 -0.5278808328
O   O10       1.0  0.53216  0.54963  0.96160  1.0000 -0.5278808328
O   O11       1.0  0.01747  0.46784  0.96160  1.0000 -0.5278808328
O   O12       1.0  0.45037  0.98253  0.96160  1.0000 -0.5278808328
O   O13       1.0  0.54963  0.53216  0.46160  1.0000 -0.5278808328
O   O14       1.0  0.46784  0.01747  0.46160  1.0000 -0.5278808328
O   O15       1.0  0.98253  0.45037  0.46160  1.0000 -0.5278808328
O   O16       1.0  0.45037  0.46784  0.96160  1.0000 -0.5278808328
O   O17       1.0  0.53216  0.98253  0.96160  1.0000 -0.5278808328
O   O18       1.0  0.01747  0.54963  0.96160  1.0000 -0.5278808328
O   O19       1.0  0.53216  0.54963  0.53840  1.0000 -0.5278808328
O   O20       1.0  0.01747  0.46784  0.53840  1.0000 -0.5278808328
O   O21       1.0  0.45037  0.98253  0.53840  1.0000 -0.5278808328
O   O22       1.0  0.46784  0.45037  0.03840  1.0000 -0.5278808328
O   O23       1.0  0.98253  0.53216  0.03840  1.0000 -0.5278808328
O   O24       1.0  0.54963  0.01747  0.03840  1.0000 -0.5278808328
O   O25       1.0  0.48650  0.43080  0.52048  1.0000 -0.4998219642
O   O26       1.0  0.56920  0.05570  0.52048  1.0000 -0.4998219642
O   O27       1.0  0.94430  0.51350  0.52048  1.0000 -0.4998219642
O   O28       1.0  0.51350  0.56920  0.02048  1.0000 -0.4998219642
O   O29       1.0  0.43080  0.94430  0.02048  1.0000 -0.4998219642
O   O30       1.0  0.05570  0.48650  0.02048  1.0000 -0.4998219642
O   O31       1.0  0.43080  0.48650  0.47952  1.0000 -0.4998219642
O   O32       1.0  0.05570  0.56920  0.47952  1.0000 -0.4998219642
O   O33       1.0  0.51350  0.94430  0.47952  1.0000 -0.4998219642
O   O34       1.0  0.56920  0.51350  0.97952  1.0000 -0.4998219642
O   O35       1.0  0.94430  0.43080  0.97952  1.0000 -0.4998219642
O   O36       1.0  0.48650  0.05570  0.97952  1.0000 -0.4998219642
O   O37       1.0  0.51350  0.56920  0.47952  1.0000 -0.4998219642
O   O38       1.0  0.43080  0.94430  0.47952  1.0000 -0.4998219642
O   O39       1.0  0.05570  0.48650  0.47952  1.0000 -0.4998219642
O   O40       1.0  0.48650  0.43080  0.97952  1.0000 -0.4998219642
O   O41       1.0  0.56920  0.05570  0.97952  1.0000 -0.4998219642
O   O42       1.0  0.94430  0.51350  0.97952  1.0000 -0.4998219642
O   O43       1.0  0.56920  0.51350  0.52048  1.0000 -0.4998219642
O   O44       1.0  0.94430  0.43080  0.52048  1.0000 -0.4998219642
O   O45       1.0  0.48650  0.05570  0.52048  1.0000 -0.4998219642
O   O46       1.0  0.43080  0.48650  0.02048  1.0000 -0.4998219642
O   O47       1.0  0.05570  0.56920  0.02048  1.0000 -0.4998219642
O   O48       1.0  0.51350  0.94430  0.02048  1.0000 -0.4998219642
O   O49       1.0  0.43650  0.27730  0.55961  1.0000 -0.4998219642
O   O50       1.0  0.72270  0.15920  0.55961  1.0000 -0.4998219642
O   O51       1.0  0.84080  0.56350  0.55961  1.0000 -0.4998219642
O   O52       1.0  0.56350  0.72270  0.05961  1.0000 -0.4998219642
O   O53       1.0  0.27730  0.84080  0.05961  1.0000 -0.4998219642
O   O54       1.0  0.15920  0.43650  0.05961  1.0000 -0.4998219642
O   O55       1.0  0.27730  0.43650  0.44039  1.0000 -0.4998219642
O   O56       1.0  0.15920  0.72270  0.44039  1.0000 -0.4998219642
O   O57       1.0  0.56350  0.84080  0.44039  1.0000 -0.4998219642
O   O58       1.0  0.72270  0.56350  0.94039  1.0000 -0.4998219642
O   O59       1.0  0.84080  0.27730  0.94039  1.0000 -0.4998219642
O   O60       1.0  0.43650  0.15920  0.94039  1.0000 -0.4998219642
O   O61       1.0  0.56350  0.72270  0.44039  1.0000 -0.4998219642
O   O62       1.0  0.27730  0.84080  0.44039  1.0000 -0.4998219642
O   O63       1.0  0.15920  0.43650  0.44039  1.0000 -0.4998219642
O   O64       1.0  0.43650  0.27730  0.94039  1.0000 -0.4998219642
O   O65       1.0  0.72270  0.15920  0.94039  1.0000 -0.4998219642
O   O66       1.0  0.84080  0.56350  0.94039  1.0000 -0.4998219642
O   O67       1.0  0.72270  0.56350  0.55961  1.0000 -0.4998219642
O   O68       1.0  0.84080  0.27730  0.55961  1.0000 -0.4998219642
O   O69       1.0  0.43650  0.15920  0.55961  1.0000 -0.4998219642
O   O70       1.0  0.27730  0.43650  0.05961  1.0000 -0.4998219642
O   O71       1.0  0.15920  0.72270  0.05961  1.0000 -0.4998219642
O   O72       1.0  0.56350  0.84080  0.05961  1.0000 -0.4998219642
O   O73       1.0  0.38700  0.24980  0.59758  1.0000 -0.5278808328
O   O74       1.0  0.75020  0.13720  0.59758  1.0000 -0.5278808328
O   O75       1.0  0.86280  0.61300  0.59758  1.0000 -0.5278808328
O   O76       1.0  0.61300  0.75020  0.09758  1.0000 -0.5278808328
O   O77       1.0  0.24980  0.86280  0.09758  1.0000 -0.5278808328
O   O78       1.0  0.13720  0.38700  0.09758  1.0000 -0.5278808328
O   O79       1.0  0.24980  0.38700  0.40242  1.0000 -0.5278808328
O   O80       1.0  0.13720  0.75020  0.40242  1.0000 -0.5278808328
O   O81       1.0  0.61300  0.86280  0.40242  1.0000 -0.5278808328
O   O82       1.0  0.75020  0.61300  0.90242  1.0000 -0.5278808328
O   O83       1.0  0.86280  0.24980  0.90242  1.0000 -0.5278808328
O   O84       1.0  0.38700  0.13720  0.90242  1.0000 -0.5278808328
O   O85       1.0  0.61300  0.75020  0.40242  1.0000 -0.5278808328
O   O86       1.0  0.24980  0.86280  0.40242  1.0000 -0.5278808328
O   O87       1.0  0.13720  0.38700  0.40242  1.0000 -0.5278808328
O   O88       1.0  0.38700  0.24980  0.90242  1.0000 -0.5278808328
O   O89       1.0  0.75020  0.13720  0.90242  1.0000 -0.5278808328
O   O90       1.0  0.86280  0.61300  0.90242  1.0000 -0.5278808328
O   O91       1.0  0.75020  0.61300  0.59758  1.0000 -0.5278808328
O   O92       1.0  0.86280  0.24980  0.59758  1.0000 -0.5278808328
O   O93       1.0  0.38700  0.13720  0.59758  1.0000 -0.5278808328
O   O94       1.0  0.24980  0.38700  0.09758  1.0000 -0.5278808328
O   O95       1.0  0.13720  0.75020  0.09758  1.0000 -0.5278808328
O   O96       1.0  0.61300  0.86280  0.09758  1.0000 -0.5278808328
O   O97       1.0  0.43740  0.21870  0.62640  1.0000 -0.476334875
O   O98       1.0  0.78130  0.21870  0.62640  1.0000 -0.476334875
O   O99       1.0  0.78130  0.56260  0.62640  1.0000 -0.476334875
O   O100      1.0  0.56260  0.78130  0.12640  1.0000 -0.476334875
O   O101      1.0  0.21870  0.78130  0.12640  1.0000 -0.476334875
O   O102      1.0  0.21870  0.43740  0.12640  1.0000 -0.476334875
O   O103      1.0  0.21870  0.43740  0.37360  1.0000 -0.476334875
O   O104      1.0  0.21870  0.78130  0.37360  1.0000 -0.476334875
O   O105      1.0  0.56260  0.78130  0.37360  1.0000 -0.476334875
O   O106      1.0  0.78130  0.56260  0.87360  1.0000 -0.476334875
O   O107      1.0  0.78130  0.21870  0.87360  1.0000 -0.476334875
O   O108      1.0  0.43740  0.21870  0.87360  1.0000 -0.476334875
O   O109      1.0  0.39050  0.19525  0.52730  1.0000 -0.452799236
O   O110      1.0  0.80475  0.19525  0.52730  1.0000 -0.455627536
O   O111      1.0  0.80475  0.60950  0.52730  1.0000 -0.455627536
O   O112      1.0  0.60950  0.80475  0.02730  1.0000 -0.452799236
O   O113      1.0  0.19525  0.80475  0.02730  1.0000 -0.452799236
O   O114      1.0  0.19525  0.39050  0.02730  1.0000 -0.452799236
O   O115      1.0  0.19525  0.39050  0.47270  1.0000 -0.452799236
O   O116      1.0  0.19525  0.80475  0.47270  1.0000 -0.452799236
O   O117      1.0  0.60950  0.80475  0.47270  1.0000 -0.452799236
O   O118      1.0  0.80475  0.60950  0.97270  1.0000 -0.452799236
O   O119      1.0  0.80475  0.19525  0.97270  1.0000 -0.452799236
O   O120      1.0  0.39050  0.19525  0.97270  1.0000 -0.452799236
O   O121      1.0  0.34100  0.17050  0.56400  1.0000 -0.4703997401
O   O122      1.0  0.82950  0.17050  0.56400  1.0000 -0.4703997401
O   O123      1.0  0.82950  0.65900  0.56400  1.0000 -0.4703997401
O   O124      1.0  0.65900  0.82950  0.06400  1.0000 -0.4703997401
O   O125      1.0  0.17050  0.82950  0.06400  1.0000 -0.4703997401
O   O126      1.0  0.17050  0.34100  0.06400  1.0000 -0.4703997401
O   O127      1.0  0.17050  0.34100  0.43600  1.0000 -0.4703997401
O   O128      1.0  0.17050  0.82950  0.43600  1.0000 -0.4703997401
O   O129      1.0  0.65900  0.82950  0.43600  1.0000 -0.4703997401
O   O130      1.0  0.82950  0.65900  0.93600  1.0000 -0.4703997401
O   O131      1.0  0.82950  0.17050  0.93600  1.0000 -0.4703997401
O   O132      1.0  0.34100  0.17050  0.93600  1.0000 -0.4703997401
O   O133      1.0  0.48790  0.24395  0.59110  1.0000 -0.452799236
O   O134      1.0  0.75605  0.24395  0.59110  1.0000 -0.452799236
O   O135      1.0  0.75605  0.51210  0.59110  1.0000 -0.452799236
O   O136      1.0  0.51210  0.75605  0.09110  1.0000 -0.452799236
O   O137      1.0  0.24395  0.75605  0.09110  1.0000 -0.452799236
O   O138      1.0  0.24395  0.48790  0.09110  1.0000 -0.452799236
O   O139      1.0  0.24395  0.48790  0.40890  1.0000 -0.452799236
O   O140      1.0  0.24395  0.75605  0.40890  1.0000 -0.452799236
O   O141      1.0  0.51210  0.75605  0.40890  1.0000 -0.452799236
O   O142      1.0  0.75605  0.51210  0.90890  1.0000 -0.452799236
O   O143      1.0  0.75605  0.24395  0.90890  1.0000 -0.452799236
O   O144      1.0  0.48790  0.24395  0.90890  1.0000 -0.452799236
