# DDEC6 charges by PACMAN v1.1 (https://github.com/mtap-research/PACMAN-charge/)
data_2014[Zn][sod]3[ASR]2
_chemical_formula_sum              "Zn6 H60 C84 N24"
_cell_length_a       14.2833
_cell_length_b       14.2833
_cell_length_c       14.2833
_cell_angle_alpha    107.282
_cell_angle_beta     107.282
_cell_angle_gamma    107.282

_symmetry_space_group_name_H-M    "P 1"
_symmetry_Int_Tables_number       1

loop_
  _symmetry_equiv_pos_as_xyz
  'x, y, z'

loop_
  _atom_site_type_symbol
  _atom_site_label
  _atom_site_symmetry_multiplicity
  _atom_site_fract_x
  _atom_site_fract_y
  _atom_site_fract_z
  _atom_site_occupancy
  _atom_site_charge
Zn  Zn1       1.0  0.71482  0.25488  0.99219  1.0000 0.6466186132
Zn  Zn2       1.0  0.99219  0.71482  0.25488  1.0000 0.6466186132
Zn  Zn3       1.0  0.25488  0.99219  0.71482  1.0000 0.6466186132
Zn  Zn4       1.0  0.28518  0.74512  0.00781  1.0000 0.6466186132
Zn  Zn5       1.0  0.00781  0.28518  0.74512  1.0000 0.6466186132
Zn  Zn6       1.0  0.74512  0.00781  0.28518  1.0000 0.6466186132
H   H1        1.0  0.90900  0.48347  0.10413  1.0000 0.099193173
H   H2        1.0  0.10413  0.90900  0.48347  1.0000 0.099193173
H   H3        1.0  0.48347  0.10413  0.90900  1.0000 0.099193173
H   H4        1.0  0.09100  0.51653  0.89587  1.0000 0.099193173
H   H5        1.0  0.89587  0.09100  0.51653  1.0000 0.099193173
H   H6        1.0  0.51653  0.89587  0.09100  1.0000 0.099193173
H   H7        1.0  0.58823  0.29790  0.13250  1.0000 0.1269352677
H   H8        1.0  0.13250  0.58823  0.29790  1.0000 0.1269352677
H   H9        1.0  0.29790  0.13250  0.58823  1.0000 0.1269352677
H   H10       1.0  0.41177  0.70210  0.86750  1.0000 0.1269352677
H   H11       1.0  0.86750  0.41177  0.70210  1.0000 0.1269352677
H   H12       1.0  0.70210  0.86750  0.41177  1.0000 0.1269352677
H   H13       1.0  0.53384  0.39390  0.24958  1.0000 0.1088730657
H   H14       1.0  0.24958  0.53384  0.39390  1.0000 0.1088730657
H   H15       1.0  0.39390  0.24958  0.53384  1.0000 0.1088730657
H   H16       1.0  0.46616  0.60610  0.75042  1.0000 0.1088730657
H   H17       1.0  0.75042  0.46616  0.60610  1.0000 0.1088730657
H   H18       1.0  0.60610  0.75042  0.46616  1.0000 0.1088730657
H   H19       1.0  0.63328  0.57917  0.35518  1.0000 0.1088730657
H   H20       1.0  0.35518  0.63328  0.57917  1.0000 0.1088730657
H   H21       1.0  0.57917  0.35518  0.63328  1.0000 0.1088730657
H   H22       1.0  0.36672  0.42083  0.64482  1.0000 0.1088730657
H   H23       1.0  0.64482  0.36672  0.42083  1.0000 0.1088730657
H   H24       1.0  0.42083  0.64482  0.36672  1.0000 0.1088730657
H   H25       1.0  0.79104  0.67249  0.34682  1.0000 0.1269352677
H   H26       1.0  0.34682  0.79104  0.67249  1.0000 0.1269352677
H   H27       1.0  0.67249  0.34682  0.79104  1.0000 0.1269352677
H   H28       1.0  0.20896  0.32751  0.65318  1.0000 0.1269352677
H   H29       1.0  0.65318  0.20896  0.32751  1.0000 0.1269352677
H   H30       1.0  0.32751  0.65318  0.20896  1.0000 0.1269352677
H   H31       1.0  0.79564  0.25403  0.78514  1.0000 0.099193173
H   H32       1.0  0.78514  0.79564  0.25403  1.0000 0.099193173
H   H33       1.0  0.25403  0.78514  0.79564  1.0000 0.099193173
H   H34       1.0  0.20436  0.74597  0.21486  1.0000 0.099193173
H   H35       1.0  0.21486  0.20436  0.74597  1.0000 0.099193173
H   H36       1.0  0.74597  0.21486  0.20436  1.0000 0.099193173
H   H37       1.0  0.17012  0.34605  0.97509  1.0000 0.1269352677
H   H38       1.0  0.97509  0.17012  0.34605  1.0000 0.1269352677
H   H39       1.0  0.34605  0.97509  0.17012  1.0000 0.1269352677
H   H40       1.0  0.82988  0.65395  0.02491  1.0000 0.1269352677
H   H41       1.0  0.02491  0.82988  0.65395  1.0000 0.1269352677
H   H42       1.0  0.65395  0.02491  0.82988  1.0000 0.1269352677
H   H43       1.0  0.94649  0.32271  0.15975  1.0000 0.1194155153
H   H44       1.0  0.15975  0.94649  0.32271  1.0000 0.1194155153
H   H45       1.0  0.32271  0.15975  0.94649  1.0000 0.1194155153
H   H46       1.0  0.05351  0.67729  0.84025  1.0000 0.1194155153
H   H47       1.0  0.84025  0.05351  0.67729  1.0000 0.1194155153
H   H48       1.0  0.67729  0.84025  0.05351  1.0000 0.1194155153
H   H49       1.0  0.23877  0.37512  0.15207  1.0000 0.1088730657
H   H50       1.0  0.15207  0.23877  0.37512  1.0000 0.1088730657
H   H51       1.0  0.37512  0.15207  0.23877  1.0000 0.1088730657
H   H52       1.0  0.76123  0.62488  0.84793  1.0000 0.1088730657
H   H53       1.0  0.84793  0.76123  0.62488  1.0000 0.1088730657
H   H54       1.0  0.62488  0.84793  0.76123  1.0000 0.1088730657
H   H55       1.0  0.13064  0.36394  0.24643  1.0000 0.1088730657
H   H56       1.0  0.24643  0.13064  0.36394  1.0000 0.1088730657
H   H57       1.0  0.36394  0.24643  0.13064  1.0000 0.1088730657
H   H58       1.0  0.86936  0.63606  0.75357  1.0000 0.1088730657
H   H59       1.0  0.75357  0.86936  0.63606  1.0000 0.1088730657
H   H60       1.0  0.63606  0.75357  0.86936  1.0000 0.1088730657
C   C1        1.0  0.85978  0.48358  0.13455  1.0000 0.1719877905
C   C2        1.0  0.13455  0.85978  0.48358  1.0000 0.1719877905
C   C3        1.0  0.48358  0.13455  0.85978  1.0000 0.1719877905
C   C4        1.0  0.14022  0.51642  0.86545  1.0000 0.1719877905
C   C5        1.0  0.86545  0.14022  0.51642  1.0000 0.1719877905
C   C6        1.0  0.51642  0.86545  0.14022  1.0000 0.1719877905
C   C7        1.0  0.72056  0.42853  0.16762  1.0000 0.1382754978
C   C8        1.0  0.16762  0.72056  0.42853  1.0000 0.1382754978
C   C9        1.0  0.42853  0.16762  0.72056  1.0000 0.1382754978
C   C10       1.0  0.27944  0.57147  0.83238  1.0000 0.1382754978
C   C11       1.0  0.83238  0.27944  0.57147  1.0000 0.1382754978
C   C12       1.0  0.57147  0.83238  0.27944  1.0000 0.1382754978
C   C13       1.0  0.62794  0.37194  0.17404  1.0000 -0.1902037475
C   C14       1.0  0.17404  0.62794  0.37194  1.0000 -0.1902037475
C   C15       1.0  0.37194  0.17404  0.62794  1.0000 -0.1902037475
C   C16       1.0  0.37206  0.62806  0.82596  1.0000 -0.1902037475
C   C17       1.0  0.82596  0.37206  0.62806  1.0000 -0.1902037475
C   C18       1.0  0.62806  0.82596  0.37206  1.0000 -0.1902037475
C   C19       1.0  0.59654  0.42970  0.24403  1.0000 -0.1206321184
C   C20       1.0  0.24403  0.59654  0.42970  1.0000 -0.1206321184
C   C21       1.0  0.42970  0.24403  0.59654  1.0000 -0.1206321184
C   C22       1.0  0.40346  0.57030  0.75597  1.0000 -0.1206321184
C   C23       1.0  0.75597  0.40346  0.57030  1.0000 -0.1206321184
C   C24       1.0  0.57030  0.75597  0.40346  1.0000 -0.1206321184
C   C25       1.0  0.65727  0.54263  0.30866  1.0000 -0.1111093581
C   C26       1.0  0.30866  0.65727  0.54263  1.0000 -0.1111093581
C   C27       1.0  0.54263  0.30866  0.65727  1.0000 -0.1111093581
C   C28       1.0  0.34273  0.45737  0.69134  1.0000 -0.1111093581
C   C29       1.0  0.69134  0.34273  0.45737  1.0000 -0.1111093581
C   C30       1.0  0.45737  0.69134  0.34273  1.0000 -0.1111093581
C   C31       1.0  0.78091  0.54064  0.23166  1.0000 0.1534369227
C   C32       1.0  0.23166  0.78091  0.54064  1.0000 0.1534369227
C   C33       1.0  0.54064  0.23166  0.78091  1.0000 0.1534369227
C   C34       1.0  0.21909  0.45936  0.76834  1.0000 0.1534369227
C   C35       1.0  0.76834  0.21909  0.45936  1.0000 0.1534369227
C   C36       1.0  0.45936  0.76834  0.21909  1.0000 0.1534369227
C   C37       1.0  0.75020  0.59869  0.30369  1.0000 -0.1902037475
C   C38       1.0  0.30369  0.75020  0.59869  1.0000 -0.1902037475
C   C39       1.0  0.59869  0.30369  0.75020  1.0000 -0.1902037475
C   C40       1.0  0.24980  0.40131  0.69631  1.0000 -0.1902037475
C   C41       1.0  0.69631  0.24980  0.40131  1.0000 -0.1902037475
C   C42       1.0  0.40131  0.69631  0.24980  1.0000 -0.1902037475
C   C43       1.0  0.85405  0.27173  0.84812  1.0000 0.1719877905
C   C44       1.0  0.84812  0.85405  0.27173  1.0000 0.1719877905
C   C45       1.0  0.27173  0.84812  0.85405  1.0000 0.1719877905
C   C46       1.0  0.14595  0.72827  0.15188  1.0000 0.1719877905
C   C47       1.0  0.15188  0.14595  0.72827  1.0000 0.1719877905
C   C48       1.0  0.72827  0.15188  0.14595  1.0000 0.1719877905
C   C49       1.0  0.01288  0.31178  0.95575  1.0000 0.1269352677
C   C50       1.0  0.95575  0.01288  0.31178  1.0000 0.1269352677
C   C51       1.0  0.31178  0.95575  0.01288  1.0000 0.1269352677
C   C52       1.0  0.98712  0.68822  0.04425  1.0000 0.1269352677
C   C53       1.0  0.04425  0.98712  0.68822  1.0000 0.1269352677
C   C54       1.0  0.68822  0.04425  0.98712  1.0000 0.1269352677
C   C55       1.0  0.12547  0.34007  0.01079  1.0000 -0.1793098305
C   C56       1.0  0.01079  0.12547  0.34007  1.0000 -0.1793098305
C   C57       1.0  0.34007  0.01079  0.12547  1.0000 -0.1793098305
C   C58       1.0  0.87453  0.65993  0.98921  1.0000 -0.1793098305
C   C59       1.0  0.98921  0.87453  0.65993  1.0000 -0.1793098305
C   C60       1.0  0.65993  0.98921  0.87453  1.0000 -0.1793098305
C   C61       1.0  0.94893  0.30642  0.01045  1.0000 0.1088730657
C   C62       1.0  0.01045  0.94893  0.30642  1.0000 0.1088730657
C   C63       1.0  0.30642  0.01045  0.94893  1.0000 0.1088730657
C   C64       1.0  0.05107  0.69358  0.98955  1.0000 0.1088730657
C   C65       1.0  0.98955  0.05107  0.69358  1.0000 0.1088730657
C   C66       1.0  0.69358  0.98955  0.05107  1.0000 0.1088730657
C   C67       1.0  0.99052  0.32629  0.12308  1.0000 -0.1745813254
C   C68       1.0  0.12308  0.99052  0.32629  1.0000 -0.1793098305
C   C69       1.0  0.32629  0.12308  0.99052  1.0000 -0.1793098305
C   C70       1.0  0.00948  0.67371  0.87692  1.0000 -0.1793098305
C   C71       1.0  0.87692  0.00948  0.67371  1.0000 -0.1745813254
C   C72       1.0  0.67371  0.87692  0.00948  1.0000 -0.1793098305
C   C73       1.0  0.16579  0.35795  0.11644  1.0000 -0.1111093581
C   C74       1.0  0.11644  0.16579  0.35795  1.0000 -0.1111093581
C   C75       1.0  0.35795  0.11644  0.16579  1.0000 -0.1111093581
C   C76       1.0  0.83421  0.64205  0.88356  1.0000 -0.1111093581
C   C77       1.0  0.88356  0.83421  0.64205  1.0000 -0.1111093581
C   C78       1.0  0.64205  0.88356  0.83421  1.0000 -0.1111093581
C   C79       1.0  0.10031  0.35146  0.17418  1.0000 -0.1255212713
C   C80       1.0  0.17418  0.10031  0.35146  1.0000 -0.1255212713
C   C81       1.0  0.35146  0.17418  0.10031  1.0000 -0.1255212713
C   C82       1.0  0.89969  0.64854  0.82582  1.0000 -0.1255212713
C   C83       1.0  0.82582  0.89969  0.64854  1.0000 -0.1255212713
C   C84       1.0  0.64854  0.82582  0.89969  1.0000 -0.1255212713
N   N1        1.0  0.77466  0.39365  0.10731  1.0000 -0.3671780218
N   N2        1.0  0.10731  0.77466  0.39365  1.0000 -0.3671780218
N   N3        1.0  0.39365  0.10731  0.77466  1.0000 -0.3671780218
N   N4        1.0  0.22534  0.60635  0.89269  1.0000 -0.3671780218
N   N5        1.0  0.89269  0.22534  0.60635  1.0000 -0.3671780218
N   N6        1.0  0.60635  0.89269  0.22534  1.0000 -0.3671780218
N   N7        1.0  0.87035  0.57462  0.20870  1.0000 -0.3671780218
N   N8        1.0  0.20870  0.87035  0.57462  1.0000 -0.3671780218
N   N9        1.0  0.57462  0.20870  0.87035  1.0000 -0.3671780218
N   N10       1.0  0.12965  0.42538  0.79130  1.0000 -0.3671780218
N   N11       1.0  0.79130  0.12965  0.42538  1.0000 -0.3671780218
N   N12       1.0  0.42538  0.79130  0.12965  1.0000 -0.3671780218
N   N13       1.0  0.84338  0.27977  0.93814  1.0000 -0.3615315471
N   N14       1.0  0.93814  0.84338  0.27977  1.0000 -0.3615315471
N   N15       1.0  0.27977  0.93814  0.84338  1.0000 -0.3615315471
N   N16       1.0  0.15662  0.72023  0.06186  1.0000 -0.3615315471
N   N17       1.0  0.06186  0.15662  0.72023  1.0000 -0.3615315471
N   N18       1.0  0.72023  0.06186  0.15662  1.0000 -0.3615315471
N   N19       1.0  0.95104  0.28968  0.85104  1.0000 -0.3505041911
N   N20       1.0  0.85104  0.95104  0.28968  1.0000 -0.3505041911
N   N21       1.0  0.28968  0.85104  0.95104  1.0000 -0.3505041911
N   N22       1.0  0.04896  0.71032  0.14896  1.0000 -0.3505041911
N   N23       1.0  0.14896  0.04896  0.71032  1.0000 -0.3505041911
N   N24       1.0  0.71032  0.14896  0.04896  1.0000 -0.3505041911
