# DDEC6 charges by PACMAN v1.1 (https://github.com/mtap-research/PACMAN-charge/)
data_2014[Cu][nan]3[ASR]3
_chemical_formula_sum              "Cu48 H312 C696 N24 O216"
_cell_length_a       30.988
_cell_length_b       30.988
_cell_length_c       45.964
_cell_angle_alpha    90
_cell_angle_beta     90
_cell_angle_gamma    90

_symmetry_space_group_name_H-M    "P 1"
_symmetry_Int_Tables_number       1

loop_
  _symmetry_equiv_pos_as_xyz
  'x, y, z'

loop_
  _atom_site_type_symbol
  _atom_site_label
  _atom_site_symmetry_multiplicity
  _atom_site_fract_x
  _atom_site_fract_y
  _atom_site_fract_z
  _atom_site_occupancy
  _atom_site_charge
Cu  Cu1       1.0  0.10332  0.14538  0.12778  1.0000 0.8722656139
Cu  Cu2       1.0  0.85462  0.10332  0.12778  1.0000 0.8722656139
Cu  Cu3       1.0  0.89668  0.85462  0.12778  1.0000 0.8722656139
Cu  Cu4       1.0  0.14538  0.89668  0.12778  1.0000 0.8722656139
Cu  Cu5       1.0  0.60332  0.35462  0.37222  1.0000 0.8722656139
Cu  Cu6       1.0  0.39668  0.64538  0.37222  1.0000 0.8722656139
Cu  Cu7       1.0  0.64538  0.60332  0.37222  1.0000 0.8722656139
Cu  Cu8       1.0  0.35462  0.39668  0.37222  1.0000 0.8722656139
Cu  Cu9       1.0  0.89668  0.85462  0.87222  1.0000 0.8722656139
Cu  Cu10      1.0  0.14538  0.89668  0.87222  1.0000 0.8722656139
Cu  Cu11      1.0  0.10332  0.14538  0.87222  1.0000 0.8722656139
Cu  Cu12      1.0  0.85462  0.10332  0.87222  1.0000 0.8722656139
Cu  Cu13      1.0  0.39668  0.64538  0.62778  1.0000 0.8722656139
Cu  Cu14      1.0  0.60332  0.35462  0.62778  1.0000 0.8722656139
Cu  Cu15      1.0  0.35462  0.39668  0.62778  1.0000 0.8722656139
Cu  Cu16      1.0  0.64538  0.60332  0.62778  1.0000 0.8722656139
Cu  Cu17      1.0  0.13894  0.19599  0.16779  1.0000 0.8618506225
Cu  Cu18      1.0  0.80401  0.13894  0.16779  1.0000 0.8618506225
Cu  Cu19      1.0  0.86106  0.80401  0.16779  1.0000 0.8618506225
Cu  Cu20      1.0  0.19599  0.86106  0.16779  1.0000 0.8618506225
Cu  Cu21      1.0  0.63894  0.30401  0.33221  1.0000 0.8618506225
Cu  Cu22      1.0  0.36106  0.69599  0.33221  1.0000 0.8618506225
Cu  Cu23      1.0  0.69599  0.63894  0.33221  1.0000 0.8618506225
Cu  Cu24      1.0  0.30401  0.36106  0.33221  1.0000 0.8618506225
Cu  Cu25      1.0  0.86106  0.80401  0.83221  1.0000 0.8618506225
Cu  Cu26      1.0  0.19599  0.86106  0.83221  1.0000 0.8618506225
Cu  Cu27      1.0  0.13894  0.19599  0.83221  1.0000 0.8618506225
Cu  Cu28      1.0  0.80401  0.13894  0.83221  1.0000 0.8618506225
Cu  Cu29      1.0  0.36106  0.69599  0.66779  1.0000 0.8618506225
Cu  Cu30      1.0  0.63894  0.30401  0.66779  1.0000 0.8618506225
Cu  Cu31      1.0  0.30401  0.36106  0.66779  1.0000 0.8618506225
Cu  Cu32      1.0  0.69599  0.63894  0.66779  1.0000 0.8618506225
Cu  Cu33      1.0  0.33065  0.05901  0.00000  1.0000 0.8753117743
Cu  Cu34      1.0  0.94099  0.33065  0.00000  1.0000 0.8722656139
Cu  Cu35      1.0  0.66935  0.94099  0.00000  1.0000 0.8722656139
Cu  Cu36      1.0  0.05901  0.66935  0.00000  1.0000 0.8753117743
Cu  Cu37      1.0  0.83065  0.44099  0.50000  1.0000 0.8722656139
Cu  Cu38      1.0  0.16935  0.55901  0.50000  1.0000 0.8722656139
Cu  Cu39      1.0  0.55901  0.83065  0.50000  1.0000 0.8722656139
Cu  Cu40      1.0  0.44099  0.16935  0.50000  1.0000 0.8722656139
Cu  Cu41      1.0  0.24604  0.04365  0.00000  1.0000 0.8618506225
Cu  Cu42      1.0  0.95635  0.24604  0.00000  1.0000 0.8618506225
Cu  Cu43      1.0  0.75396  0.95635  0.00000  1.0000 0.8618506225
Cu  Cu44      1.0  0.04365  0.75396  0.00000  1.0000 0.8618506225
Cu  Cu45      1.0  0.74604  0.45635  0.50000  1.0000 0.8618506225
Cu  Cu46      1.0  0.25396  0.54365  0.50000  1.0000 0.8532044115
Cu  Cu47      1.0  0.54365  0.74604  0.50000  1.0000 0.8618506225
Cu  Cu48      1.0  0.45635  0.25396  0.50000  1.0000 0.8618506225
H   H1        1.0  0.47710  0.27740  0.13330  1.0000 0.283216165
H   H2        1.0  0.72260  0.47710  0.13330  1.0000 0.283216165
H   H3        1.0  0.52290  0.72260  0.13330  1.0000 0.2910551133
H   H4        1.0  0.27740  0.52290  0.13330  1.0000 0.283216165
H   H5        1.0  0.97710  0.22260  0.36670  1.0000 0.283216165
H   H6        1.0  0.02290  0.77740  0.36670  1.0000 0.283216165
H   H7        1.0  0.77740  0.97710  0.36670  1.0000 0.283216165
H   H8        1.0  0.22260  0.02290  0.36670  1.0000 0.283216165
H   H9        1.0  0.52290  0.72260  0.86670  1.0000 0.2910551133
H   H10       1.0  0.27740  0.52290  0.86670  1.0000 0.283216165
H   H11       1.0  0.47710  0.27740  0.86670  1.0000 0.283216165
H   H12       1.0  0.72260  0.47710  0.86670  1.0000 0.283216165
H   H13       1.0  0.02290  0.77740  0.63330  1.0000 0.283216165
H   H14       1.0  0.97710  0.22260  0.63330  1.0000 0.283216165
H   H15       1.0  0.22260  0.02290  0.63330  1.0000 0.283216165
H   H16       1.0  0.77740  0.97710  0.63330  1.0000 0.283216165
H   H17       1.0  0.00000  0.50000  0.19130  1.0000 0.2683519172
H   H18       1.0  0.50000  0.00000  0.19130  1.0000 0.2683519172
H   H19       1.0  0.50000  0.00000  0.30870  1.0000 0.2683519172
H   H20       1.0  0.00000  0.50000  0.30870  1.0000 0.2683519172
H   H21       1.0  0.00000  0.50000  0.80870  1.0000 0.2683519172
H   H22       1.0  0.50000  0.00000  0.80870  1.0000 0.2683519172
H   H23       1.0  0.50000  0.00000  0.69130  1.0000 0.2683519172
H   H24       1.0  0.00000  0.50000  0.69130  1.0000 0.2683519172
H   H25       1.0  0.21070  0.12680  0.07110  1.0000 0.1392569626
H   H26       1.0  0.87320  0.21070  0.07110  1.0000 0.1392569626
H   H27       1.0  0.78930  0.87320  0.07110  1.0000 0.1392569626
H   H28       1.0  0.12680  0.78930  0.07110  1.0000 0.1392569626
H   H29       1.0  0.71070  0.37320  0.42890  1.0000 0.1392569626
H   H30       1.0  0.28930  0.62680  0.42890  1.0000 0.1392569626
H   H31       1.0  0.62680  0.71070  0.42890  1.0000 0.1392569626
H   H32       1.0  0.37320  0.28930  0.42890  1.0000 0.1392569626
H   H33       1.0  0.78930  0.87320  0.92890  1.0000 0.1392569626
H   H34       1.0  0.12680  0.78930  0.92890  1.0000 0.1392569626
H   H35       1.0  0.21070  0.12680  0.92890  1.0000 0.1392569626
H   H36       1.0  0.87320  0.21070  0.92890  1.0000 0.1392569626
H   H37       1.0  0.28930  0.62680  0.57110  1.0000 0.1392569626
H   H38       1.0  0.71070  0.37320  0.57110  1.0000 0.1392569626
H   H39       1.0  0.37320  0.28930  0.57110  1.0000 0.1392569626
H   H40       1.0  0.62680  0.71070  0.57110  1.0000 0.1392569626
H   H41       1.0  0.33720  0.15870  0.06430  1.0000 0.1218490825
H   H42       1.0  0.84130  0.33720  0.06430  1.0000 0.1218490825
H   H43       1.0  0.66280  0.84130  0.06430  1.0000 0.1218490825
H   H44       1.0  0.15870  0.66280  0.06430  1.0000 0.1218490825
H   H45       1.0  0.83720  0.34130  0.43570  1.0000 0.1218490825
H   H46       1.0  0.16280  0.65870  0.43570  1.0000 0.1218490825
H   H47       1.0  0.65870  0.83720  0.43570  1.0000 0.1218490825
H   H48       1.0  0.34130  0.16280  0.43570  1.0000 0.1218490825
H   H49       1.0  0.66280  0.84130  0.93570  1.0000 0.1218490825
H   H50       1.0  0.15870  0.66280  0.93570  1.0000 0.1218490825
H   H51       1.0  0.33720  0.15870  0.93570  1.0000 0.1218490825
H   H52       1.0  0.84130  0.33720  0.93570  1.0000 0.1218490825
H   H53       1.0  0.16280  0.65870  0.56430  1.0000 0.1218490825
H   H54       1.0  0.83720  0.34130  0.56430  1.0000 0.1218490825
H   H55       1.0  0.34130  0.16280  0.56430  1.0000 0.1218490825
H   H56       1.0  0.65870  0.83720  0.56430  1.0000 0.1218490825
H   H57       1.0  0.26410  0.21040  0.12780  1.0000 0.1274815584
H   H58       1.0  0.78960  0.26410  0.12780  1.0000 0.1274815584
H   H59       1.0  0.73590  0.78960  0.12780  1.0000 0.1274815584
H   H60       1.0  0.21040  0.73590  0.12780  1.0000 0.1274815584
H   H61       1.0  0.76410  0.28960  0.37220  1.0000 0.1274815584
H   H62       1.0  0.23590  0.71040  0.37220  1.0000 0.1274815584
H   H63       1.0  0.71040  0.76410  0.37220  1.0000 0.1274815584
H   H64       1.0  0.28960  0.23590  0.37220  1.0000 0.1274815584
H   H65       1.0  0.73590  0.78960  0.87220  1.0000 0.1274815584
H   H66       1.0  0.21040  0.73590  0.87220  1.0000 0.1274815584
H   H67       1.0  0.26410  0.21040  0.87220  1.0000 0.1274815584
H   H68       1.0  0.78960  0.26410  0.87220  1.0000 0.1274815584
H   H69       1.0  0.23590  0.71040  0.62780  1.0000 0.1274815584
H   H70       1.0  0.76410  0.28960  0.62780  1.0000 0.1274815584
H   H71       1.0  0.28960  0.23590  0.62780  1.0000 0.1274815584
H   H72       1.0  0.71040  0.76410  0.62780  1.0000 0.1274815584
H   H73       1.0  0.37580  0.22130  0.07140  1.0000 0.1218490825
H   H74       1.0  0.77870  0.37580  0.07140  1.0000 0.1218490825
H   H75       1.0  0.62420  0.77870  0.07140  1.0000 0.1218490825
H   H76       1.0  0.22130  0.62420  0.07140  1.0000 0.1218490825
H   H77       1.0  0.87580  0.27870  0.42860  1.0000 0.1218490825
H   H78       1.0  0.12420  0.72130  0.42860  1.0000 0.1218490825
H   H79       1.0  0.72130  0.87580  0.42860  1.0000 0.1218490825
H   H80       1.0  0.27870  0.12420  0.42860  1.0000 0.1218490825
H   H81       1.0  0.62420  0.77870  0.92860  1.0000 0.1218490825
H   H82       1.0  0.22130  0.62420  0.92860  1.0000 0.1218490825
H   H83       1.0  0.37580  0.22130  0.92860  1.0000 0.1218490825
H   H84       1.0  0.77870  0.37580  0.92860  1.0000 0.1218490825
H   H85       1.0  0.12420  0.72130  0.57140  1.0000 0.1218490825
H   H86       1.0  0.87580  0.27870  0.57140  1.0000 0.1218490825
H   H87       1.0  0.27870  0.12420  0.57140  1.0000 0.1218490825
H   H88       1.0  0.72130  0.87580  0.57140  1.0000 0.1218490825
H   H89       1.0  0.43790  0.25390  0.09020  1.0000 0.1274815584
H   H90       1.0  0.74610  0.43790  0.09020  1.0000 0.1274815584
H   H91       1.0  0.56210  0.74610  0.09020  1.0000 0.1274815584
H   H92       1.0  0.25390  0.56210  0.09020  1.0000 0.1274815584
H   H93       1.0  0.93790  0.24610  0.40980  1.0000 0.1274815584
H   H94       1.0  0.06210  0.75390  0.40980  1.0000 0.1274815584
H   H95       1.0  0.75390  0.93790  0.40980  1.0000 0.1274815584
H   H96       1.0  0.24610  0.06210  0.40980  1.0000 0.1274815584
H   H97       1.0  0.56210  0.74610  0.90980  1.0000 0.1274815584
H   H98       1.0  0.25390  0.56210  0.90980  1.0000 0.1274815584
H   H99       1.0  0.43790  0.25390  0.90980  1.0000 0.1274815584
H   H100      1.0  0.74610  0.43790  0.90980  1.0000 0.1274815584
H   H101      1.0  0.06210  0.75390  0.59020  1.0000 0.1274815584
H   H102      1.0  0.93790  0.24610  0.59020  1.0000 0.1274815584
H   H103      1.0  0.24610  0.06210  0.59020  1.0000 0.1274815584
H   H104      1.0  0.75390  0.93790  0.59020  1.0000 0.1274815584
H   H105      1.0  0.32540  0.21240  0.15160  1.0000 0.1274815584
H   H106      1.0  0.78760  0.32540  0.15160  1.0000 0.1274815584
H   H107      1.0  0.67460  0.78760  0.15160  1.0000 0.1274815584
H   H108      1.0  0.21240  0.67460  0.15160  1.0000 0.1218490825
H   H109      1.0  0.82540  0.28760  0.34840  1.0000 0.1274815584
H   H110      1.0  0.17460  0.71240  0.34840  1.0000 0.1274815584
H   H111      1.0  0.71240  0.82540  0.34840  1.0000 0.1274815584
H   H112      1.0  0.28760  0.17460  0.34840  1.0000 0.1274815584
H   H113      1.0  0.67460  0.78760  0.84840  1.0000 0.1274815584
H   H114      1.0  0.21240  0.67460  0.84840  1.0000 0.1274815584
H   H115      1.0  0.32540  0.21240  0.84840  1.0000 0.1274815584
H   H116      1.0  0.78760  0.32540  0.84840  1.0000 0.1274815584
H   H117      1.0  0.17460  0.71240  0.65160  1.0000 0.1274815584
H   H118      1.0  0.82540  0.28760  0.65160  1.0000 0.1274815584
H   H119      1.0  0.28760  0.17460  0.65160  1.0000 0.1274815584
H   H120      1.0  0.71240  0.82540  0.65160  1.0000 0.1274815584
H   H121      1.0  0.52000  0.30530  0.17310  1.0000 0.1274815584
H   H122      1.0  0.69470  0.52000  0.17310  1.0000 0.1274815584
H   H123      1.0  0.48000  0.69470  0.17310  1.0000 0.1274815584
H   H124      1.0  0.30530  0.48000  0.17310  1.0000 0.1274815584
H   H125      1.0  0.02000  0.19470  0.32690  1.0000 0.1274815584
H   H126      1.0  0.98000  0.80530  0.32690  1.0000 0.1274815584
H   H127      1.0  0.80530  0.02000  0.32690  1.0000 0.1274815584
H   H128      1.0  0.19470  0.98000  0.32690  1.0000 0.1274815584
H   H129      1.0  0.48000  0.69470  0.82690  1.0000 0.1274815584
H   H130      1.0  0.30530  0.48000  0.82690  1.0000 0.1274815584
H   H131      1.0  0.52000  0.30530  0.82690  1.0000 0.1274815584
H   H132      1.0  0.69470  0.52000  0.82690  1.0000 0.1274815584
H   H133      1.0  0.98000  0.80530  0.67310  1.0000 0.1274815584
H   H134      1.0  0.02000  0.19470  0.67310  1.0000 0.1274815584
H   H135      1.0  0.19470  0.98000  0.67310  1.0000 0.1274815584
H   H136      1.0  0.80530  0.02000  0.67310  1.0000 0.1274815584
H   H137      1.0  0.52430  0.32430  0.22050  1.0000 0.1218490825
H   H138      1.0  0.67570  0.52430  0.22050  1.0000 0.1218490825
H   H139      1.0  0.47570  0.67570  0.22050  1.0000 0.1218490825
H   H140      1.0  0.32430  0.47570  0.22050  1.0000 0.1218490825
H   H141      1.0  0.02430  0.17570  0.27950  1.0000 0.1218490825
H   H142      1.0  0.97570  0.82430  0.27950  1.0000 0.1218490825
H   H143      1.0  0.82430  0.02430  0.27950  1.0000 0.1218490825
H   H144      1.0  0.17570  0.97570  0.27950  1.0000 0.1218490825
H   H145      1.0  0.47570  0.67570  0.77950  1.0000 0.1218490825
H   H146      1.0  0.32430  0.47570  0.77950  1.0000 0.1218490825
H   H147      1.0  0.52430  0.32430  0.77950  1.0000 0.1218490825
H   H148      1.0  0.67570  0.52430  0.77950  1.0000 0.1218490825
H   H149      1.0  0.97570  0.82430  0.72050  1.0000 0.1218490825
H   H150      1.0  0.02430  0.17570  0.72050  1.0000 0.1218490825
H   H151      1.0  0.17570  0.97570  0.72050  1.0000 0.1218490825
H   H152      1.0  0.82430  0.02430  0.72050  1.0000 0.1218490825
H   H153      1.0  0.40710  0.27100  0.23510  1.0000 0.1274815584
H   H154      1.0  0.72900  0.40710  0.23510  1.0000 0.1274815584
H   H155      1.0  0.59290  0.72900  0.23510  1.0000 0.1274815584
H   H156      1.0  0.27100  0.59290  0.23510  1.0000 0.1274815584
H   H157      1.0  0.90710  0.22900  0.26490  1.0000 0.1274815584
H   H158      1.0  0.09290  0.77100  0.26490  1.0000 0.1274815584
H   H159      1.0  0.77100  0.90710  0.26490  1.0000 0.1274815584
H   H160      1.0  0.22900  0.09290  0.26490  1.0000 0.1274815584
H   H161      1.0  0.59290  0.72900  0.76490  1.0000 0.1274815584
H   H162      1.0  0.27100  0.59290  0.76490  1.0000 0.1274815584
H   H163      1.0  0.40710  0.27100  0.76490  1.0000 0.1274815584
H   H164      1.0  0.72900  0.40710  0.76490  1.0000 0.1274815584
H   H165      1.0  0.09290  0.77100  0.73510  1.0000 0.1274815584
H   H166      1.0  0.90710  0.22900  0.73510  1.0000 0.1274815584
H   H167      1.0  0.22900  0.09290  0.73510  1.0000 0.1274815584
H   H168      1.0  0.77100  0.90710  0.73510  1.0000 0.1274815584
H   H169      1.0  0.53350  0.30620  0.26870  1.0000 0.1218490825
H   H170      1.0  0.69380  0.53350  0.26870  1.0000 0.1218490825
H   H171      1.0  0.46650  0.69380  0.26870  1.0000 0.1218490825
H   H172      1.0  0.30620  0.46650  0.26870  1.0000 0.1218490825
H   H173      1.0  0.03350  0.19380  0.23130  1.0000 0.1218490825
H   H174      1.0  0.96650  0.80620  0.23130  1.0000 0.1218490825
H   H175      1.0  0.80620  0.03350  0.23130  1.0000 0.1218490825
H   H176      1.0  0.19380  0.96650  0.23130  1.0000 0.1218490825
H   H177      1.0  0.46650  0.69380  0.73130  1.0000 0.1218490825
H   H178      1.0  0.30620  0.46650  0.73130  1.0000 0.1218490825
H   H179      1.0  0.53350  0.30620  0.73130  1.0000 0.1218490825
H   H180      1.0  0.69380  0.53350  0.73130  1.0000 0.1218490825
H   H181      1.0  0.96650  0.80620  0.76870  1.0000 0.1218490825
H   H182      1.0  0.03350  0.19380  0.76870  1.0000 0.1218490825
H   H183      1.0  0.19380  0.96650  0.76870  1.0000 0.1218490825
H   H184      1.0  0.80620  0.03350  0.76870  1.0000 0.1218490825
H   H185      1.0  0.47480  0.35120  0.34120  1.0000 0.1392569626
H   H186      1.0  0.64880  0.47480  0.34120  1.0000 0.1392569626
H   H187      1.0  0.52520  0.64880  0.34120  1.0000 0.1392569626
H   H188      1.0  0.35120  0.52520  0.34120  1.0000 0.1392569626
H   H189      1.0  0.97480  0.14880  0.15880  1.0000 0.1392569626
H   H190      1.0  0.02520  0.85120  0.15880  1.0000 0.1392569626
H   H191      1.0  0.85120  0.97480  0.15880  1.0000 0.1392569626
H   H192      1.0  0.14880  0.02520  0.15880  1.0000 0.1392569626
H   H193      1.0  0.52520  0.64880  0.65880  1.0000 0.1392569626
H   H194      1.0  0.35120  0.52520  0.65880  1.0000 0.1392569626
H   H195      1.0  0.47480  0.35120  0.65880  1.0000 0.1392569626
H   H196      1.0  0.64880  0.47480  0.65880  1.0000 0.1392569626
H   H197      1.0  0.02520  0.85120  0.84120  1.0000 0.1392569626
H   H198      1.0  0.97480  0.14880  0.84120  1.0000 0.1392569626
H   H199      1.0  0.14880  0.02520  0.84120  1.0000 0.1392569626
H   H200      1.0  0.85120  0.97480  0.84120  1.0000 0.1392569626
H   H201      1.0  0.40340  0.32210  0.27040  1.0000 0.1218490825
H   H202      1.0  0.67790  0.40340  0.27040  1.0000 0.1218490825
H   H203      1.0  0.59660  0.67790  0.27040  1.0000 0.1218490825
H   H204      1.0  0.32210  0.59660  0.27040  1.0000 0.1218490825
H   H205      1.0  0.90340  0.17790  0.22960  1.0000 0.1218490825
H   H206      1.0  0.09660  0.82210  0.22960  1.0000 0.1218490825
H   H207      1.0  0.82210  0.90340  0.22960  1.0000 0.1218490825
H   H208      1.0  0.17790  0.09660  0.22960  1.0000 0.1218490825
H   H209      1.0  0.59660  0.67790  0.72960  1.0000 0.1218490825
H   H210      1.0  0.32210  0.59660  0.72960  1.0000 0.1218490825
H   H211      1.0  0.40340  0.32210  0.72960  1.0000 0.1218490825
H   H212      1.0  0.67790  0.40340  0.72960  1.0000 0.1218490825
H   H213      1.0  0.09660  0.82210  0.77040  1.0000 0.1218490825
H   H214      1.0  0.90340  0.17790  0.77040  1.0000 0.1218490825
H   H215      1.0  0.17790  0.09660  0.77040  1.0000 0.1218490825
H   H216      1.0  0.82210  0.90340  0.77040  1.0000 0.1218490825
H   H217      1.0  0.05120  0.24090  0.07110  1.0000 0.1392569626
H   H218      1.0  0.75910  0.05120  0.07110  1.0000 0.1392569626
H   H219      1.0  0.94880  0.75910  0.07110  1.0000 0.1392569626
H   H220      1.0  0.24090  0.94880  0.07110  1.0000 0.1392569626
H   H221      1.0  0.55120  0.25910  0.42890  1.0000 0.1392569626
H   H222      1.0  0.44880  0.74090  0.42890  1.0000 0.1392569626
H   H223      1.0  0.74090  0.55120  0.42890  1.0000 0.1392569626
H   H224      1.0  0.25910  0.44880  0.42890  1.0000 0.1392569626
H   H225      1.0  0.94880  0.75910  0.92890  1.0000 0.1392569626
H   H226      1.0  0.24090  0.94880  0.92890  1.0000 0.1392569626
H   H227      1.0  0.05120  0.24090  0.92890  1.0000 0.1392569626
H   H228      1.0  0.75910  0.05120  0.92890  1.0000 0.1392569626
H   H229      1.0  0.44880  0.74090  0.57110  1.0000 0.1392569626
H   H230      1.0  0.55120  0.25910  0.57110  1.0000 0.1392569626
H   H231      1.0  0.25910  0.44880  0.57110  1.0000 0.1392569626
H   H232      1.0  0.74090  0.55120  0.57110  1.0000 0.1392569626
H   H233      1.0  0.00680  0.36430  0.07560  1.0000 0.1274815584
H   H234      1.0  0.63570  0.00680  0.07560  1.0000 0.1274815584
H   H235      1.0  0.99320  0.63570  0.07560  1.0000 0.1274815584
H   H236      1.0  0.36430  0.99320  0.07560  1.0000 0.1274815584
H   H237      1.0  0.50680  0.13570  0.42440  1.0000 0.1274815584
H   H238      1.0  0.49320  0.86430  0.42440  1.0000 0.1274815584
H   H239      1.0  0.86430  0.50680  0.42440  1.0000 0.1274815584
H   H240      1.0  0.13570  0.49320  0.42440  1.0000 0.1274815584
H   H241      1.0  0.99320  0.63570  0.92440  1.0000 0.1274815584
H   H242      1.0  0.36430  0.99320  0.92440  1.0000 0.1274815584
H   H243      1.0  0.00680  0.36430  0.92440  1.0000 0.1274815584
H   H244      1.0  0.63570  0.00680  0.92440  1.0000 0.1274815584
H   H245      1.0  0.49320  0.86430  0.57560  1.0000 0.1274815584
H   H246      1.0  0.50680  0.13570  0.57560  1.0000 0.1274815584
H   H247      1.0  0.13570  0.49320  0.57560  1.0000 0.1274815584
H   H248      1.0  0.86430  0.50680  0.57560  1.0000 0.1274815584
H   H249      1.0  0.07870  0.31470  0.14130  1.0000 0.1218490825
H   H250      1.0  0.68530  0.07870  0.14130  1.0000 0.1218490825
H   H251      1.0  0.92130  0.68530  0.14130  1.0000 0.1218490825
H   H252      1.0  0.31470  0.92130  0.14130  1.0000 0.1218490825
H   H253      1.0  0.57870  0.18530  0.35870  1.0000 0.1218490825
H   H254      1.0  0.42130  0.81470  0.35870  1.0000 0.1218490825
H   H255      1.0  0.81470  0.57870  0.35870  1.0000 0.1218490825
H   H256      1.0  0.18530  0.42130  0.35870  1.0000 0.1218490825
H   H257      1.0  0.92130  0.68530  0.85870  1.0000 0.1218490825
H   H258      1.0  0.31470  0.92130  0.85870  1.0000 0.1218490825
H   H259      1.0  0.07870  0.31470  0.85870  1.0000 0.1218490825
H   H260      1.0  0.68530  0.07870  0.85870  1.0000 0.1218490825
H   H261      1.0  0.42130  0.81470  0.64130  1.0000 0.1218490825
H   H262      1.0  0.57870  0.18530  0.64130  1.0000 0.1218490825
H   H263      1.0  0.18530  0.42130  0.64130  1.0000 0.1218490825
H   H264      1.0  0.81470  0.57870  0.64130  1.0000 0.1218490825
H   H265      1.0  0.02320  0.42410  0.09240  1.0000 0.1218490825
H   H266      1.0  0.57590  0.02320  0.09240  1.0000 0.1218490825
H   H267      1.0  0.97680  0.57590  0.09240  1.0000 0.1218490825
H   H268      1.0  0.42410  0.97680  0.09240  1.0000 0.1218490825
H   H269      1.0  0.52320  0.07590  0.40760  1.0000 0.1218490825
H   H270      1.0  0.47680  0.92410  0.40760  1.0000 0.1218490825
H   H271      1.0  0.92410  0.52320  0.40760  1.0000 0.1218490825
H   H272      1.0  0.07590  0.47680  0.40760  1.0000 0.1218490825
H   H273      1.0  0.97680  0.57590  0.90760  1.0000 0.1218490825
H   H274      1.0  0.42410  0.97680  0.90760  1.0000 0.1218490825
H   H275      1.0  0.02320  0.42410  0.90760  1.0000 0.1218490825
H   H276      1.0  0.57590  0.02320  0.90760  1.0000 0.1218490825
H   H277      1.0  0.47680  0.92410  0.59240  1.0000 0.1218490825
H   H278      1.0  0.52320  0.07590  0.59240  1.0000 0.1218490825
H   H279      1.0  0.07590  0.47680  0.59240  1.0000 0.1218490825
H   H280      1.0  0.92410  0.52320  0.59240  1.0000 0.1218490825
H   H281      1.0  0.01930  0.42500  0.19390  1.0000 0.1274815584
H   H282      1.0  0.57500  0.01930  0.19390  1.0000 0.1274815584
H   H283      1.0  0.98070  0.57500  0.19390  1.0000 0.1274815584
H   H284      1.0  0.42500  0.98070  0.19390  1.0000 0.1274815584
H   H285      1.0  0.51930  0.07500  0.30610  1.0000 0.1274815584
H   H286      1.0  0.48070  0.92500  0.30610  1.0000 0.1274815584
H   H287      1.0  0.92500  0.51930  0.30610  1.0000 0.1274815584
H   H288      1.0  0.07500  0.48070  0.30610  1.0000 0.1274815584
H   H289      1.0  0.98070  0.57500  0.80610  1.0000 0.1274815584
H   H290      1.0  0.42500  0.98070  0.80610  1.0000 0.1274815584
H   H291      1.0  0.01930  0.42500  0.80610  1.0000 0.1274815584
H   H292      1.0  0.57500  0.01930  0.80610  1.0000 0.1274815584
H   H293      1.0  0.48070  0.92500  0.69390  1.0000 0.1274815584
H   H294      1.0  0.51930  0.07500  0.69390  1.0000 0.1274815584
H   H295      1.0  0.07500  0.48070  0.69390  1.0000 0.1274815584
H   H296      1.0  0.92500  0.51930  0.69390  1.0000 0.1274815584
H   H297      1.0  0.03910  0.36180  0.16840  1.0000 0.1218490825
H   H298      1.0  0.63820  0.03910  0.16840  1.0000 0.1218490825
H   H299      1.0  0.96090  0.63820  0.16840  1.0000 0.1218490825
H   H300      1.0  0.36180  0.96090  0.16840  1.0000 0.1218490825
H   H301      1.0  0.53910  0.13820  0.33160  1.0000 0.1218490825
H   H302      1.0  0.46090  0.86180  0.33160  1.0000 0.1218490825
H   H303      1.0  0.86180  0.53910  0.33160  1.0000 0.1218490825
H   H304      1.0  0.13820  0.46090  0.33160  1.0000 0.1218490825
H   H305      1.0  0.96090  0.63820  0.83160  1.0000 0.1218490825
H   H306      1.0  0.36180  0.96090  0.83160  1.0000 0.1218490825
H   H307      1.0  0.03910  0.36180  0.83160  1.0000 0.1218490825
H   H308      1.0  0.63820  0.03910  0.83160  1.0000 0.1218490825
H   H309      1.0  0.46090  0.86180  0.66840  1.0000 0.1218490825
H   H310      1.0  0.53910  0.13820  0.66840  1.0000 0.1218490825
H   H311      1.0  0.13820  0.46090  0.66840  1.0000 0.1218490825
H   H312      1.0  0.86180  0.53910  0.66840  1.0000 0.1218490825
C   C1        1.0  0.18907  0.17057  0.11836  1.0000 0.586890164
C   C2        1.0  0.82943  0.18907  0.11836  1.0000 0.586890164
C   C3        1.0  0.81093  0.82943  0.11836  1.0000 0.586890164
C   C4        1.0  0.17057  0.81093  0.11836  1.0000 0.586890164
C   C5        1.0  0.68907  0.32943  0.38164  1.0000 0.586890164
C   C6        1.0  0.31093  0.67057  0.38164  1.0000 0.586890164
C   C7        1.0  0.67057  0.68907  0.38164  1.0000 0.586890164
C   C8        1.0  0.32943  0.31093  0.38164  1.0000 0.586890164
C   C9        1.0  0.81093  0.82943  0.88164  1.0000 0.586890164
C   C10       1.0  0.17057  0.81093  0.88164  1.0000 0.586890164
C   C11       1.0  0.18907  0.17057  0.88164  1.0000 0.586890164
C   C12       1.0  0.82943  0.18907  0.88164  1.0000 0.586890164
C   C13       1.0  0.31093  0.67057  0.61836  1.0000 0.586890164
C   C14       1.0  0.68907  0.32943  0.61836  1.0000 0.586890164
C   C15       1.0  0.32943  0.31093  0.61836  1.0000 0.586890164
C   C16       1.0  0.67057  0.68907  0.61836  1.0000 0.586890164
C   C17       1.0  0.23126  0.16876  0.10195  1.0000 -0.0105250735
C   C18       1.0  0.83124  0.23126  0.10195  1.0000 -0.0105250735
C   C19       1.0  0.76874  0.83124  0.10195  1.0000 -0.0105250735
C   C20       1.0  0.16876  0.76874  0.10195  1.0000 -0.0105250735
C   C21       1.0  0.73126  0.33124  0.39805  1.0000 -0.0105250735
C   C22       1.0  0.26874  0.66876  0.39805  1.0000 -0.0105250735
C   C23       1.0  0.66876  0.73126  0.39805  1.0000 -0.0105250735
C   C24       1.0  0.33124  0.26874  0.39805  1.0000 -0.0105250735
C   C25       1.0  0.76874  0.83124  0.89805  1.0000 -0.0105250735
C   C26       1.0  0.16876  0.76874  0.89805  1.0000 -0.0105250735
C   C27       1.0  0.23126  0.16876  0.89805  1.0000 -0.0105250735
C   C28       1.0  0.83124  0.23126  0.89805  1.0000 -0.0105250735
C   C29       1.0  0.26874  0.66876  0.60195  1.0000 -0.0105250735
C   C30       1.0  0.73126  0.33124  0.60195  1.0000 -0.0105250735
C   C31       1.0  0.33124  0.26874  0.60195  1.0000 -0.0105250735
C   C32       1.0  0.66876  0.73126  0.60195  1.0000 -0.0105250735
C   C33       1.0  0.23515  0.14224  0.07797  1.0000 -0.1009060153
C   C34       1.0  0.85776  0.23515  0.07797  1.0000 -0.1009060153
C   C35       1.0  0.76485  0.85776  0.07797  1.0000 -0.1009060153
C   C36       1.0  0.14224  0.76485  0.07797  1.0000 -0.1009060153
C   C37       1.0  0.73515  0.35776  0.42203  1.0000 -0.1009060153
C   C38       1.0  0.26485  0.64224  0.42203  1.0000 -0.1009060153
C   C39       1.0  0.64224  0.73515  0.42203  1.0000 -0.1009060153
C   C40       1.0  0.35776  0.26485  0.42203  1.0000 -0.1009060153
C   C41       1.0  0.76485  0.85776  0.92203  1.0000 -0.1009060153
C   C42       1.0  0.14224  0.76485  0.92203  1.0000 -0.1009060153
C   C43       1.0  0.23515  0.14224  0.92203  1.0000 -0.1009060153
C   C44       1.0  0.85776  0.23515  0.92203  1.0000 -0.1009060153
C   C45       1.0  0.26485  0.64224  0.57797  1.0000 -0.1009060153
C   C46       1.0  0.73515  0.35776  0.57797  1.0000 -0.1009060153
C   C47       1.0  0.35776  0.26485  0.57797  1.0000 -0.1009060153
C   C48       1.0  0.64224  0.73515  0.57797  1.0000 -0.1009060153
C   C49       1.0  0.27403  0.13799  0.06395  1.0000 -0.0105250735
C   C50       1.0  0.86201  0.27403  0.06395  1.0000 -0.0105250735
C   C51       1.0  0.72597  0.86201  0.06395  1.0000 -0.0105250735
C   C52       1.0  0.13799  0.72597  0.06395  1.0000 -0.0105250735
C   C53       1.0  0.77403  0.36201  0.43605  1.0000 -0.0105250735
C   C54       1.0  0.22597  0.63799  0.43605  1.0000 -0.0105250735
C   C55       1.0  0.63799  0.77403  0.43605  1.0000 -0.0105250735
C   C56       1.0  0.36201  0.22597  0.43605  1.0000 -0.0105250735
C   C57       1.0  0.72597  0.86201  0.93605  1.0000 -0.0105250735
C   C58       1.0  0.13799  0.72597  0.93605  1.0000 -0.0105250735
C   C59       1.0  0.27403  0.13799  0.93605  1.0000 -0.0105250735
C   C60       1.0  0.86201  0.27403  0.93605  1.0000 -0.0105250735
C   C61       1.0  0.22597  0.63799  0.56395  1.0000 -0.0105250735
C   C62       1.0  0.77403  0.36201  0.56395  1.0000 -0.0105250735
C   C63       1.0  0.36201  0.22597  0.56395  1.0000 -0.0105250735
C   C64       1.0  0.63799  0.77403  0.56395  1.0000 -0.0105250735
C   C65       1.0  0.31017  0.16140  0.07393  1.0000 -0.1568715476
C   C66       1.0  0.83860  0.31017  0.07393  1.0000 -0.1493569441
C   C67       1.0  0.68983  0.83860  0.07393  1.0000 -0.1568715476
C   C68       1.0  0.16140  0.68983  0.07393  1.0000 -0.1568715476
C   C69       1.0  0.81017  0.33860  0.42607  1.0000 -0.1493569441
C   C70       1.0  0.18983  0.66140  0.42607  1.0000 -0.1568715476
C   C71       1.0  0.66140  0.81017  0.42607  1.0000 -0.1493569441
C   C72       1.0  0.33860  0.18983  0.42607  1.0000 -0.1493569441
C   C73       1.0  0.68983  0.83860  0.92607  1.0000 -0.1493569441
C   C74       1.0  0.16140  0.68983  0.92607  1.0000 -0.1568715476
C   C75       1.0  0.31017  0.16140  0.92607  1.0000 -0.1568715476
C   C76       1.0  0.83860  0.31017  0.92607  1.0000 -0.1493569441
C   C77       1.0  0.18983  0.66140  0.57393  1.0000 -0.1568715476
C   C78       1.0  0.81017  0.33860  0.57393  1.0000 -0.1493569441
C   C79       1.0  0.33860  0.18983  0.57393  1.0000 -0.1493569441
C   C80       1.0  0.66140  0.81017  0.57393  1.0000 -0.1493569441
C   C81       1.0  0.30599  0.18838  0.09783  1.0000 0.0686546214
C   C82       1.0  0.81162  0.30599  0.09783  1.0000 0.0686546214
C   C83       1.0  0.69401  0.81162  0.09783  1.0000 0.0686546214
C   C84       1.0  0.18838  0.69401  0.09783  1.0000 0.0686546214
C   C85       1.0  0.80599  0.31162  0.40217  1.0000 0.0686546214
C   C86       1.0  0.19401  0.68838  0.40217  1.0000 0.0686546214
C   C87       1.0  0.68838  0.80599  0.40217  1.0000 0.0686546214
C   C88       1.0  0.31162  0.19401  0.40217  1.0000 0.0686546214
C   C89       1.0  0.69401  0.81162  0.90217  1.0000 0.0686546214
C   C90       1.0  0.18838  0.69401  0.90217  1.0000 0.0686546214
C   C91       1.0  0.30599  0.18838  0.90217  1.0000 0.0686546214
C   C92       1.0  0.81162  0.30599  0.90217  1.0000 0.0686546214
C   C93       1.0  0.19401  0.68838  0.59783  1.0000 0.0686546214
C   C94       1.0  0.80599  0.31162  0.59783  1.0000 0.0686546214
C   C95       1.0  0.31162  0.19401  0.59783  1.0000 0.0686546214
C   C96       1.0  0.68838  0.80599  0.59783  1.0000 0.0686546214
C   C97       1.0  0.26689  0.19185  0.11150  1.0000 -0.1413749629
C   C98       1.0  0.80815  0.26689  0.11150  1.0000 -0.1413749629
C   C99       1.0  0.73311  0.80815  0.11150  1.0000 -0.1413749629
C   C100      1.0  0.19185  0.73311  0.11150  1.0000 -0.1413749629
C   C101      1.0  0.76689  0.30815  0.38850  1.0000 -0.1413749629
C   C102      1.0  0.23311  0.69185  0.38850  1.0000 -0.1413749629
C   C103      1.0  0.69185  0.76689  0.38850  1.0000 -0.1413749629
C   C104      1.0  0.30815  0.23311  0.38850  1.0000 -0.1413749629
C   C105      1.0  0.73311  0.80815  0.88850  1.0000 -0.1413749629
C   C106      1.0  0.19185  0.73311  0.88850  1.0000 -0.1413749629
C   C107      1.0  0.26689  0.19185  0.88850  1.0000 -0.1413749629
C   C108      1.0  0.80815  0.26689  0.88850  1.0000 -0.1413749629
C   C109      1.0  0.23311  0.69185  0.61150  1.0000 -0.1413749629
C   C110      1.0  0.76689  0.30815  0.61150  1.0000 -0.1413749629
C   C111      1.0  0.30815  0.23311  0.61150  1.0000 -0.1413749629
C   C112      1.0  0.69185  0.76689  0.61150  1.0000 -0.1413749629
C   C113      1.0  0.27952  0.10653  0.03938  1.0000 0.5830295288
C   C114      1.0  0.89347  0.27952  0.03938  1.0000 0.5830295288
C   C115      1.0  0.72048  0.89347  0.03938  1.0000 0.5830295288
C   C116      1.0  0.10653  0.72048  0.03938  1.0000 0.5830295288
C   C117      1.0  0.77952  0.39347  0.46062  1.0000 0.5830295288
C   C118      1.0  0.22048  0.60653  0.46062  1.0000 0.5830295288
C   C119      1.0  0.60653  0.77952  0.46062  1.0000 0.5830295288
C   C120      1.0  0.39347  0.22048  0.46062  1.0000 0.5830295288
C   C121      1.0  0.72048  0.89347  0.96062  1.0000 0.5830295288
C   C122      1.0  0.10653  0.72048  0.96062  1.0000 0.5830295288
C   C123      1.0  0.27952  0.10653  0.96062  1.0000 0.5830295288
C   C124      1.0  0.89347  0.27952  0.96062  1.0000 0.5830295288
C   C125      1.0  0.22048  0.60653  0.53938  1.0000 0.5830295288
C   C126      1.0  0.77952  0.39347  0.53938  1.0000 0.5830295288
C   C127      1.0  0.39347  0.22048  0.53938  1.0000 0.5830295288
C   C128      1.0  0.60653  0.77952  0.53938  1.0000 0.5830295288
C   C129      1.0  0.34557  0.21197  0.10950  1.0000 0.0686546214
C   C130      1.0  0.78803  0.34557  0.10950  1.0000 0.0686546214
C   C131      1.0  0.65443  0.78803  0.10950  1.0000 0.0686546214
C   C132      1.0  0.21197  0.65443  0.10950  1.0000 0.0686546214
C   C133      1.0  0.84557  0.28803  0.39050  1.0000 0.0686546214
C   C134      1.0  0.15443  0.71197  0.39050  1.0000 0.0686546214
C   C135      1.0  0.71197  0.84557  0.39050  1.0000 0.0686546214
C   C136      1.0  0.28803  0.15443  0.39050  1.0000 0.0686546214
C   C137      1.0  0.65443  0.78803  0.89050  1.0000 0.0686546214
C   C138      1.0  0.21197  0.65443  0.89050  1.0000 0.0686546214
C   C139      1.0  0.34557  0.21197  0.89050  1.0000 0.0686546214
C   C140      1.0  0.78803  0.34557  0.89050  1.0000 0.0686546214
C   C141      1.0  0.15443  0.71197  0.60950  1.0000 0.0686546214
C   C142      1.0  0.84557  0.28803  0.60950  1.0000 0.0686546214
C   C143      1.0  0.28803  0.15443  0.60950  1.0000 0.0686546214
C   C144      1.0  0.71197  0.84557  0.60950  1.0000 0.0686546214
C   C145      1.0  0.37835  0.22532  0.09182  1.0000 -0.1493569441
C   C146      1.0  0.77468  0.37835  0.09182  1.0000 -0.1493569441
C   C147      1.0  0.62165  0.77468  0.09182  1.0000 -0.1493569441
C   C148      1.0  0.22532  0.62165  0.09182  1.0000 -0.1493569441
C   C149      1.0  0.87835  0.27468  0.40818  1.0000 -0.1493569441
C   C150      1.0  0.12165  0.72532  0.40818  1.0000 -0.1493569441
C   C151      1.0  0.72532  0.87835  0.40818  1.0000 -0.1493569441
C   C152      1.0  0.27468  0.12165  0.40818  1.0000 -0.1493569441
C   C153      1.0  0.62165  0.77468  0.90818  1.0000 -0.1493569441
C   C154      1.0  0.22532  0.62165  0.90818  1.0000 -0.1493569441
C   C155      1.0  0.37835  0.22532  0.90818  1.0000 -0.1493569441
C   C156      1.0  0.77468  0.37835  0.90818  1.0000 -0.1493569441
C   C157      1.0  0.12165  0.72532  0.59182  1.0000 -0.1493569441
C   C158      1.0  0.87835  0.27468  0.59182  1.0000 -0.1493569441
C   C159      1.0  0.27468  0.12165  0.59182  1.0000 -0.1493569441
C   C160      1.0  0.72532  0.87835  0.59182  1.0000 -0.1493569441
C   C161      1.0  0.41565  0.24487  0.10299  1.0000 -0.1932532129
C   C162      1.0  0.75513  0.41565  0.10299  1.0000 -0.1932532129
C   C163      1.0  0.58435  0.75513  0.10299  1.0000 -0.1932532129
C   C164      1.0  0.24487  0.58435  0.10299  1.0000 -0.1932532129
C   C165      1.0  0.91565  0.25513  0.39701  1.0000 -0.1932532129
C   C166      1.0  0.08435  0.74487  0.39701  1.0000 -0.1932532129
C   C167      1.0  0.74487  0.91565  0.39701  1.0000 -0.1932532129
C   C168      1.0  0.25513  0.08435  0.39701  1.0000 -0.1932532129
C   C169      1.0  0.58435  0.75513  0.89701  1.0000 -0.1932532129
C   C170      1.0  0.24487  0.58435  0.89701  1.0000 -0.1932532129
C   C171      1.0  0.41565  0.24487  0.89701  1.0000 -0.1932532129
C   C172      1.0  0.75513  0.41565  0.89701  1.0000 -0.1932532129
C   C173      1.0  0.08435  0.74487  0.60299  1.0000 -0.1932532129
C   C174      1.0  0.91565  0.25513  0.60299  1.0000 -0.1932532129
C   C175      1.0  0.25513  0.08435  0.60299  1.0000 -0.1932532129
C   C176      1.0  0.74487  0.91565  0.60299  1.0000 -0.1932532129
C   C177      1.0  0.42014  0.25105  0.13289  1.0000 0.1815935712
C   C178      1.0  0.74895  0.42014  0.13289  1.0000 0.1815935712
C   C179      1.0  0.57986  0.74895  0.13289  1.0000 0.1815935712
C   C180      1.0  0.25105  0.57986  0.13289  1.0000 0.1815935712
C   C181      1.0  0.92014  0.24895  0.36711  1.0000 0.1815935712
C   C182      1.0  0.07986  0.75105  0.36711  1.0000 0.1815935712
C   C183      1.0  0.75105  0.92014  0.36711  1.0000 0.1815935712
C   C184      1.0  0.24895  0.07986  0.36711  1.0000 0.1815935712
C   C185      1.0  0.57986  0.74895  0.86711  1.0000 0.1815935712
C   C186      1.0  0.25105  0.57986  0.86711  1.0000 0.1815935712
C   C187      1.0  0.42014  0.25105  0.86711  1.0000 0.1815935712
C   C188      1.0  0.74895  0.42014  0.86711  1.0000 0.1815935712
C   C189      1.0  0.07986  0.75105  0.63289  1.0000 0.1815935712
C   C190      1.0  0.92014  0.24895  0.63289  1.0000 0.1815935712
C   C191      1.0  0.24895  0.07986  0.63289  1.0000 0.1815935712
C   C192      1.0  0.75105  0.92014  0.63289  1.0000 0.1815935712
C   C193      1.0  0.38467  0.23935  0.15127  1.0000 -0.0777809064
C   C194      1.0  0.76065  0.38467  0.15127  1.0000 -0.0709567498
C   C195      1.0  0.61533  0.76065  0.15127  1.0000 -0.0709567498
C   C196      1.0  0.23935  0.61533  0.15127  1.0000 -0.0777809064
C   C197      1.0  0.88467  0.26065  0.34873  1.0000 -0.0709567498
C   C198      1.0  0.11533  0.73935  0.34873  1.0000 -0.0777809064
C   C199      1.0  0.73935  0.88467  0.34873  1.0000 -0.0777809064
C   C200      1.0  0.26065  0.11533  0.34873  1.0000 -0.0777809064
C   C201      1.0  0.61533  0.76065  0.84873  1.0000 -0.0777809064
C   C202      1.0  0.23935  0.61533  0.84873  1.0000 -0.0777809064
C   C203      1.0  0.38467  0.23935  0.84873  1.0000 -0.0777809064
C   C204      1.0  0.76065  0.38467  0.84873  1.0000 -0.0709567498
C   C205      1.0  0.11533  0.73935  0.65127  1.0000 -0.0777809064
C   C206      1.0  0.88467  0.26065  0.65127  1.0000 -0.0709567498
C   C207      1.0  0.26065  0.11533  0.65127  1.0000 -0.0777809064
C   C208      1.0  0.73935  0.88467  0.65127  1.0000 -0.0777809064
C   C209      1.0  0.34872  0.22019  0.13929  1.0000 -0.1493569441
C   C210      1.0  0.77981  0.34872  0.13929  1.0000 -0.1493569441
C   C211      1.0  0.65128  0.77981  0.13929  1.0000 -0.1493569441
C   C212      1.0  0.22019  0.65128  0.13929  1.0000 -0.1493569441
C   C213      1.0  0.84872  0.27981  0.36071  1.0000 -0.1493569441
C   C214      1.0  0.15128  0.72019  0.36071  1.0000 -0.1493569441
C   C215      1.0  0.72019  0.84872  0.36071  1.0000 -0.1493569441
C   C216      1.0  0.27981  0.15128  0.36071  1.0000 -0.1493569441
C   C217      1.0  0.65128  0.77981  0.86071  1.0000 -0.1493569441
C   C218      1.0  0.22019  0.65128  0.86071  1.0000 -0.1493569441
C   C219      1.0  0.34872  0.22019  0.86071  1.0000 -0.1493569441
C   C220      1.0  0.77981  0.34872  0.86071  1.0000 -0.1493569441
C   C221      1.0  0.15128  0.72019  0.63929  1.0000 -0.1493569441
C   C222      1.0  0.84872  0.27981  0.63929  1.0000 -0.1493569441
C   C223      1.0  0.27981  0.15128  0.63929  1.0000 -0.1493569441
C   C224      1.0  0.72019  0.84872  0.63929  1.0000 -0.1493569441
C   C225      1.0  0.38593  0.24822  0.18195  1.0000 0.3283912214
C   C226      1.0  0.75178  0.38593  0.18195  1.0000 0.3283912214
C   C227      1.0  0.61407  0.75178  0.18195  1.0000 0.3283912214
C   C228      1.0  0.24822  0.61407  0.18195  1.0000 0.3283912214
C   C229      1.0  0.88593  0.25178  0.31805  1.0000 0.3283912214
C   C230      1.0  0.11407  0.74822  0.31805  1.0000 0.3283912214
C   C231      1.0  0.74822  0.88593  0.31805  1.0000 0.3283912214
C   C232      1.0  0.25178  0.11407  0.31805  1.0000 0.3283912214
C   C233      1.0  0.61407  0.75178  0.81805  1.0000 0.3283912214
C   C234      1.0  0.24822  0.61407  0.81805  1.0000 0.3283912214
C   C235      1.0  0.38593  0.24822  0.81805  1.0000 0.3283912214
C   C236      1.0  0.75178  0.38593  0.81805  1.0000 0.3283912214
C   C237      1.0  0.11407  0.74822  0.68195  1.0000 0.3283912214
C   C238      1.0  0.88593  0.25178  0.68195  1.0000 0.3283912214
C   C239      1.0  0.25178  0.11407  0.68195  1.0000 0.3283912214
C   C240      1.0  0.74822  0.88593  0.68195  1.0000 0.3283912214
C   C241      1.0  0.42584  0.26901  0.19304  1.0000 -0.0634322288
C   C242      1.0  0.73099  0.42584  0.19304  1.0000 -0.0634322288
C   C243      1.0  0.57416  0.73099  0.19304  1.0000 -0.0634322288
C   C244      1.0  0.26901  0.57416  0.19304  1.0000 -0.0634322288
C   C245      1.0  0.92584  0.23099  0.30696  1.0000 -0.0634322288
C   C246      1.0  0.07416  0.76901  0.30696  1.0000 -0.0634322288
C   C247      1.0  0.76901  0.92584  0.30696  1.0000 -0.0634322288
C   C248      1.0  0.23099  0.07416  0.30696  1.0000 -0.0709567498
C   C249      1.0  0.57416  0.73099  0.80696  1.0000 -0.0634322288
C   C250      1.0  0.26901  0.57416  0.80696  1.0000 -0.0634322288
C   C251      1.0  0.42584  0.26901  0.80696  1.0000 -0.0634322288
C   C252      1.0  0.73099  0.42584  0.80696  1.0000 -0.0634322288
C   C253      1.0  0.07416  0.76901  0.69304  1.0000 -0.0709567498
C   C254      1.0  0.92584  0.23099  0.69304  1.0000 -0.0634322288
C   C255      1.0  0.23099  0.07416  0.69304  1.0000 -0.0709567498
C   C256      1.0  0.76901  0.92584  0.69304  1.0000 -0.0634322288
C   C257      1.0  0.45786  0.28108  0.17290  1.0000 0.1896302575
C   C258      1.0  0.71892  0.45786  0.17290  1.0000 0.1896302575
C   C259      1.0  0.54214  0.71892  0.17290  1.0000 0.1896302575
C   C260      1.0  0.28108  0.54214  0.17290  1.0000 0.1896302575
C   C261      1.0  0.95786  0.21892  0.32710  1.0000 0.1896302575
C   C262      1.0  0.04214  0.78108  0.32710  1.0000 0.1896302575
C   C263      1.0  0.78108  0.95786  0.32710  1.0000 0.1896302575
C   C264      1.0  0.21892  0.04214  0.32710  1.0000 0.1896302575
C   C265      1.0  0.54214  0.71892  0.82710  1.0000 0.1896302575
C   C266      1.0  0.28108  0.54214  0.82710  1.0000 0.1896302575
C   C267      1.0  0.45786  0.28108  0.82710  1.0000 0.1896302575
C   C268      1.0  0.71892  0.45786  0.82710  1.0000 0.1896302575
C   C269      1.0  0.04214  0.78108  0.67290  1.0000 0.1896302575
C   C270      1.0  0.95786  0.21892  0.67290  1.0000 0.1896302575
C   C271      1.0  0.21892  0.04214  0.67290  1.0000 0.1896302575
C   C272      1.0  0.78108  0.95786  0.67290  1.0000 0.1896302575
C   C273      1.0  0.49600  0.29986  0.18545  1.0000 -0.1784872347
C   C274      1.0  0.70014  0.49600  0.18545  1.0000 -0.1784872347
C   C275      1.0  0.50400  0.70014  0.18545  1.0000 -0.1784872347
C   C276      1.0  0.29986  0.50400  0.18545  1.0000 -0.1784872347
C   C277      1.0  0.99600  0.20014  0.31455  1.0000 -0.1784872347
C   C278      1.0  0.00400  0.79986  0.31455  1.0000 -0.1784872347
C   C279      1.0  0.79986  0.99600  0.31455  1.0000 -0.1784872347
C   C280      1.0  0.20014  0.00400  0.31455  1.0000 -0.1784872347
C   C281      1.0  0.50400  0.70014  0.81455  1.0000 -0.1784872347
C   C282      1.0  0.29986  0.50400  0.81455  1.0000 -0.1784872347
C   C283      1.0  0.49600  0.29986  0.81455  1.0000 -0.1784872347
C   C284      1.0  0.70014  0.49600  0.81455  1.0000 -0.1784872347
C   C285      1.0  0.00400  0.79986  0.68545  1.0000 -0.1784872347
C   C286      1.0  0.99600  0.20014  0.68545  1.0000 -0.1784872347
C   C287      1.0  0.20014  0.00400  0.68545  1.0000 -0.1784872347
C   C288      1.0  0.79986  0.99600  0.68545  1.0000 -0.1784872347
C   C289      1.0  0.49926  0.30999  0.21355  1.0000 -0.1298493779
C   C290      1.0  0.69001  0.49926  0.21355  1.0000 -0.1298493779
C   C291      1.0  0.50074  0.69001  0.21355  1.0000 -0.1298493779
C   C292      1.0  0.30999  0.50074  0.21355  1.0000 -0.1298493779
C   C293      1.0  0.99926  0.19001  0.28645  1.0000 -0.1298493779
C   C294      1.0  0.00074  0.80999  0.28645  1.0000 -0.1298493779
C   C295      1.0  0.80999  0.99926  0.28645  1.0000 -0.1298493779
C   C296      1.0  0.19001  0.00074  0.28645  1.0000 -0.1298493779
C   C297      1.0  0.50074  0.69001  0.78645  1.0000 -0.1298493779
C   C298      1.0  0.30999  0.50074  0.78645  1.0000 -0.1298493779
C   C299      1.0  0.49926  0.30999  0.78645  1.0000 -0.1298493779
C   C300      1.0  0.69001  0.49926  0.78645  1.0000 -0.1298493779
C   C301      1.0  0.00074  0.80999  0.71355  1.0000 -0.1298493779
C   C302      1.0  0.99926  0.19001  0.71355  1.0000 -0.1298493779
C   C303      1.0  0.19001  0.00074  0.71355  1.0000 -0.1298493779
C   C304      1.0  0.80999  0.99926  0.71355  1.0000 -0.1298493779
C   C305      1.0  0.46515  0.29945  0.23316  1.0000 0.0686546214
C   C306      1.0  0.70055  0.46515  0.23316  1.0000 0.0686546214
C   C307      1.0  0.53485  0.70055  0.23316  1.0000 0.0686546214
C   C308      1.0  0.29945  0.53485  0.23316  1.0000 0.0614191376
C   C309      1.0  0.96515  0.20055  0.26684  1.0000 0.0686546214
C   C310      1.0  0.03485  0.79945  0.26684  1.0000 0.0686546214
C   C311      1.0  0.79945  0.96515  0.26684  1.0000 0.0686546214
C   C312      1.0  0.20055  0.03485  0.26684  1.0000 0.0686546214
C   C313      1.0  0.53485  0.70055  0.76684  1.0000 0.0686546214
C   C314      1.0  0.29945  0.53485  0.76684  1.0000 0.0614191376
C   C315      1.0  0.46515  0.29945  0.76684  1.0000 0.0686546214
C   C316      1.0  0.70055  0.46515  0.76684  1.0000 0.0686546214
C   C317      1.0  0.03485  0.79945  0.73316  1.0000 0.0686546214
C   C318      1.0  0.96515  0.20055  0.73316  1.0000 0.0686546214
C   C319      1.0  0.20055  0.03485  0.73316  1.0000 0.0686546214
C   C320      1.0  0.79945  0.96515  0.73316  1.0000 0.0686546214
C   C321      1.0  0.42978  0.27885  0.22226  1.0000 -0.1493569441
C   C322      1.0  0.72115  0.42978  0.22226  1.0000 -0.1493569441
C   C323      1.0  0.57022  0.72115  0.22226  1.0000 -0.1493569441
C   C324      1.0  0.27885  0.57022  0.22226  1.0000 -0.1493569441
C   C325      1.0  0.92978  0.22115  0.27774  1.0000 -0.1493569441
C   C326      1.0  0.07022  0.77885  0.27774  1.0000 -0.1493569441
C   C327      1.0  0.77885  0.92978  0.27774  1.0000 -0.1493569441
C   C328      1.0  0.22115  0.07022  0.27774  1.0000 -0.1493569441
C   C329      1.0  0.57022  0.72115  0.77774  1.0000 -0.1493569441
C   C330      1.0  0.27885  0.57022  0.77774  1.0000 -0.1493569441
C   C331      1.0  0.42978  0.27885  0.77774  1.0000 -0.1493569441
C   C332      1.0  0.72115  0.42978  0.77774  1.0000 -0.1493569441
C   C333      1.0  0.07022  0.77885  0.72226  1.0000 -0.1493569441
C   C334      1.0  0.92978  0.22115  0.72226  1.0000 -0.1493569441
C   C335      1.0  0.22115  0.07022  0.72226  1.0000 -0.1493569441
C   C336      1.0  0.77885  0.92978  0.72226  1.0000 -0.1493569441
C   C337      1.0  0.46804  0.31264  0.26377  1.0000 0.0614191376
C   C338      1.0  0.68736  0.46804  0.26377  1.0000 0.0614191376
C   C339      1.0  0.53196  0.68736  0.26377  1.0000 0.0614191376
C   C340      1.0  0.31264  0.53196  0.26377  1.0000 0.0614191376
C   C341      1.0  0.96804  0.18736  0.23623  1.0000 0.0614191376
C   C342      1.0  0.03196  0.81264  0.23623  1.0000 0.0614191376
C   C343      1.0  0.81264  0.96804  0.23623  1.0000 0.0614191376
C   C344      1.0  0.18736  0.03196  0.23623  1.0000 0.0614191376
C   C345      1.0  0.53196  0.68736  0.73623  1.0000 0.0614191376
C   C346      1.0  0.31264  0.53196  0.73623  1.0000 0.0614191376
C   C347      1.0  0.46804  0.31264  0.73623  1.0000 0.0614191376
C   C348      1.0  0.68736  0.46804  0.73623  1.0000 0.0614191376
C   C349      1.0  0.03196  0.81264  0.76377  1.0000 0.0614191376
C   C350      1.0  0.96804  0.18736  0.76377  1.0000 0.0614191376
C   C351      1.0  0.18736  0.03196  0.76377  1.0000 0.0614191376
C   C352      1.0  0.81264  0.96804  0.76377  1.0000 0.0614191376
C   C353      1.0  0.50789  0.31451  0.27857  1.0000 -0.1493569441
C   C354      1.0  0.68549  0.50789  0.27857  1.0000 -0.1493569441
C   C355      1.0  0.49211  0.68549  0.27857  1.0000 -0.1493569441
C   C356      1.0  0.31451  0.49211  0.27857  1.0000 -0.1493569441
C   C357      1.0  0.00789  0.18549  0.22143  1.0000 -0.1493569441
C   C358      1.0  0.99211  0.81451  0.22143  1.0000 -0.1493569441
C   C359      1.0  0.81451  0.00789  0.22143  1.0000 -0.1493569441
C   C360      1.0  0.18549  0.99211  0.22143  1.0000 -0.1493569441
C   C361      1.0  0.49211  0.68549  0.72143  1.0000 -0.1493569441
C   C362      1.0  0.31451  0.49211  0.72143  1.0000 -0.1493569441
C   C363      1.0  0.50789  0.31451  0.72143  1.0000 -0.1493569441
C   C364      1.0  0.68549  0.50789  0.72143  1.0000 -0.1493569441
C   C365      1.0  0.99211  0.81451  0.77857  1.0000 -0.1493569441
C   C366      1.0  0.00789  0.18549  0.77857  1.0000 -0.1493569441
C   C367      1.0  0.18549  0.99211  0.77857  1.0000 -0.1493569441
C   C368      1.0  0.81451  0.00789  0.77857  1.0000 -0.1493569441
C   C369      1.0  0.51060  0.32839  0.30744  1.0000 -0.0244479315
C   C370      1.0  0.67161  0.51060  0.30744  1.0000 -0.0244479315
C   C371      1.0  0.48940  0.67161  0.30744  1.0000 -0.0244479315
C   C372      1.0  0.32839  0.48940  0.30744  1.0000 -0.0244479315
C   C373      1.0  0.01060  0.17161  0.19256  1.0000 -0.025617116
C   C374      1.0  0.98940  0.82839  0.19256  1.0000 -0.0244479315
C   C375      1.0  0.82839  0.01060  0.19256  1.0000 -0.0244479315
C   C376      1.0  0.17161  0.98940  0.19256  1.0000 -0.025617116
C   C377      1.0  0.48940  0.67161  0.69256  1.0000 -0.025617116
C   C378      1.0  0.32839  0.48940  0.69256  1.0000 -0.0244479315
C   C379      1.0  0.51060  0.32839  0.69256  1.0000 -0.025617116
C   C380      1.0  0.67161  0.51060  0.69256  1.0000 -0.0244479315
C   C381      1.0  0.98940  0.82839  0.80744  1.0000 -0.0244479315
C   C382      1.0  0.01060  0.17161  0.80744  1.0000 -0.025617116
C   C383      1.0  0.17161  0.98940  0.80744  1.0000 -0.025617116
C   C384      1.0  0.82839  0.01060  0.80744  1.0000 -0.0244479315
C   C385      1.0  0.47314  0.34091  0.32182  1.0000 -0.1009060153
C   C386      1.0  0.65909  0.47314  0.32182  1.0000 -0.1009060153
C   C387      1.0  0.52686  0.65909  0.32182  1.0000 -0.1009060153
C   C388      1.0  0.34091  0.52686  0.32182  1.0000 -0.1009060153
C   C389      1.0  0.97314  0.15909  0.17818  1.0000 -0.1009060153
C   C390      1.0  0.02686  0.84091  0.17818  1.0000 -0.1009060153
C   C391      1.0  0.84091  0.97314  0.17818  1.0000 -0.1009060153
C   C392      1.0  0.15909  0.02686  0.17818  1.0000 -0.1009060153
C   C393      1.0  0.52686  0.65909  0.67818  1.0000 -0.1009060153
C   C394      1.0  0.34091  0.52686  0.67818  1.0000 -0.1009060153
C   C395      1.0  0.47314  0.34091  0.67818  1.0000 -0.1009060153
C   C396      1.0  0.65909  0.47314  0.67818  1.0000 -0.1009060153
C   C397      1.0  0.02686  0.84091  0.82182  1.0000 -0.1009060153
C   C398      1.0  0.97314  0.15909  0.82182  1.0000 -0.1009060153
C   C399      1.0  0.15909  0.02686  0.82182  1.0000 -0.1009060153
C   C400      1.0  0.84091  0.97314  0.82182  1.0000 -0.1009060153
C   C401      1.0  0.43360  0.33845  0.30811  1.0000 -0.0105250735
C   C402      1.0  0.66155  0.43360  0.30811  1.0000 -0.0105250735
C   C403      1.0  0.56640  0.66155  0.30811  1.0000 -0.0105250735
C   C404      1.0  0.33845  0.56640  0.30811  1.0000 -0.0105250735
C   C405      1.0  0.93360  0.16155  0.19189  1.0000 -0.0105250735
C   C406      1.0  0.06640  0.83845  0.19189  1.0000 -0.0105250735
C   C407      1.0  0.83845  0.93360  0.19189  1.0000 -0.0105250735
C   C408      1.0  0.16155  0.06640  0.19189  1.0000 -0.0105250735
C   C409      1.0  0.56640  0.66155  0.69189  1.0000 -0.0105250735
C   C410      1.0  0.33845  0.56640  0.69189  1.0000 -0.0105250735
C   C411      1.0  0.43360  0.33845  0.69189  1.0000 -0.0105250735
C   C412      1.0  0.66155  0.43360  0.69189  1.0000 -0.0105250735
C   C413      1.0  0.06640  0.83845  0.80811  1.0000 -0.0105250735
C   C414      1.0  0.93360  0.16155  0.80811  1.0000 -0.0105250735
C   C415      1.0  0.16155  0.06640  0.80811  1.0000 -0.0105250735
C   C416      1.0  0.83845  0.93360  0.80811  1.0000 -0.0105250735
C   C417      1.0  0.43087  0.32414  0.27951  1.0000 -0.1413749629
C   C418      1.0  0.67586  0.43087  0.27951  1.0000 -0.1413749629
C   C419      1.0  0.56913  0.67586  0.27951  1.0000 -0.1413749629
C   C420      1.0  0.32414  0.56913  0.27951  1.0000 -0.1413749629
C   C421      1.0  0.93087  0.17586  0.22049  1.0000 -0.1413749629
C   C422      1.0  0.06913  0.82414  0.22049  1.0000 -0.1413749629
C   C423      1.0  0.82414  0.93087  0.22049  1.0000 -0.1413749629
C   C424      1.0  0.17586  0.06913  0.22049  1.0000 -0.1413749629
C   C425      1.0  0.56913  0.67586  0.72049  1.0000 -0.1413749629
C   C426      1.0  0.32414  0.56913  0.72049  1.0000 -0.1413749629
C   C427      1.0  0.43087  0.32414  0.72049  1.0000 -0.1413749629
C   C428      1.0  0.67586  0.43087  0.72049  1.0000 -0.1413749629
C   C429      1.0  0.06913  0.82414  0.77951  1.0000 -0.1413749629
C   C430      1.0  0.93087  0.17586  0.77951  1.0000 -0.1413749629
C   C431      1.0  0.17586  0.06913  0.77951  1.0000 -0.1413749629
C   C432      1.0  0.82414  0.93087  0.77951  1.0000 -0.1413749629
C   C433      1.0  0.55261  0.32945  0.32304  1.0000 0.5830295288
C   C434      1.0  0.67055  0.55261  0.32304  1.0000 0.5830295288
C   C435      1.0  0.44739  0.67055  0.32304  1.0000 0.5830295288
C   C436      1.0  0.32945  0.44739  0.32304  1.0000 0.5830295288
C   C437      1.0  0.05261  0.17055  0.17696  1.0000 0.586890164
C   C438      1.0  0.94739  0.82945  0.17696  1.0000 0.586890164
C   C439      1.0  0.82945  0.05261  0.17696  1.0000 0.586890164
C   C440      1.0  0.17055  0.94739  0.17696  1.0000 0.5830295288
C   C441      1.0  0.44739  0.67055  0.67696  1.0000 0.5830295288
C   C442      1.0  0.32945  0.44739  0.67696  1.0000 0.5830295288
C   C443      1.0  0.55261  0.32945  0.67696  1.0000 0.5830295288
C   C444      1.0  0.67055  0.55261  0.67696  1.0000 0.5830295288
C   C445      1.0  0.94739  0.82945  0.82304  1.0000 0.586890164
C   C446      1.0  0.05261  0.17055  0.82304  1.0000 0.586890164
C   C447      1.0  0.17055  0.94739  0.82304  1.0000 0.586890164
C   C448      1.0  0.82945  0.05261  0.82304  1.0000 0.586890164
C   C449      1.0  0.39399  0.35175  0.32484  1.0000 0.586890164
C   C450      1.0  0.64825  0.39399  0.32484  1.0000 0.586890164
C   C451      1.0  0.60601  0.64825  0.32484  1.0000 0.586890164
C   C452      1.0  0.35175  0.60601  0.32484  1.0000 0.586890164
C   C453      1.0  0.89399  0.14825  0.17516  1.0000 0.586890164
C   C454      1.0  0.10601  0.85175  0.17516  1.0000 0.586890164
C   C455      1.0  0.85175  0.89399  0.17516  1.0000 0.586890164
C   C456      1.0  0.14825  0.10601  0.17516  1.0000 0.586890164
C   C457      1.0  0.60601  0.64825  0.67516  1.0000 0.586890164
C   C458      1.0  0.35175  0.60601  0.67516  1.0000 0.586890164
C   C459      1.0  0.39399  0.35175  0.67516  1.0000 0.586890164
C   C460      1.0  0.64825  0.39399  0.67516  1.0000 0.586890164
C   C461      1.0  0.10601  0.85175  0.82484  1.0000 0.586890164
C   C462      1.0  0.89399  0.14825  0.82484  1.0000 0.586890164
C   C463      1.0  0.14825  0.10601  0.82484  1.0000 0.586890164
C   C464      1.0  0.85175  0.89399  0.82484  1.0000 0.586890164
C   C465      1.0  0.09054  0.23469  0.12207  1.0000 0.586890164
C   C466      1.0  0.76531  0.09054  0.12207  1.0000 0.586890164
C   C467      1.0  0.90946  0.76531  0.12207  1.0000 0.586890164
C   C468      1.0  0.23469  0.90946  0.12207  1.0000 0.586890164
C   C469      1.0  0.59054  0.26531  0.37793  1.0000 0.586890164
C   C470      1.0  0.40946  0.73469  0.37793  1.0000 0.586890164
C   C471      1.0  0.73469  0.59054  0.37793  1.0000 0.586890164
C   C472      1.0  0.26531  0.40946  0.37793  1.0000 0.586890164
C   C473      1.0  0.90946  0.76531  0.87793  1.0000 0.586890164
C   C474      1.0  0.23469  0.90946  0.87793  1.0000 0.586890164
C   C475      1.0  0.09054  0.23469  0.87793  1.0000 0.586890164
C   C476      1.0  0.76531  0.09054  0.87793  1.0000 0.586890164
C   C477      1.0  0.40946  0.73469  0.62207  1.0000 0.586890164
C   C478      1.0  0.59054  0.26531  0.62207  1.0000 0.586890164
C   C479      1.0  0.26531  0.40946  0.62207  1.0000 0.586890164
C   C480      1.0  0.73469  0.59054  0.62207  1.0000 0.586890164
C   C481      1.0  0.04866  0.26760  0.08120  1.0000 -0.1064980108
C   C482      1.0  0.73240  0.04866  0.08120  1.0000 -0.1064980108
C   C483      1.0  0.95134  0.73240  0.08120  1.0000 -0.1064980108
C   C484      1.0  0.26760  0.95134  0.08120  1.0000 -0.1064980108
C   C485      1.0  0.54866  0.23240  0.41880  1.0000 -0.1064980108
C   C486      1.0  0.45134  0.76760  0.41880  1.0000 -0.1064980108
C   C487      1.0  0.76760  0.54866  0.41880  1.0000 -0.1064980108
C   C488      1.0  0.23240  0.45134  0.41880  1.0000 -0.1064980108
C   C489      1.0  0.95134  0.73240  0.91880  1.0000 -0.1064980108
C   C490      1.0  0.26760  0.95134  0.91880  1.0000 -0.1064980108
C   C491      1.0  0.04866  0.26760  0.91880  1.0000 -0.1064980108
C   C492      1.0  0.73240  0.04866  0.91880  1.0000 -0.1064980108
C   C493      1.0  0.45134  0.76760  0.58120  1.0000 -0.1064980108
C   C494      1.0  0.54866  0.23240  0.58120  1.0000 -0.1064980108
C   C495      1.0  0.23240  0.45134  0.58120  1.0000 -0.1064980108
C   C496      1.0  0.76760  0.54866  0.58120  1.0000 -0.1064980108
C   C497      1.0  0.02596  0.30146  0.06899  1.0000 -0.0105250735
C   C498      1.0  0.69854  0.02596  0.06899  1.0000 -0.0105250735
C   C499      1.0  0.97404  0.69854  0.06899  1.0000 -0.0105250735
C   C500      1.0  0.30146  0.97404  0.06899  1.0000 -0.0105250735
C   C501      1.0  0.52596  0.19854  0.43101  1.0000 -0.0105250735
C   C502      1.0  0.47404  0.80146  0.43101  1.0000 -0.0105250735
C   C503      1.0  0.80146  0.52596  0.43101  1.0000 -0.0105250735
C   C504      1.0  0.19854  0.47404  0.43101  1.0000 -0.0105250735
C   C505      1.0  0.97404  0.69854  0.93101  1.0000 -0.0105250735
C   C506      1.0  0.30146  0.97404  0.93101  1.0000 -0.0105250735
C   C507      1.0  0.02596  0.30146  0.93101  1.0000 -0.0105250735
C   C508      1.0  0.69854  0.02596  0.93101  1.0000 -0.0105250735
C   C509      1.0  0.47404  0.80146  0.56899  1.0000 -0.0105250735
C   C510      1.0  0.52596  0.19854  0.56899  1.0000 -0.0105250735
C   C511      1.0  0.19854  0.47404  0.56899  1.0000 -0.0105250735
C   C512      1.0  0.80146  0.52596  0.56899  1.0000 -0.0105250735
C   C513      1.0  0.02206  0.34089  0.08415  1.0000 -0.1493569441
C   C514      1.0  0.65911  0.02206  0.08415  1.0000 -0.1493569441
C   C515      1.0  0.97794  0.65911  0.08415  1.0000 -0.1493569441
C   C516      1.0  0.34089  0.97794  0.08415  1.0000 -0.1493569441
C   C517      1.0  0.52206  0.15911  0.41585  1.0000 -0.1493569441
C   C518      1.0  0.47794  0.84089  0.41585  1.0000 -0.1493569441
C   C519      1.0  0.84089  0.52206  0.41585  1.0000 -0.1493569441
C   C520      1.0  0.15911  0.47794  0.41585  1.0000 -0.1493569441
C   C521      1.0  0.97794  0.65911  0.91585  1.0000 -0.1493569441
C   C522      1.0  0.34089  0.97794  0.91585  1.0000 -0.1493569441
C   C523      1.0  0.02206  0.34089  0.91585  1.0000 -0.1493569441
C   C524      1.0  0.65911  0.02206  0.91585  1.0000 -0.1493569441
C   C525      1.0  0.47794  0.84089  0.58415  1.0000 -0.1493569441
C   C526      1.0  0.52206  0.15911  0.58415  1.0000 -0.1493569441
C   C527      1.0  0.15911  0.47794  0.58415  1.0000 -0.1493569441
C   C528      1.0  0.84089  0.52206  0.58415  1.0000 -0.1493569441
C   C529      1.0  0.04055  0.34559  0.11170  1.0000 0.0686546214
C   C530      1.0  0.65441  0.04055  0.11170  1.0000 0.0686546214
C   C531      1.0  0.95945  0.65441  0.11170  1.0000 0.0686546214
C   C532      1.0  0.34559  0.95945  0.11170  1.0000 0.0686546214
C   C533      1.0  0.54055  0.15441  0.38830  1.0000 0.0686546214
C   C534      1.0  0.45945  0.84559  0.38830  1.0000 0.0686546214
C   C535      1.0  0.84559  0.54055  0.38830  1.0000 0.0686546214
C   C536      1.0  0.15441  0.45945  0.38830  1.0000 0.0686546214
C   C537      1.0  0.95945  0.65441  0.88830  1.0000 0.0686546214
C   C538      1.0  0.34559  0.95945  0.88830  1.0000 0.0686546214
C   C539      1.0  0.04055  0.34559  0.88830  1.0000 0.0686546214
C   C540      1.0  0.65441  0.04055  0.88830  1.0000 0.0686546214
C   C541      1.0  0.45945  0.84559  0.61170  1.0000 0.0686546214
C   C542      1.0  0.54055  0.15441  0.61170  1.0000 0.0686546214
C   C543      1.0  0.15441  0.45945  0.61170  1.0000 0.0686546214
C   C544      1.0  0.84559  0.54055  0.61170  1.0000 0.0686546214
C   C545      1.0  0.06445  0.31141  0.12308  1.0000 -0.1413749629
C   C546      1.0  0.68859  0.06445  0.12308  1.0000 -0.1413749629
C   C547      1.0  0.93555  0.68859  0.12308  1.0000 -0.1413749629
C   C548      1.0  0.31141  0.93555  0.12308  1.0000 -0.1413749629
C   C549      1.0  0.56445  0.18859  0.37692  1.0000 -0.1493569441
C   C550      1.0  0.43555  0.81141  0.37692  1.0000 -0.1413749629
C   C551      1.0  0.81141  0.56445  0.37692  1.0000 -0.1493569441
C   C552      1.0  0.18859  0.43555  0.37692  1.0000 -0.1493569441
C   C553      1.0  0.93555  0.68859  0.87692  1.0000 -0.1413749629
C   C554      1.0  0.31141  0.93555  0.87692  1.0000 -0.1413749629
C   C555      1.0  0.06445  0.31141  0.87692  1.0000 -0.1413749629
C   C556      1.0  0.68859  0.06445  0.87692  1.0000 -0.1413749629
C   C557      1.0  0.43555  0.81141  0.62308  1.0000 -0.1413749629
C   C558      1.0  0.56445  0.18859  0.62308  1.0000 -0.1493569441
C   C559      1.0  0.18859  0.43555  0.62308  1.0000 -0.1493569441
C   C560      1.0  0.81141  0.56445  0.62308  1.0000 -0.1493569441
C   C561      1.0  0.06769  0.27293  0.10825  1.0000 -0.0105250735
C   C562      1.0  0.72707  0.06769  0.10825  1.0000 -0.0105250735
C   C563      1.0  0.93231  0.72707  0.10825  1.0000 -0.0105250735
C   C564      1.0  0.27293  0.93231  0.10825  1.0000 -0.0105250735
C   C565      1.0  0.56769  0.22707  0.39175  1.0000 -0.0105250735
C   C566      1.0  0.43231  0.77293  0.39175  1.0000 -0.0105250735
C   C567      1.0  0.77293  0.56769  0.39175  1.0000 -0.0105250735
C   C568      1.0  0.22707  0.43231  0.39175  1.0000 -0.0105250735
C   C569      1.0  0.93231  0.72707  0.89175  1.0000 -0.0105250735
C   C570      1.0  0.27293  0.93231  0.89175  1.0000 -0.0105250735
C   C571      1.0  0.06769  0.27293  0.89175  1.0000 -0.0105250735
C   C572      1.0  0.72707  0.06769  0.89175  1.0000 -0.0105250735
C   C573      1.0  0.43231  0.77293  0.60825  1.0000 -0.0105250735
C   C574      1.0  0.56769  0.22707  0.60825  1.0000 -0.0105250735
C   C575      1.0  0.22707  0.43231  0.60825  1.0000 -0.0105250735
C   C576      1.0  0.77293  0.56769  0.60825  1.0000 -0.0105250735
C   C577      1.0  0.00170  0.29587  0.04087  1.0000 0.5830295288
C   C578      1.0  0.70413  0.00170  0.04087  1.0000 0.5830295288
C   C579      1.0  0.99830  0.70413  0.04087  1.0000 0.5830295288
C   C580      1.0  0.29587  0.99830  0.04087  1.0000 0.5830295288
C   C581      1.0  0.50170  0.20413  0.45913  1.0000 0.5830295288
C   C582      1.0  0.49830  0.79587  0.45913  1.0000 0.5830295288
C   C583      1.0  0.79587  0.50170  0.45913  1.0000 0.5830295288
C   C584      1.0  0.20413  0.49830  0.45913  1.0000 0.5830295288
C   C585      1.0  0.99830  0.70413  0.95913  1.0000 0.5830295288
C   C586      1.0  0.29587  0.99830  0.95913  1.0000 0.5830295288
C   C587      1.0  0.00170  0.29587  0.95913  1.0000 0.5830295288
C   C588      1.0  0.70413  0.00170  0.95913  1.0000 0.5830295288
C   C589      1.0  0.49830  0.79587  0.54087  1.0000 0.5830295288
C   C590      1.0  0.50170  0.20413  0.54087  1.0000 0.5830295288
C   C591      1.0  0.20413  0.49830  0.54087  1.0000 0.5830295288
C   C592      1.0  0.79587  0.50170  0.54087  1.0000 0.5830295288
C   C593      1.0  0.03329  0.38621  0.12796  1.0000 0.0686546214
C   C594      1.0  0.61379  0.03329  0.12796  1.0000 0.0686546214
C   C595      1.0  0.96671  0.61379  0.12796  1.0000 0.0686546214
C   C596      1.0  0.38621  0.96671  0.12796  1.0000 0.0686546214
C   C597      1.0  0.53329  0.11379  0.37204  1.0000 0.0686546214
C   C598      1.0  0.46671  0.88621  0.37204  1.0000 0.0686546214
C   C599      1.0  0.88621  0.53329  0.37204  1.0000 0.0686546214
C   C600      1.0  0.11379  0.46671  0.37204  1.0000 0.0686546214
C   C601      1.0  0.96671  0.61379  0.87204  1.0000 0.0686546214
C   C602      1.0  0.38621  0.96671  0.87204  1.0000 0.0686546214
C   C603      1.0  0.03329  0.38621  0.87204  1.0000 0.0686546214
C   C604      1.0  0.61379  0.03329  0.87204  1.0000 0.0686546214
C   C605      1.0  0.46671  0.88621  0.62796  1.0000 0.0686546214
C   C606      1.0  0.53329  0.11379  0.62796  1.0000 0.0686546214
C   C607      1.0  0.11379  0.46671  0.62796  1.0000 0.0686546214
C   C608      1.0  0.88621  0.53329  0.62796  1.0000 0.0686546214
C   C609      1.0  0.02300  0.42415  0.11311  1.0000 -0.1568715476
C   C610      1.0  0.57585  0.02300  0.11311  1.0000 -0.1568715476
C   C611      1.0  0.97700  0.57585  0.11311  1.0000 -0.1568715476
C   C612      1.0  0.42415  0.97700  0.11311  1.0000 -0.1568715476
C   C613      1.0  0.52300  0.07585  0.38689  1.0000 -0.1568715476
C   C614      1.0  0.47700  0.92415  0.38689  1.0000 -0.1568715476
C   C615      1.0  0.92415  0.52300  0.38689  1.0000 -0.1568715476
C   C616      1.0  0.07585  0.47700  0.38689  1.0000 -0.1568715476
C   C617      1.0  0.97700  0.57585  0.88689  1.0000 -0.1568715476
C   C618      1.0  0.42415  0.97700  0.88689  1.0000 -0.1568715476
C   C619      1.0  0.02300  0.42415  0.88689  1.0000 -0.1568715476
C   C620      1.0  0.57585  0.02300  0.88689  1.0000 -0.1568715476
C   C621      1.0  0.47700  0.92415  0.61311  1.0000 -0.1568715476
C   C622      1.0  0.52300  0.07585  0.61311  1.0000 -0.1568715476
C   C623      1.0  0.07585  0.47700  0.61311  1.0000 -0.1568715476
C   C624      1.0  0.92415  0.52300  0.61311  1.0000 -0.1568715476
C   C625      1.0  0.01213  0.46304  0.12820  1.0000 -0.0881747421
C   C626      1.0  0.53696  0.01213  0.12820  1.0000 -0.0881747421
C   C627      1.0  0.98787  0.53696  0.12820  1.0000 -0.0881747421
C   C628      1.0  0.46304  0.98787  0.12820  1.0000 -0.0881747421
C   C629      1.0  0.51213  0.03696  0.37180  1.0000 -0.0881747421
C   C630      1.0  0.48787  0.96304  0.37180  1.0000 -0.0881747421
C   C631      1.0  0.96304  0.51213  0.37180  1.0000 -0.0881747421
C   C632      1.0  0.03696  0.48787  0.37180  1.0000 -0.0881747421
C   C633      1.0  0.98787  0.53696  0.87180  1.0000 -0.0881747421
C   C634      1.0  0.46304  0.98787  0.87180  1.0000 -0.0881747421
C   C635      1.0  0.01213  0.46304  0.87180  1.0000 -0.0881747421
C   C636      1.0  0.53696  0.01213  0.87180  1.0000 -0.0881747421
C   C637      1.0  0.48787  0.96304  0.62820  1.0000 -0.0881747421
C   C638      1.0  0.51213  0.03696  0.62820  1.0000 -0.0881747421
C   C639      1.0  0.03696  0.48787  0.62820  1.0000 -0.0881747421
C   C640      1.0  0.96304  0.51213  0.62820  1.0000 -0.0881747421
C   C641      1.0  0.01079  0.46353  0.15828  1.0000 0.1896302575
C   C642      1.0  0.53647  0.01079  0.15828  1.0000 0.1896302575
C   C643      1.0  0.98921  0.53647  0.15828  1.0000 0.1896302575
C   C644      1.0  0.46353  0.98921  0.15828  1.0000 0.1896302575
C   C645      1.0  0.51079  0.03647  0.34172  1.0000 0.1815935712
C   C646      1.0  0.48921  0.96353  0.34172  1.0000 0.1896302575
C   C647      1.0  0.96353  0.51079  0.34172  1.0000 0.1815935712
C   C648      1.0  0.03647  0.48921  0.34172  1.0000 0.1815935712
C   C649      1.0  0.98921  0.53647  0.84172  1.0000 0.1896302575
C   C650      1.0  0.46353  0.98921  0.84172  1.0000 0.1896302575
C   C651      1.0  0.01079  0.46353  0.84172  1.0000 0.1896302575
C   C652      1.0  0.53647  0.01079  0.84172  1.0000 0.1896302575
C   C653      1.0  0.48921  0.96353  0.65828  1.0000 0.1896302575
C   C654      1.0  0.51079  0.03647  0.65828  1.0000 0.1815935712
C   C655      1.0  0.03647  0.48921  0.65828  1.0000 0.1815935712
C   C656      1.0  0.96353  0.51079  0.65828  1.0000 0.1815935712
C   C657      1.0  0.02047  0.42541  0.17323  1.0000 -0.1932532129
C   C658      1.0  0.57459  0.02047  0.17323  1.0000 -0.1932532129
C   C659      1.0  0.97953  0.57459  0.17323  1.0000 -0.1951507804
C   C660      1.0  0.42541  0.97953  0.17323  1.0000 -0.1932532129
C   C661      1.0  0.52047  0.07459  0.32677  1.0000 -0.1932532129
C   C662      1.0  0.47953  0.92541  0.32677  1.0000 -0.1932532129
C   C663      1.0  0.92541  0.52047  0.32677  1.0000 -0.1932532129
C   C664      1.0  0.07459  0.47953  0.32677  1.0000 -0.1932532129
C   C665      1.0  0.97953  0.57459  0.82677  1.0000 -0.1951507804
C   C666      1.0  0.42541  0.97953  0.82677  1.0000 -0.1932532129
C   C667      1.0  0.02047  0.42541  0.82677  1.0000 -0.1932532129
C   C668      1.0  0.57459  0.02047  0.82677  1.0000 -0.1932532129
C   C669      1.0  0.47953  0.92541  0.67323  1.0000 -0.1932532129
C   C670      1.0  0.52047  0.07459  0.67323  1.0000 -0.1932532129
C   C671      1.0  0.07459  0.47953  0.67323  1.0000 -0.1932532129
C   C672      1.0  0.92541  0.52047  0.67323  1.0000 -0.1932532129
C   C673      1.0  0.03205  0.38715  0.15783  1.0000 -0.1493569441
C   C674      1.0  0.61285  0.03205  0.15783  1.0000 -0.1493569441
C   C675      1.0  0.96795  0.61285  0.15783  1.0000 -0.1493569441
C   C676      1.0  0.38715  0.96795  0.15783  1.0000 -0.1493569441
C   C677      1.0  0.53205  0.11285  0.34217  1.0000 -0.1493569441
C   C678      1.0  0.46795  0.88715  0.34217  1.0000 -0.1493569441
C   C679      1.0  0.88715  0.53205  0.34217  1.0000 -0.1493569441
C   C680      1.0  0.11285  0.46795  0.34217  1.0000 -0.1493569441
C   C681      1.0  0.96795  0.61285  0.84217  1.0000 -0.1493569441
C   C682      1.0  0.38715  0.96795  0.84217  1.0000 -0.1493569441
C   C683      1.0  0.03205  0.38715  0.84217  1.0000 -0.1493569441
C   C684      1.0  0.61285  0.03205  0.84217  1.0000 -0.1493569441
C   C685      1.0  0.46795  0.88715  0.65783  1.0000 -0.1493569441
C   C686      1.0  0.53205  0.11285  0.65783  1.0000 -0.1493569441
C   C687      1.0  0.11285  0.46795  0.65783  1.0000 -0.1493569441
C   C688      1.0  0.88715  0.53205  0.65783  1.0000 -0.1493569441
C   C689      1.0  0.00000  0.50000  0.11215  1.0000 0.2910551133
C   C690      1.0  0.50000  0.00000  0.11215  1.0000 0.2910551133
C   C691      1.0  0.50000  0.00000  0.38785  1.0000 0.2910551133
C   C692      1.0  0.00000  0.50000  0.38785  1.0000 0.2910551133
C   C693      1.0  0.00000  0.50000  0.88785  1.0000 0.2910551133
C   C694      1.0  0.50000  0.00000  0.88785  1.0000 0.2910551133
C   C695      1.0  0.50000  0.00000  0.61215  1.0000 0.2910551133
C   C696      1.0  0.00000  0.50000  0.61215  1.0000 0.2910551133
N   N1        1.0  0.45523  0.27095  0.14472  1.0000 -0.3064645156
N   N2        1.0  0.72905  0.45523  0.14472  1.0000 -0.3064645156
N   N3        1.0  0.54477  0.72905  0.14472  1.0000 -0.3039008615
N   N4        1.0  0.27095  0.54477  0.14472  1.0000 -0.3064645156
N   N5        1.0  0.95523  0.22905  0.35528  1.0000 -0.3064645156
N   N6        1.0  0.04477  0.77095  0.35528  1.0000 -0.3039008615
N   N7        1.0  0.77095  0.95523  0.35528  1.0000 -0.3039008615
N   N8        1.0  0.22905  0.04477  0.35528  1.0000 -0.3064645156
N   N9        1.0  0.54477  0.72905  0.85528  1.0000 -0.3064645156
N   N10       1.0  0.27095  0.54477  0.85528  1.0000 -0.3064645156
N   N11       1.0  0.45523  0.27095  0.85528  1.0000 -0.3064645156
N   N12       1.0  0.72905  0.45523  0.85528  1.0000 -0.3064645156
N   N13       1.0  0.04477  0.77095  0.64472  1.0000 -0.3039008615
N   N14       1.0  0.95523  0.22905  0.64472  1.0000 -0.3064645156
N   N15       1.0  0.22905  0.04477  0.64472  1.0000 -0.3064645156
N   N16       1.0  0.77095  0.95523  0.64472  1.0000 -0.3039008615
N   N17       1.0  0.00000  0.50000  0.17218  1.0000 -0.3064645156
N   N18       1.0  0.50000  0.00000  0.17218  1.0000 -0.3064645156
N   N19       1.0  0.50000  0.00000  0.32782  1.0000 -0.3064645156
N   N20       1.0  0.00000  0.50000  0.32782  1.0000 -0.3064645156
N   N21       1.0  0.00000  0.50000  0.82782  1.0000 -0.3064645156
N   N22       1.0  0.50000  0.00000  0.82782  1.0000 -0.3064645156
N   N23       1.0  0.50000  0.00000  0.67218  1.0000 -0.3064645156
N   N24       1.0  0.00000  0.50000  0.67218  1.0000 -0.3064645156
O   O1        1.0  0.15906  0.14730  0.10845  1.0000 -0.5188452651
O   O2        1.0  0.85270  0.15906  0.10845  1.0000 -0.5188452651
O   O3        1.0  0.84094  0.85270  0.10845  1.0000 -0.5188452651
O   O4        1.0  0.14730  0.84094  0.10845  1.0000 -0.5188452651
O   O5        1.0  0.65906  0.35270  0.39155  1.0000 -0.5188452651
O   O6        1.0  0.34094  0.64730  0.39155  1.0000 -0.5188452651
O   O7        1.0  0.64730  0.65906  0.39155  1.0000 -0.5188452651
O   O8        1.0  0.35270  0.34094  0.39155  1.0000 -0.5188452651
O   O9        1.0  0.84094  0.85270  0.89155  1.0000 -0.5188452651
O   O10       1.0  0.14730  0.84094  0.89155  1.0000 -0.5188452651
O   O11       1.0  0.15906  0.14730  0.89155  1.0000 -0.5188452651
O   O12       1.0  0.85270  0.15906  0.89155  1.0000 -0.5188452651
O   O13       1.0  0.34094  0.64730  0.60845  1.0000 -0.5188452651
O   O14       1.0  0.65906  0.35270  0.60845  1.0000 -0.5188452651
O   O15       1.0  0.35270  0.34094  0.60845  1.0000 -0.5188452651
O   O16       1.0  0.64730  0.65906  0.60845  1.0000 -0.5188452651
O   O17       1.0  0.18719  0.19421  0.14058  1.0000 -0.5286213167
O   O18       1.0  0.80579  0.18719  0.14058  1.0000 -0.5286213167
O   O19       1.0  0.81281  0.80579  0.14058  1.0000 -0.5286213167
O   O20       1.0  0.19421  0.81281  0.14058  1.0000 -0.5286213167
O   O21       1.0  0.68719  0.30579  0.35942  1.0000 -0.5286213167
O   O22       1.0  0.31281  0.69421  0.35942  1.0000 -0.5286213167
O   O23       1.0  0.69421  0.68719  0.35942  1.0000 -0.5188452651
O   O24       1.0  0.30579  0.31281  0.35942  1.0000 -0.5286213167
O   O25       1.0  0.81281  0.80579  0.85942  1.0000 -0.5286213167
O   O26       1.0  0.19421  0.81281  0.85942  1.0000 -0.5286213167
O   O27       1.0  0.18719  0.19421  0.85942  1.0000 -0.5286213167
O   O28       1.0  0.80579  0.18719  0.85942  1.0000 -0.5286213167
O   O29       1.0  0.31281  0.69421  0.64058  1.0000 -0.5286213167
O   O30       1.0  0.68719  0.30579  0.64058  1.0000 -0.5286213167
O   O31       1.0  0.30579  0.31281  0.64058  1.0000 -0.5286213167
O   O32       1.0  0.69421  0.68719  0.64058  1.0000 -0.5188452651
O   O33       1.0  0.24648  0.08813  0.03016  1.0000 -0.5092083929
O   O34       1.0  0.91187  0.24648  0.03016  1.0000 -0.5092083929
O   O35       1.0  0.75352  0.91187  0.03016  1.0000 -0.5092083929
O   O36       1.0  0.08813  0.75352  0.03016  1.0000 -0.5092083929
O   O37       1.0  0.74648  0.41187  0.46984  1.0000 -0.5092083929
O   O38       1.0  0.25352  0.58813  0.46984  1.0000 -0.5092083929
O   O39       1.0  0.58813  0.74648  0.46984  1.0000 -0.5092083929
O   O40       1.0  0.41187  0.25352  0.46984  1.0000 -0.5092083929
O   O41       1.0  0.75352  0.91187  0.96984  1.0000 -0.5092083929
O   O42       1.0  0.08813  0.75352  0.96984  1.0000 -0.5092083929
O   O43       1.0  0.24648  0.08813  0.96984  1.0000 -0.5092083929
O   O44       1.0  0.91187  0.24648  0.96984  1.0000 -0.5092083929
O   O45       1.0  0.25352  0.58813  0.53016  1.0000 -0.5092083929
O   O46       1.0  0.74648  0.41187  0.53016  1.0000 -0.5092083929
O   O47       1.0  0.41187  0.25352  0.53016  1.0000 -0.5092083929
O   O48       1.0  0.58813  0.74648  0.53016  1.0000 -0.5092083929
O   O49       1.0  0.31779  0.10223  0.02948  1.0000 -0.5286213167
O   O50       1.0  0.89777  0.31779  0.02948  1.0000 -0.5286213167
O   O51       1.0  0.68221  0.89777  0.02948  1.0000 -0.5286213167
O   O52       1.0  0.10223  0.68221  0.02948  1.0000 -0.5286213167
O   O53       1.0  0.81779  0.39777  0.47052  1.0000 -0.5286213167
O   O54       1.0  0.18221  0.60223  0.47052  1.0000 -0.5286213167
O   O55       1.0  0.60223  0.81779  0.47052  1.0000 -0.5286213167
O   O56       1.0  0.39777  0.18221  0.47052  1.0000 -0.5286213167
O   O57       1.0  0.68221  0.89777  0.97052  1.0000 -0.5286213167
O   O58       1.0  0.10223  0.68221  0.97052  1.0000 -0.5286213167
O   O59       1.0  0.31779  0.10223  0.97052  1.0000 -0.5286213167
O   O60       1.0  0.89777  0.31779  0.97052  1.0000 -0.5286213167
O   O61       1.0  0.18221  0.60223  0.52948  1.0000 -0.5286213167
O   O62       1.0  0.81779  0.39777  0.52948  1.0000 -0.5286213167
O   O63       1.0  0.39777  0.18221  0.52948  1.0000 -0.5286213167
O   O64       1.0  0.60223  0.81779  0.52948  1.0000 -0.5286213167
O   O65       1.0  0.40001  0.37460  0.34690  1.0000 -0.5188452651
O   O66       1.0  0.62540  0.40001  0.34690  1.0000 -0.5188452651
O   O67       1.0  0.59999  0.62540  0.34690  1.0000 -0.5092083929
O   O68       1.0  0.37460  0.59999  0.34690  1.0000 -0.5092083929
O   O69       1.0  0.90001  0.12540  0.15310  1.0000 -0.5188452651
O   O70       1.0  0.09999  0.87460  0.15310  1.0000 -0.5188452651
O   O71       1.0  0.87460  0.90001  0.15310  1.0000 -0.5188452651
O   O72       1.0  0.12540  0.09999  0.15310  1.0000 -0.5188452651
O   O73       1.0  0.59999  0.62540  0.65310  1.0000 -0.5092083929
O   O74       1.0  0.37460  0.59999  0.65310  1.0000 -0.5092083929
O   O75       1.0  0.40001  0.37460  0.65310  1.0000 -0.5188452651
O   O76       1.0  0.62540  0.40001  0.65310  1.0000 -0.5188452651
O   O77       1.0  0.09999  0.87460  0.84690  1.0000 -0.5188452651
O   O78       1.0  0.90001  0.12540  0.84690  1.0000 -0.5188452651
O   O79       1.0  0.12540  0.09999  0.84690  1.0000 -0.5188452651
O   O80       1.0  0.87460  0.90001  0.84690  1.0000 -0.5188452651
O   O81       1.0  0.35778  0.34041  0.31462  1.0000 -0.5188452651
O   O82       1.0  0.65959  0.35778  0.31462  1.0000 -0.5188452651
O   O83       1.0  0.64222  0.65959  0.31462  1.0000 -0.5188452651
O   O84       1.0  0.34041  0.64222  0.31462  1.0000 -0.5188452651
O   O85       1.0  0.85778  0.15959  0.18538  1.0000 -0.5188452651
O   O86       1.0  0.14222  0.84041  0.18538  1.0000 -0.5188452651
O   O87       1.0  0.84041  0.85778  0.18538  1.0000 -0.5188452651
O   O88       1.0  0.15959  0.14222  0.18538  1.0000 -0.5188452651
O   O89       1.0  0.64222  0.65959  0.68538  1.0000 -0.5188452651
O   O90       1.0  0.34041  0.64222  0.68538  1.0000 -0.5188452651
O   O91       1.0  0.35778  0.34041  0.68538  1.0000 -0.5188452651
O   O92       1.0  0.65959  0.35778  0.68538  1.0000 -0.5188452651
O   O93       1.0  0.14222  0.84041  0.81462  1.0000 -0.5188452651
O   O94       1.0  0.85778  0.15959  0.81462  1.0000 -0.5188452651
O   O95       1.0  0.15959  0.14222  0.81462  1.0000 -0.5188452651
O   O96       1.0  0.84041  0.85778  0.81462  1.0000 -0.5188452651
O   O97       1.0  0.55279  0.34822  0.34767  1.0000 -0.5286213167
O   O98       1.0  0.65178  0.55279  0.34767  1.0000 -0.5286213167
O   O99       1.0  0.44721  0.65178  0.34767  1.0000 -0.5286213167
O   O100      1.0  0.34822  0.44721  0.34767  1.0000 -0.5286213167
O   O101      1.0  0.05279  0.15178  0.15233  1.0000 -0.5286213167
O   O102      1.0  0.94721  0.84822  0.15233  1.0000 -0.5286213167
O   O103      1.0  0.84822  0.05279  0.15233  1.0000 -0.5286213167
O   O104      1.0  0.15178  0.94721  0.15233  1.0000 -0.5286213167
O   O105      1.0  0.44721  0.65178  0.65233  1.0000 -0.5286213167
O   O106      1.0  0.34822  0.44721  0.65233  1.0000 -0.5286213167
O   O107      1.0  0.55279  0.34822  0.65233  1.0000 -0.5286213167
O   O108      1.0  0.65178  0.55279  0.65233  1.0000 -0.5286213167
O   O109      1.0  0.94721  0.84822  0.84767  1.0000 -0.5286213167
O   O110      1.0  0.05279  0.15178  0.84767  1.0000 -0.5286213167
O   O111      1.0  0.15178  0.94721  0.84767  1.0000 -0.5286213167
O   O112      1.0  0.84822  0.05279  0.84767  1.0000 -0.5286213167
O   O113      1.0  0.58455  0.31181  0.31090  1.0000 -0.5188452651
O   O114      1.0  0.68819  0.58455  0.31090  1.0000 -0.5188452651
O   O115      1.0  0.41545  0.68819  0.31090  1.0000 -0.5188452651
O   O116      1.0  0.31181  0.41545  0.31090  1.0000 -0.5188452651
O   O117      1.0  0.08455  0.18819  0.18910  1.0000 -0.5188452651
O   O118      1.0  0.91545  0.81181  0.18910  1.0000 -0.5188452651
O   O119      1.0  0.81181  0.08455  0.18910  1.0000 -0.5188452651
O   O120      1.0  0.18819  0.91545  0.18910  1.0000 -0.5188452651
O   O121      1.0  0.41545  0.68819  0.68910  1.0000 -0.5188452651
O   O122      1.0  0.31181  0.41545  0.68910  1.0000 -0.5188452651
O   O123      1.0  0.58455  0.31181  0.68910  1.0000 -0.5188452651
O   O124      1.0  0.68819  0.58455  0.68910  1.0000 -0.5188452651
O   O125      1.0  0.91545  0.81181  0.81090  1.0000 -0.5188452651
O   O126      1.0  0.08455  0.18819  0.81090  1.0000 -0.5188452651
O   O127      1.0  0.18819  0.91545  0.81090  1.0000 -0.5188452651
O   O128      1.0  0.81181  0.08455  0.81090  1.0000 -0.5188452651
O   O129      1.0  0.08745  0.19918  0.10877  1.0000 -0.5188452651
O   O130      1.0  0.80082  0.08745  0.10877  1.0000 -0.5188452651
O   O131      1.0  0.91255  0.80082  0.10877  1.0000 -0.5188452651
O   O132      1.0  0.19918  0.91255  0.10877  1.0000 -0.5188452651
O   O133      1.0  0.58745  0.30082  0.39123  1.0000 -0.5188452651
O   O134      1.0  0.41255  0.69918  0.39123  1.0000 -0.5188452651
O   O135      1.0  0.69918  0.58745  0.39123  1.0000 -0.5188452651
O   O136      1.0  0.30082  0.41255  0.39123  1.0000 -0.5188452651
O   O137      1.0  0.91255  0.80082  0.89123  1.0000 -0.5188452651
O   O138      1.0  0.19918  0.91255  0.89123  1.0000 -0.5188452651
O   O139      1.0  0.08745  0.19918  0.89123  1.0000 -0.5188452651
O   O140      1.0  0.80082  0.08745  0.89123  1.0000 -0.5188452651
O   O141      1.0  0.41255  0.69918  0.60877  1.0000 -0.5188452651
O   O142      1.0  0.58745  0.30082  0.60877  1.0000 -0.5188452651
O   O143      1.0  0.30082  0.41255  0.60877  1.0000 -0.5188452651
O   O144      1.0  0.69918  0.58745  0.60877  1.0000 -0.5188452651
O   O145      1.0  0.11060  0.24148  0.14523  1.0000 -0.5188452651
O   O146      1.0  0.75852  0.11060  0.14523  1.0000 -0.5188452651
O   O147      1.0  0.88940  0.75852  0.14523  1.0000 -0.5188452651
O   O148      1.0  0.24148  0.88940  0.14523  1.0000 -0.5188452651
O   O149      1.0  0.61060  0.25852  0.35477  1.0000 -0.5188452651
O   O150      1.0  0.38940  0.74148  0.35477  1.0000 -0.5188452651
O   O151      1.0  0.74148  0.61060  0.35477  1.0000 -0.5188452651
O   O152      1.0  0.25852  0.38940  0.35477  1.0000 -0.5188452651
O   O153      1.0  0.88940  0.75852  0.85477  1.0000 -0.5188452651
O   O154      1.0  0.24148  0.88940  0.85477  1.0000 -0.5188452651
O   O155      1.0  0.11060  0.24148  0.85477  1.0000 -0.5188452651
O   O156      1.0  0.75852  0.11060  0.85477  1.0000 -0.5188452651
O   O157      1.0  0.38940  0.74148  0.64523  1.0000 -0.5188452651
O   O158      1.0  0.61060  0.25852  0.64523  1.0000 -0.5188452651
O   O159      1.0  0.25852  0.38940  0.64523  1.0000 -0.5188452651
O   O160      1.0  0.74148  0.61060  0.64523  1.0000 -0.5188452651
O   O161      1.0  0.99867  0.25901  0.03070  1.0000 -0.4978221477
O   O162      1.0  0.74099  0.99867  0.03070  1.0000 -0.4978221477
O   O163      1.0  0.00133  0.74099  0.03070  1.0000 -0.4978221477
O   O164      1.0  0.25901  0.00133  0.03070  1.0000 -0.4978221477
O   O165      1.0  0.49867  0.24099  0.46930  1.0000 -0.4978221477
O   O166      1.0  0.50133  0.75901  0.46930  1.0000 -0.4978221477
O   O167      1.0  0.75901  0.49867  0.46930  1.0000 -0.4978221477
O   O168      1.0  0.24099  0.50133  0.46930  1.0000 -0.4978221477
O   O169      1.0  0.00133  0.74099  0.96930  1.0000 -0.4978221477
O   O170      1.0  0.25901  0.00133  0.96930  1.0000 -0.4978221477
O   O171      1.0  0.99867  0.25901  0.96930  1.0000 -0.4978221477
O   O172      1.0  0.74099  0.99867  0.96930  1.0000 -0.4978221477
O   O173      1.0  0.50133  0.75901  0.53070  1.0000 -0.4978221477
O   O174      1.0  0.49867  0.24099  0.53070  1.0000 -0.4978221477
O   O175      1.0  0.24099  0.50133  0.53070  1.0000 -0.4978221477
O   O176      1.0  0.75901  0.49867  0.53070  1.0000 -0.4978221477
O   O177      1.0  0.98518  0.33080  0.03066  1.0000 -0.5413132412
O   O178      1.0  0.66920  0.98518  0.03066  1.0000 -0.5413132412
O   O179      1.0  0.01482  0.66920  0.03066  1.0000 -0.5413132412
O   O180      1.0  0.33080  0.01482  0.03066  1.0000 -0.5413132412
O   O181      1.0  0.48518  0.16920  0.46934  1.0000 -0.5413132412
O   O182      1.0  0.51482  0.83080  0.46934  1.0000 -0.5413132412
O   O183      1.0  0.83080  0.48518  0.46934  1.0000 -0.5413132412
O   O184      1.0  0.16920  0.51482  0.46934  1.0000 -0.5413132412
O   O185      1.0  0.01482  0.66920  0.96934  1.0000 -0.5413132412
O   O186      1.0  0.33080  0.01482  0.96934  1.0000 -0.5413132412
O   O187      1.0  0.98518  0.33080  0.96934  1.0000 -0.5413132412
O   O188      1.0  0.66920  0.98518  0.96934  1.0000 -0.5413132412
O   O189      1.0  0.51482  0.83080  0.53066  1.0000 -0.5413132412
O   O190      1.0  0.48518  0.16920  0.53066  1.0000 -0.5413132412
O   O191      1.0  0.16920  0.51482  0.53066  1.0000 -0.5413132412
O   O192      1.0  0.83080  0.48518  0.53066  1.0000 -0.5413132412
O   O193      1.0  0.35669  0.23904  0.19809  1.0000 -0.3918588915
O   O194      1.0  0.76096  0.35669  0.19809  1.0000 -0.3918588915
O   O195      1.0  0.64331  0.76096  0.19809  1.0000 -0.3918588915
O   O196      1.0  0.23904  0.64331  0.19809  1.0000 -0.3918588915
O   O197      1.0  0.85669  0.26096  0.30191  1.0000 -0.3918588915
O   O198      1.0  0.14331  0.73904  0.30191  1.0000 -0.3918588915
O   O199      1.0  0.73904  0.85669  0.30191  1.0000 -0.3918588915
O   O200      1.0  0.26096  0.14331  0.30191  1.0000 -0.3918588915
O   O201      1.0  0.64331  0.76096  0.80191  1.0000 -0.3918588915
O   O202      1.0  0.23904  0.64331  0.80191  1.0000 -0.3918588915
O   O203      1.0  0.35669  0.23904  0.80191  1.0000 -0.3918588915
O   O204      1.0  0.76096  0.35669  0.80191  1.0000 -0.3918588915
O   O205      1.0  0.14331  0.73904  0.69809  1.0000 -0.3918588915
O   O206      1.0  0.85669  0.26096  0.69809  1.0000 -0.3918588915
O   O207      1.0  0.26096  0.14331  0.69809  1.0000 -0.3918588915
O   O208      1.0  0.73904  0.85669  0.69809  1.0000 -0.3918588915
O   O209      1.0  0.00000  0.50000  0.08480  1.0000 -0.4284348702
O   O210      1.0  0.50000  0.00000  0.08480  1.0000 -0.4284348702
O   O211      1.0  0.50000  0.00000  0.41520  1.0000 -0.4284348702
O   O212      1.0  0.00000  0.50000  0.41520  1.0000 -0.4284348702
O   O213      1.0  0.00000  0.50000  0.91520  1.0000 -0.4284348702
O   O214      1.0  0.50000  0.00000  0.91520  1.0000 -0.4284348702
O   O215      1.0  0.50000  0.00000  0.58480  1.0000 -0.4284348702
O   O216      1.0  0.00000  0.50000  0.58480  1.0000 -0.4284348702
