# DDEC6 charges by PACMAN v1.1 (https://github.com/mtap-research/PACMAN-charge/)
data_2014[Co][nan]3[ASR]17
_chemical_formula_sum              "Co12 H96 C120 N8 O40"
_cell_length_a       17.5191
_cell_length_b       17.5191
_cell_length_c       15.163
_cell_angle_alpha    90
_cell_angle_beta     90
_cell_angle_gamma    90

_symmetry_space_group_name_H-M    "P 1"
_symmetry_Int_Tables_number       1

loop_
  _symmetry_equiv_pos_as_xyz
  'x, y, z'

loop_
  _atom_site_type_symbol
  _atom_site_label
  _atom_site_symmetry_multiplicity
  _atom_site_fract_x
  _atom_site_fract_y
  _atom_site_fract_z
  _atom_site_occupancy
  _atom_site_charge
Co  Co1       1.0  0.14164  0.90112  0.96851  1.0000 0.9058548444
Co  Co2       1.0  0.85836  0.09888  0.96851  1.0000 0.9058548444
Co  Co3       1.0  0.09888  0.14164  0.03149  1.0000 0.9058548444
Co  Co4       1.0  0.90112  0.85836  0.03149  1.0000 0.9058548444
Co  Co5       1.0  0.85836  0.90112  0.46851  1.0000 0.9058548444
Co  Co6       1.0  0.14164  0.09888  0.46851  1.0000 0.9058548444
Co  Co7       1.0  0.90112  0.14164  0.53149  1.0000 0.9058548444
Co  Co8       1.0  0.09888  0.85836  0.53149  1.0000 0.9058548444
Co  Co9       1.0  0.14710  0.85290  0.75000  1.0000 0.9684004718
Co  Co10      1.0  0.85290  0.14710  0.75000  1.0000 0.9684004718
Co  Co11      1.0  0.14710  0.14710  0.25000  1.0000 0.9684004718
Co  Co12      1.0  0.85290  0.85290  0.25000  1.0000 0.9684004718
H   H1        1.0  0.11020  0.01990  0.77300  1.0000 0.0973497479
H   H2        1.0  0.88980  0.98010  0.77300  1.0000 0.0973497479
H   H3        1.0  0.98010  0.11020  0.22700  1.0000 0.0973497479
H   H4        1.0  0.01990  0.88980  0.22700  1.0000 0.0973497479
H   H5        1.0  0.88980  0.01990  0.27300  1.0000 0.0973497479
H   H6        1.0  0.11020  0.98010  0.27300  1.0000 0.0973497479
H   H7        1.0  0.01990  0.11020  0.72700  1.0000 0.0973497479
H   H8        1.0  0.98010  0.88980  0.72700  1.0000 0.0973497479
H   H9        1.0  0.24110  0.00180  0.74040  1.0000 0.1295650632
H   H10       1.0  0.75890  0.99820  0.74040  1.0000 0.1295650632
H   H11       1.0  0.99820  0.24110  0.25960  1.0000 0.1295650632
H   H12       1.0  0.00180  0.75890  0.25960  1.0000 0.1295650632
H   H13       1.0  0.75890  0.00180  0.24040  1.0000 0.1295650632
H   H14       1.0  0.24110  0.99820  0.24040  1.0000 0.1295650632
H   H15       1.0  0.00180  0.24110  0.75960  1.0000 0.1295650632
H   H16       1.0  0.99820  0.75890  0.75960  1.0000 0.1295650632
H   H17       1.0  0.22910  0.08430  0.78340  1.0000 0.1463283179
H   H18       1.0  0.77090  0.91570  0.78340  1.0000 0.1463283179
H   H19       1.0  0.91570  0.22910  0.21660  1.0000 0.1463283179
H   H20       1.0  0.08430  0.77090  0.21660  1.0000 0.1463283179
H   H21       1.0  0.77090  0.08430  0.28340  1.0000 0.1463283179
H   H22       1.0  0.22910  0.91570  0.28340  1.0000 0.1463283179
H   H23       1.0  0.08430  0.22910  0.71660  1.0000 0.1463283179
H   H24       1.0  0.91570  0.77090  0.71660  1.0000 0.1463283179
H   H25       1.0  0.26290  0.01590  0.84150  1.0000 0.1295650632
H   H26       1.0  0.73710  0.98410  0.84150  1.0000 0.1295650632
H   H27       1.0  0.98410  0.26290  0.15850  1.0000 0.1295650632
H   H28       1.0  0.01590  0.73710  0.15850  1.0000 0.1295650632
H   H29       1.0  0.73710  0.01590  0.34150  1.0000 0.1295650632
H   H30       1.0  0.26290  0.98410  0.34150  1.0000 0.1295650632
H   H31       1.0  0.01590  0.26290  0.65850  1.0000 0.1295650632
H   H32       1.0  0.98410  0.73710  0.65850  1.0000 0.1295650632
H   H33       1.0  0.12660  0.66890  0.04470  1.0000 0.1295650632
H   H34       1.0  0.87340  0.33110  0.04470  1.0000 0.1295650632
H   H35       1.0  0.33110  0.12660  0.95530  1.0000 0.1295650632
H   H36       1.0  0.66890  0.87340  0.95530  1.0000 0.1295650632
H   H37       1.0  0.87340  0.66890  0.54470  1.0000 0.1295650632
H   H38       1.0  0.12660  0.33110  0.54470  1.0000 0.1295650632
H   H39       1.0  0.66890  0.12660  0.45530  1.0000 0.1295650632
H   H40       1.0  0.33110  0.87340  0.45530  1.0000 0.1295650632
H   H41       1.0  0.10630  0.54050  0.08040  1.0000 0.1128074163
H   H42       1.0  0.89370  0.45950  0.08040  1.0000 0.1128074163
H   H43       1.0  0.45950  0.10630  0.91960  1.0000 0.1128074163
H   H44       1.0  0.54050  0.89370  0.91960  1.0000 0.1128074163
H   H45       1.0  0.89370  0.54050  0.58040  1.0000 0.1128074163
H   H46       1.0  0.10630  0.45950  0.58040  1.0000 0.1128074163
H   H47       1.0  0.54050  0.10630  0.41960  1.0000 0.1128074163
H   H48       1.0  0.45950  0.89370  0.41960  1.0000 0.1128074163
H   H49       1.0  0.12090  0.48480  0.82160  1.0000 0.1193720583
H   H50       1.0  0.87910  0.51520  0.82160  1.0000 0.1193720583
H   H51       1.0  0.51520  0.12090  0.17840  1.0000 0.1193720583
H   H52       1.0  0.48480  0.87910  0.17840  1.0000 0.1193720583
H   H53       1.0  0.87910  0.48480  0.32160  1.0000 0.1193720583
H   H54       1.0  0.12090  0.51520  0.32160  1.0000 0.1193720583
H   H55       1.0  0.48480  0.12090  0.67840  1.0000 0.1193720583
H   H56       1.0  0.51520  0.87910  0.67840  1.0000 0.1193720583
H   H57       1.0  0.13560  0.61350  0.78600  1.0000 0.1193720583
H   H58       1.0  0.86440  0.38650  0.78600  1.0000 0.1193720583
H   H59       1.0  0.38650  0.13560  0.21400  1.0000 0.1193720583
H   H60       1.0  0.61350  0.86440  0.21400  1.0000 0.1193720583
H   H61       1.0  0.86440  0.61350  0.28600  1.0000 0.1193720583
H   H62       1.0  0.13560  0.38650  0.28600  1.0000 0.1193720583
H   H63       1.0  0.61350  0.13560  0.71400  1.0000 0.1193720583
H   H64       1.0  0.38650  0.86440  0.71400  1.0000 0.1193720583
H   H65       1.0  0.04330  0.38510  0.86860  1.0000 0.1295650632
H   H66       1.0  0.95670  0.61490  0.86860  1.0000 0.1295650632
H   H67       1.0  0.61490  0.04330  0.13140  1.0000 0.1295650632
H   H68       1.0  0.38510  0.95670  0.13140  1.0000 0.1295650632
H   H69       1.0  0.95670  0.38510  0.36860  1.0000 0.1295650632
H   H70       1.0  0.04330  0.61490  0.36860  1.0000 0.1295650632
H   H71       1.0  0.38510  0.04330  0.63140  1.0000 0.1295650632
H   H72       1.0  0.61490  0.95670  0.63140  1.0000 0.1295650632
H   H73       1.0  0.03680  0.25680  0.90250  1.0000 0.1128074163
H   H74       1.0  0.96320  0.74320  0.90250  1.0000 0.1128074163
H   H75       1.0  0.74320  0.03680  0.09750  1.0000 0.1128074163
H   H76       1.0  0.25680  0.96320  0.09750  1.0000 0.1128074163
H   H77       1.0  0.96320  0.25680  0.40250  1.0000 0.1128074163
H   H78       1.0  0.03680  0.74320  0.40250  1.0000 0.1128074163
H   H79       1.0  0.25680  0.03680  0.59750  1.0000 0.1128074163
H   H80       1.0  0.74320  0.96320  0.59750  1.0000 0.1128074163
H   H81       1.0  0.15190  0.28920  0.12170  1.0000 0.1128074163
H   H82       1.0  0.84810  0.71080  0.12170  1.0000 0.1128074163
H   H83       1.0  0.71080  0.15190  0.87830  1.0000 0.1128074163
H   H84       1.0  0.28920  0.84810  0.87830  1.0000 0.1128074163
H   H85       1.0  0.84810  0.28920  0.62170  1.0000 0.1128074163
H   H86       1.0  0.15190  0.71080  0.62170  1.0000 0.1128074163
H   H87       1.0  0.28920  0.15190  0.37830  1.0000 0.1128074163
H   H88       1.0  0.71080  0.84810  0.37830  1.0000 0.1128074163
H   H89       1.0  0.16040  0.41850  0.09510  1.0000 0.1295650632
H   H90       1.0  0.83960  0.58150  0.09510  1.0000 0.1295650632
H   H91       1.0  0.58150  0.16040  0.90490  1.0000 0.1295650632
H   H92       1.0  0.41850  0.83960  0.90490  1.0000 0.1295650632
H   H93       1.0  0.83960  0.41850  0.59510  1.0000 0.1295650632
H   H94       1.0  0.16040  0.58150  0.59510  1.0000 0.1295650632
H   H95       1.0  0.41850  0.16040  0.40490  1.0000 0.1295650632
H   H96       1.0  0.58150  0.83960  0.40490  1.0000 0.1295650632
C   C1        1.0  0.12510  0.05260  0.90330  1.0000 0.5467491605
C   C2        1.0  0.87490  0.94740  0.90330  1.0000 0.5467491605
C   C3        1.0  0.94740  0.12510  0.09670  1.0000 0.5467491605
C   C4        1.0  0.05260  0.87490  0.09670  1.0000 0.5467491605
C   C5        1.0  0.87490  0.05260  0.40330  1.0000 0.5467491605
C   C6        1.0  0.12510  0.94740  0.40330  1.0000 0.5467491605
C   C7        1.0  0.05260  0.12510  0.59670  1.0000 0.5467491605
C   C8        1.0  0.94740  0.87490  0.59670  1.0000 0.5467491605
C   C9        1.0  0.14630  0.00680  0.82170  1.0000 0.1193720583
C   C10       1.0  0.85370  0.99320  0.82170  1.0000 0.1193720583
C   C11       1.0  0.99320  0.14630  0.17830  1.0000 0.1193720583
C   C12       1.0  0.00680  0.85370  0.17830  1.0000 0.1193720583
C   C13       1.0  0.85370  0.00680  0.32170  1.0000 0.1193720583
C   C14       1.0  0.14630  0.99320  0.32170  1.0000 0.1193720583
C   C15       1.0  0.00680  0.14630  0.67830  1.0000 0.1193720583
C   C16       1.0  0.99320  0.85370  0.67830  1.0000 0.1193720583
C   C17       1.0  0.22710  0.02920  0.79430  1.0000 -0.4769587732
C   C18       1.0  0.77290  0.97080  0.79430  1.0000 -0.4769587732
C   C19       1.0  0.97080  0.22710  0.20570  1.0000 -0.4769587732
C   C20       1.0  0.02920  0.77290  0.20570  1.0000 -0.4769587732
C   C21       1.0  0.77290  0.02920  0.29430  1.0000 -0.4769587732
C   C22       1.0  0.22710  0.97080  0.29430  1.0000 -0.4769587732
C   C23       1.0  0.02920  0.22710  0.70570  1.0000 -0.4769587732
C   C24       1.0  0.97080  0.77290  0.70570  1.0000 -0.4769587732
C   C25       1.0  0.14220  0.73690  0.88910  1.0000 0.5723594138
C   C26       1.0  0.85780  0.26310  0.88910  1.0000 0.5723594138
C   C27       1.0  0.26310  0.14220  0.11090  1.0000 0.5723594138
C   C28       1.0  0.73690  0.85780  0.11090  1.0000 0.5723594138
C   C29       1.0  0.85780  0.73690  0.38910  1.0000 0.5723594138
C   C30       1.0  0.14220  0.26310  0.38910  1.0000 0.5723594138
C   C31       1.0  0.73690  0.14220  0.61090  1.0000 0.5723594138
C   C32       1.0  0.26310  0.85780  0.61090  1.0000 0.5723594138
C   C33       1.0  0.13250  0.65370  0.91170  1.0000 -0.0291451654
C   C34       1.0  0.86750  0.34630  0.91170  1.0000 -0.0291451654
C   C35       1.0  0.34630  0.13250  0.08830  1.0000 -0.0291451654
C   C36       1.0  0.65370  0.86750  0.08830  1.0000 -0.0291451654
C   C37       1.0  0.86750  0.65370  0.41170  1.0000 -0.0291451654
C   C38       1.0  0.13250  0.34630  0.41170  1.0000 -0.0291451654
C   C39       1.0  0.65370  0.13250  0.58830  1.0000 -0.0291451654
C   C40       1.0  0.34630  0.86750  0.58830  1.0000 -0.0291451654
C   C41       1.0  0.12450  0.63160  0.99930  1.0000 -0.098682304
C   C42       1.0  0.87550  0.36840  0.99930  1.0000 -0.098682304
C   C43       1.0  0.36840  0.12450  0.00070  1.0000 -0.098682304
C   C44       1.0  0.63160  0.87550  0.00070  1.0000 -0.098682304
C   C45       1.0  0.87550  0.63160  0.49930  1.0000 -0.098682304
C   C46       1.0  0.12450  0.36840  0.49930  1.0000 -0.098682304
C   C47       1.0  0.63160  0.12450  0.50070  1.0000 -0.098682304
C   C48       1.0  0.36840  0.87550  0.50070  1.0000 -0.098682304
C   C49       1.0  0.11330  0.55510  0.02060  1.0000 -0.1540099895
C   C50       1.0  0.88670  0.44490  0.02060  1.0000 -0.1540099895
C   C51       1.0  0.44490  0.11330  0.97940  1.0000 -0.1540099895
C   C52       1.0  0.55510  0.88670  0.97940  1.0000 -0.1540099895
C   C53       1.0  0.88670  0.55510  0.52060  1.0000 -0.1540099895
C   C54       1.0  0.11330  0.44490  0.52060  1.0000 -0.1540099895
C   C55       1.0  0.55510  0.11330  0.47940  1.0000 -0.1540099895
C   C56       1.0  0.44490  0.88670  0.47940  1.0000 -0.1540099895
C   C57       1.0  0.11240  0.49970  0.95430  1.0000 0.0639527225
C   C58       1.0  0.88760  0.50030  0.95430  1.0000 0.0639527225
C   C59       1.0  0.50030  0.11240  0.04570  1.0000 0.0639527225
C   C60       1.0  0.49970  0.88760  0.04570  1.0000 0.0639527225
C   C61       1.0  0.88760  0.49970  0.45430  1.0000 0.0639527225
C   C62       1.0  0.11240  0.50030  0.45430  1.0000 0.0639527225
C   C63       1.0  0.49970  0.11240  0.54570  1.0000 0.0639527225
C   C64       1.0  0.50030  0.88760  0.54570  1.0000 0.0639527225
C   C65       1.0  0.12120  0.52210  0.86710  1.0000 -0.1540099895
C   C66       1.0  0.87880  0.47790  0.86710  1.0000 -0.1540099895
C   C67       1.0  0.47790  0.12120  0.13290  1.0000 -0.1540099895
C   C68       1.0  0.52210  0.87880  0.13290  1.0000 -0.1540099895
C   C69       1.0  0.87880  0.52210  0.36710  1.0000 -0.1540099895
C   C70       1.0  0.12120  0.47790  0.36710  1.0000 -0.1540099895
C   C71       1.0  0.52210  0.12120  0.63290  1.0000 -0.1540099895
C   C72       1.0  0.47790  0.87880  0.63290  1.0000 -0.1540099895
C   C73       1.0  0.13060  0.59870  0.84590  1.0000 -0.1100342936
C   C74       1.0  0.86940  0.40130  0.84590  1.0000 -0.1100342936
C   C75       1.0  0.40130  0.13060  0.15410  1.0000 -0.1100342936
C   C76       1.0  0.59870  0.86940  0.15410  1.0000 -0.1100342936
C   C77       1.0  0.86940  0.59870  0.34590  1.0000 -0.1100342936
C   C78       1.0  0.13060  0.40130  0.34590  1.0000 -0.1100342936
C   C79       1.0  0.59870  0.13060  0.65410  1.0000 -0.1100342936
C   C80       1.0  0.40130  0.86940  0.65410  1.0000 -0.1100342936
C   C81       1.0  0.10430  0.41710  0.97670  1.0000 0.1128074163
C   C82       1.0  0.89570  0.58290  0.97670  1.0000 0.1128074163
C   C83       1.0  0.58290  0.10430  0.02330  1.0000 0.1128074163
C   C84       1.0  0.41710  0.89570  0.02330  1.0000 0.1128074163
C   C85       1.0  0.89570  0.41710  0.47670  1.0000 0.1128074163
C   C86       1.0  0.10430  0.58290  0.47670  1.0000 0.1128074163
C   C87       1.0  0.41710  0.10430  0.52330  1.0000 0.1128074163
C   C88       1.0  0.58290  0.89570  0.52330  1.0000 0.1128074163
C   C89       1.0  0.06650  0.36680  0.92110  1.0000 -0.1925113118
C   C90       1.0  0.93350  0.63320  0.92110  1.0000 -0.1925113118
C   C91       1.0  0.63320  0.06650  0.07890  1.0000 -0.1925113118
C   C92       1.0  0.36680  0.93350  0.07890  1.0000 -0.1925113118
C   C93       1.0  0.93350  0.36680  0.42110  1.0000 -0.1925113118
C   C94       1.0  0.06650  0.63320  0.42110  1.0000 -0.1925113118
C   C95       1.0  0.36680  0.06650  0.57890  1.0000 -0.1925113118
C   C96       1.0  0.63320  0.93350  0.57890  1.0000 -0.1925113118
C   C97       1.0  0.06270  0.29010  0.94180  1.0000 0.0973497479
C   C98       1.0  0.93730  0.70990  0.94180  1.0000 0.0973497479
C   C99       1.0  0.70990  0.06270  0.05820  1.0000 0.0973497479
C   C100      1.0  0.29010  0.93730  0.05820  1.0000 0.0973497479
C   C101      1.0  0.93730  0.29010  0.44180  1.0000 0.0973497479
C   C102      1.0  0.06270  0.70990  0.44180  1.0000 0.0973497479
C   C103      1.0  0.29010  0.06270  0.55820  1.0000 0.0973497479
C   C104      1.0  0.70990  0.93730  0.55820  1.0000 0.0973497479
C   C105      1.0  0.12960  0.30910  0.06950  1.0000 0.0853781373
C   C106      1.0  0.87040  0.69090  0.06950  1.0000 0.0853781373
C   C107      1.0  0.69090  0.12960  0.93050  1.0000 0.0853781373
C   C108      1.0  0.30910  0.87040  0.93050  1.0000 0.0853781373
C   C109      1.0  0.87040  0.30910  0.56950  1.0000 0.0853781373
C   C110      1.0  0.12960  0.69090  0.56950  1.0000 0.0853781373
C   C111      1.0  0.30910  0.12960  0.43050  1.0000 0.0853781373
C   C112      1.0  0.69090  0.87040  0.43050  1.0000 0.0853781373
C   C113      1.0  0.13540  0.38630  0.05380  1.0000 -0.197341186
C   C114      1.0  0.86460  0.61370  0.05380  1.0000 -0.197341186
C   C115      1.0  0.61370  0.13540  0.94620  1.0000 -0.197341186
C   C116      1.0  0.38630  0.86460  0.94620  1.0000 -0.197341186
C   C117      1.0  0.86460  0.38630  0.55380  1.0000 -0.197341186
C   C118      1.0  0.13540  0.61370  0.55380  1.0000 -0.197341186
C   C119      1.0  0.38630  0.13540  0.44620  1.0000 -0.197341186
C   C120      1.0  0.61370  0.86460  0.44620  1.0000 -0.197341186
N   N1        1.0  0.09398  0.26057  0.01492  1.0000 -0.246579378
N   N2        1.0  0.90602  0.73943  0.01492  1.0000 -0.246579378
N   N3        1.0  0.73943  0.09398  0.98508  1.0000 -0.246579378
N   N4        1.0  0.26057  0.90602  0.98508  1.0000 -0.246579378
N   N5        1.0  0.90602  0.26057  0.51492  1.0000 -0.246579378
N   N6        1.0  0.09398  0.73943  0.51492  1.0000 -0.246579378
N   N7        1.0  0.26057  0.09398  0.48508  1.0000 -0.246579378
N   N8        1.0  0.73943  0.90602  0.48508  1.0000 -0.246579378
O   O1        1.0  0.11371  0.12363  0.89667  1.0000 -0.5138317263
O   O2        1.0  0.88629  0.87637  0.89667  1.0000 -0.5138317263
O   O3        1.0  0.87637  0.11371  0.10333  1.0000 -0.5138317263
O   O4        1.0  0.12363  0.88629  0.10333  1.0000 -0.5138317263
O   O5        1.0  0.88629  0.12363  0.39667  1.0000 -0.5138317263
O   O6        1.0  0.11371  0.87637  0.39667  1.0000 -0.5138317263
O   O7        1.0  0.12363  0.11371  0.60333  1.0000 -0.5138317263
O   O8        1.0  0.87637  0.88629  0.60333  1.0000 -0.5138317263
O   O9        1.0  0.12207  0.01969  0.97695  1.0000 -0.5318762055
O   O10       1.0  0.87793  0.98031  0.97695  1.0000 -0.5318762055
O   O11       1.0  0.98031  0.12207  0.02305  1.0000 -0.5318762055
O   O12       1.0  0.01969  0.87793  0.02305  1.0000 -0.5318762055
O   O13       1.0  0.87793  0.01969  0.47695  1.0000 -0.5318762055
O   O14       1.0  0.12207  0.98031  0.47695  1.0000 -0.5318762055
O   O15       1.0  0.01969  0.12207  0.52305  1.0000 -0.5318762055
O   O16       1.0  0.98031  0.87793  0.52305  1.0000 -0.5318762055
O   O17       1.0  0.13972  0.92794  0.84133  1.0000 -0.6320733643
O   O18       1.0  0.86028  0.07206  0.84133  1.0000 -0.6320733643
O   O19       1.0  0.07206  0.13972  0.15867  1.0000 -0.6320733643
O   O20       1.0  0.92794  0.86028  0.15867  1.0000 -0.6320733643
O   O21       1.0  0.86028  0.92794  0.34133  1.0000 -0.6320733643
O   O22       1.0  0.13972  0.07206  0.34133  1.0000 -0.6320733643
O   O23       1.0  0.92794  0.13972  0.65867  1.0000 -0.6320733643
O   O24       1.0  0.07206  0.86028  0.65867  1.0000 -0.6320733643
O   O25       1.0  0.14610  0.75235  0.80792  1.0000 -0.5756836748
O   O26       1.0  0.85390  0.24765  0.80792  1.0000 -0.5756836748
O   O27       1.0  0.24765  0.14610  0.19208  1.0000 -0.5756836748
O   O28       1.0  0.75235  0.85390  0.19208  1.0000 -0.5756836748
O   O29       1.0  0.85390  0.75235  0.30792  1.0000 -0.5756836748
O   O30       1.0  0.14610  0.24765  0.30792  1.0000 -0.5756836748
O   O31       1.0  0.75235  0.14610  0.69208  1.0000 -0.5756836748
O   O32       1.0  0.24765  0.85390  0.69208  1.0000 -0.5756836748
O   O33       1.0  0.14492  0.78401  0.95070  1.0000 -0.5439561224
O   O34       1.0  0.85508  0.21599  0.95070  1.0000 -0.5439561224
O   O35       1.0  0.21599  0.14492  0.04930  1.0000 -0.5439561224
O   O36       1.0  0.78401  0.85508  0.04930  1.0000 -0.5439561224
O   O37       1.0  0.85508  0.78401  0.45070  1.0000 -0.5439561224
O   O38       1.0  0.14492  0.21599  0.45070  1.0000 -0.5439561224
O   O39       1.0  0.78401  0.14492  0.54930  1.0000 -0.5439561224
O   O40       1.0  0.21599  0.85508  0.54930  1.0000 -0.5439561224
