# DDEC6 charges by PACMAN v1.1 (https://github.com/mtap-research/PACMAN-charge/)
data_2014[Zn][nan]3[ASR]13
_chemical_formula_sum              "Zn16 H64 C120 O56"
_cell_length_a       6.5716
_cell_length_b       20.2193
_cell_length_c       27.935
_cell_angle_alpha    90
_cell_angle_beta     90
_cell_angle_gamma    90

_symmetry_space_group_name_H-M    "P 1"
_symmetry_Int_Tables_number       1

loop_
  _symmetry_equiv_pos_as_xyz
  'x, y, z'

loop_
  _atom_site_type_symbol
  _atom_site_label
  _atom_site_symmetry_multiplicity
  _atom_site_fract_x
  _atom_site_fract_y
  _atom_site_fract_z
  _atom_site_occupancy
  _atom_site_charge
Zn  Zn1       1.0  0.31035  0.87669  0.62851  1.0000 0.9764742795
Zn  Zn2       1.0  0.68965  0.62331  0.12851  1.0000 0.9764742795
Zn  Zn3       1.0  0.81035  0.12331  0.87149  1.0000 0.9764742795
Zn  Zn4       1.0  0.18965  0.37669  0.37149  1.0000 0.9764742795
Zn  Zn5       1.0  0.68965  0.12331  0.37149  1.0000 0.9764742795
Zn  Zn6       1.0  0.31035  0.37669  0.87149  1.0000 0.9764742795
Zn  Zn7       1.0  0.18965  0.87669  0.12851  1.0000 0.9764742795
Zn  Zn8       1.0  0.81035  0.62331  0.62851  1.0000 0.9764742795
Zn  Zn9       1.0  0.98597  0.77868  0.66775  1.0000 0.9764742795
Zn  Zn10      1.0  0.01403  0.72132  0.16775  1.0000 0.9764742795
Zn  Zn11      1.0  0.48597  0.22132  0.83225  1.0000 0.9764742795
Zn  Zn12      1.0  0.51403  0.27868  0.33225  1.0000 0.9764742795
Zn  Zn13      1.0  0.01403  0.22132  0.33225  1.0000 0.9764742795
Zn  Zn14      1.0  0.98597  0.27868  0.83225  1.0000 0.9764742795
Zn  Zn15      1.0  0.51403  0.77868  0.16775  1.0000 0.9764742795
Zn  Zn16      1.0  0.48597  0.72132  0.66775  1.0000 0.9764742795
H   H1        1.0  0.46510  0.00550  0.84090  1.0000 0.1221417092
H   H2        1.0  0.53490  0.49450  0.34090  1.0000 0.1221417092
H   H3        1.0  0.96510  0.99450  0.65910  1.0000 0.1221417092
H   H4        1.0  0.03490  0.50550  0.15910  1.0000 0.1221417092
H   H5        1.0  0.53490  0.99450  0.15910  1.0000 0.1221417092
H   H6        1.0  0.46510  0.50550  0.65910  1.0000 0.1221417092
H   H7        1.0  0.03490  0.00550  0.34090  1.0000 0.1221417092
H   H8        1.0  0.96510  0.49450  0.84090  1.0000 0.1221417092
H   H9        1.0  0.92800  0.92700  0.87780  1.0000 0.1221417092
H   H10       1.0  0.07200  0.57300  0.37780  1.0000 0.1221417092
H   H11       1.0  0.42800  0.07300  0.62220  1.0000 0.1221417092
H   H12       1.0  0.57200  0.42700  0.12220  1.0000 0.1221417092
H   H13       1.0  0.07200  0.07300  0.12220  1.0000 0.1221417092
H   H14       1.0  0.92800  0.42700  0.62220  1.0000 0.1221417092
H   H15       1.0  0.57200  0.92700  0.37780  1.0000 0.1221417092
H   H16       1.0  0.42800  0.57300  0.87780  1.0000 0.1221417092
H   H17       1.0  0.88910  0.88520  0.80160  1.0000 0.1221417092
H   H18       1.0  0.11090  0.61480  0.30160  1.0000 0.1221417092
H   H19       1.0  0.38910  0.11480  0.69840  1.0000 0.1221417092
H   H20       1.0  0.61090  0.38520  0.19840  1.0000 0.1221417092
H   H21       1.0  0.11090  0.11480  0.19840  1.0000 0.1221417092
H   H22       1.0  0.88910  0.38520  0.69840  1.0000 0.1221417092
H   H23       1.0  0.61090  0.88520  0.30160  1.0000 0.1221417092
H   H24       1.0  0.38910  0.61480  0.80160  1.0000 0.1221417092
H   H25       1.0  0.42690  0.96330  0.76360  1.0000 0.1221417092
H   H26       1.0  0.57310  0.53670  0.26360  1.0000 0.1221417092
H   H27       1.0  0.92690  0.03670  0.73640  1.0000 0.1221417092
H   H28       1.0  0.07310  0.46330  0.23640  1.0000 0.1221417092
H   H29       1.0  0.57310  0.03670  0.23640  1.0000 0.1221417092
H   H30       1.0  0.42690  0.46330  0.73640  1.0000 0.1221417092
H   H31       1.0  0.07310  0.96330  0.26360  1.0000 0.1221417092
H   H32       1.0  0.92690  0.53670  0.76360  1.0000 0.1221417092
H   H33       1.0  0.32630  0.12800  0.98000  1.0000 0.126057757
H   H34       1.0  0.67370  0.37200  0.48000  1.0000 0.126057757
H   H35       1.0  0.82630  0.87200  0.52000  1.0000 0.126057757
H   H36       1.0  0.17370  0.62800  0.02000  1.0000 0.126057757
H   H37       1.0  0.67370  0.87200  0.02000  1.0000 0.126057757
H   H38       1.0  0.32630  0.62800  0.52000  1.0000 0.126057757
H   H39       1.0  0.17370  0.12800  0.48000  1.0000 0.126057757
H   H40       1.0  0.82630  0.37200  0.98000  1.0000 0.126057757
H   H41       1.0  0.29850  0.05280  0.04210  1.0000 0.1221417092
H   H42       1.0  0.70150  0.44720  0.54210  1.0000 0.1221417092
H   H43       1.0  0.79850  0.94720  0.45790  1.0000 0.1221417092
H   H44       1.0  0.20150  0.55280  0.95790  1.0000 0.1221417092
H   H45       1.0  0.70150  0.94720  0.95790  1.0000 0.1221417092
H   H46       1.0  0.29850  0.55280  0.45790  1.0000 0.1221417092
H   H47       1.0  0.20150  0.05280  0.54210  1.0000 0.1221417092
H   H48       1.0  0.79850  0.44720  0.04210  1.0000 0.1221417092
H   H49       1.0  0.17990  0.90810  0.94950  1.0000 0.1221417092
H   H50       1.0  0.82010  0.59190  0.44950  1.0000 0.1221417092
H   H51       1.0  0.67990  0.09190  0.55050  1.0000 0.1221417092
H   H52       1.0  0.32010  0.40810  0.05050  1.0000 0.1221417092
H   H53       1.0  0.82010  0.09190  0.05050  1.0000 0.1221417092
H   H54       1.0  0.17990  0.40810  0.55050  1.0000 0.1221417092
H   H55       1.0  0.32010  0.90810  0.44950  1.0000 0.1221417092
H   H56       1.0  0.67990  0.59190  0.94950  1.0000 0.1221417092
H   H57       1.0  0.21360  0.75630  0.60840  1.0000 0.403118154
H   H58       1.0  0.78640  0.74370  0.10840  1.0000 0.403118154
H   H59       1.0  0.71360  0.24370  0.89160  1.0000 0.403118154
H   H60       1.0  0.28640  0.25630  0.39160  1.0000 0.403118154
H   H61       1.0  0.78640  0.24370  0.39160  1.0000 0.403118154
H   H62       1.0  0.21360  0.25630  0.89160  1.0000 0.403118154
H   H63       1.0  0.28640  0.75630  0.10840  1.0000 0.403118154
H   H64       1.0  0.71360  0.74370  0.60840  1.0000 0.403118154
C   C1        1.0  0.13760  0.88750  0.72648  1.0000 0.5954636912
C   C2        1.0  0.86240  0.61250  0.22648  1.0000 0.5954636912
C   C3        1.0  0.63760  0.11250  0.77352  1.0000 0.5954636912
C   C4        1.0  0.36240  0.38750  0.27352  1.0000 0.5954636912
C   C5        1.0  0.86240  0.11250  0.27352  1.0000 0.5954636912
C   C6        1.0  0.13760  0.38750  0.77352  1.0000 0.5954636912
C   C7        1.0  0.36240  0.88750  0.22648  1.0000 0.5954636912
C   C8        1.0  0.63760  0.61250  0.72648  1.0000 0.5954636912
C   C9        1.0  0.15660  0.91940  0.77499  1.0000 -0.0302415807
C   C10       1.0  0.84340  0.58060  0.27499  1.0000 -0.0302415807
C   C11       1.0  0.65660  0.08060  0.72501  1.0000 -0.0302415807
C   C12       1.0  0.34340  0.41940  0.22501  1.0000 -0.0302415807
C   C13       1.0  0.84340  0.08060  0.22501  1.0000 -0.0302415807
C   C14       1.0  0.15660  0.41940  0.72501  1.0000 -0.0302415807
C   C15       1.0  0.34340  0.91940  0.27499  1.0000 -0.0302415807
C   C16       1.0  0.65660  0.58060  0.77499  1.0000 -0.0302415807
C   C17       1.0  0.32660  0.95570  0.78664  1.0000 -0.0997979747
C   C18       1.0  0.67340  0.54430  0.28664  1.0000 -0.0997979747
C   C19       1.0  0.82660  0.04430  0.71336  1.0000 -0.0997979747
C   C20       1.0  0.17340  0.45570  0.21336  1.0000 -0.0997979747
C   C21       1.0  0.67340  0.04430  0.21336  1.0000 -0.0997979747
C   C22       1.0  0.32660  0.45570  0.71336  1.0000 -0.0997979747
C   C23       1.0  0.17340  0.95570  0.28664  1.0000 -0.0997979747
C   C24       1.0  0.82660  0.54430  0.78664  1.0000 -0.0997979747
C   C25       1.0  0.34900  0.98160  0.83293  1.0000 -0.1310806294
C   C26       1.0  0.65100  0.51840  0.33293  1.0000 -0.1310806294
C   C27       1.0  0.84900  0.01840  0.66707  1.0000 -0.1310806294
C   C28       1.0  0.15100  0.48160  0.16707  1.0000 -0.1310806294
C   C29       1.0  0.65100  0.01840  0.16707  1.0000 -0.1310806294
C   C30       1.0  0.34900  0.48160  0.66707  1.0000 -0.1310806294
C   C31       1.0  0.15100  0.98160  0.33293  1.0000 -0.1310806294
C   C32       1.0  0.84900  0.51840  0.83293  1.0000 -0.1310806294
C   C33       1.0  0.19750  0.97150  0.86704  1.0000 0.0806463193
C   C34       1.0  0.80250  0.52850  0.36704  1.0000 0.0806463193
C   C35       1.0  0.69750  0.02850  0.63296  1.0000 0.0806463193
C   C36       1.0  0.30250  0.47150  0.13296  1.0000 0.0806463193
C   C37       1.0  0.80250  0.02850  0.13296  1.0000 0.0806463193
C   C38       1.0  0.19750  0.47150  0.63296  1.0000 0.0806463193
C   C39       1.0  0.30250  0.97150  0.36704  1.0000 0.0806463193
C   C40       1.0  0.69750  0.52850  0.86704  1.0000 0.0806463193
C   C41       1.0  0.02820  0.93470  0.85492  1.0000 -0.1218776498
C   C42       1.0  0.97180  0.56530  0.35492  1.0000 -0.1218776498
C   C43       1.0  0.52820  0.06530  0.64508  1.0000 -0.1218776498
C   C44       1.0  0.47180  0.43470  0.14508  1.0000 -0.1218776498
C   C45       1.0  0.97180  0.06530  0.14508  1.0000 -0.1218776498
C   C46       1.0  0.02820  0.43470  0.64508  1.0000 -0.1218776498
C   C47       1.0  0.47180  0.93470  0.35492  1.0000 -0.1218776498
C   C48       1.0  0.52820  0.56530  0.85492  1.0000 -0.1218776498
C   C49       1.0  0.00530  0.90920  0.80940  1.0000 -0.0945659038
C   C50       1.0  0.99470  0.59080  0.30940  1.0000 -0.0945659038
C   C51       1.0  0.50530  0.09080  0.69060  1.0000 -0.0945659038
C   C52       1.0  0.49470  0.40920  0.19060  1.0000 -0.0945659038
C   C53       1.0  0.99470  0.09080  0.19060  1.0000 -0.0945659038
C   C54       1.0  0.00530  0.40920  0.69060  1.0000 -0.0945659038
C   C55       1.0  0.49470  0.90920  0.30940  1.0000 -0.0945659038
C   C56       1.0  0.50530  0.59080  0.80940  1.0000 -0.0945659038
C   C57       1.0  0.22490  0.99650  0.91737  1.0000 0.0525038149
C   C58       1.0  0.77510  0.50350  0.41737  1.0000 0.0525038149
C   C59       1.0  0.72490  0.00350  0.58263  1.0000 0.0525038149
C   C60       1.0  0.27510  0.49650  0.08263  1.0000 0.0525038149
C   C61       1.0  0.77510  0.00350  0.08263  1.0000 0.0525038149
C   C62       1.0  0.22490  0.49650  0.58263  1.0000 0.0525038149
C   C63       1.0  0.27510  0.99650  0.41737  1.0000 0.0525038149
C   C64       1.0  0.72490  0.50350  0.91737  1.0000 0.0525038149
C   C65       1.0  0.26750  0.06250  0.92632  1.0000 -0.0692999829
C   C66       1.0  0.73250  0.43750  0.42632  1.0000 -0.0692999829
C   C67       1.0  0.76750  0.93750  0.57368  1.0000 -0.0692999829
C   C68       1.0  0.23250  0.56250  0.07368  1.0000 -0.0692999829
C   C69       1.0  0.73250  0.93750  0.07368  1.0000 -0.0692999829
C   C70       1.0  0.26750  0.56250  0.57368  1.0000 -0.0692999829
C   C71       1.0  0.23250  0.06250  0.42632  1.0000 -0.0692999829
C   C72       1.0  0.76750  0.43750  0.92632  1.0000 -0.0692999829
C   C73       1.0  0.29630  0.08400  0.97360  1.0000 -0.0997979747
C   C74       1.0  0.70370  0.41600  0.47360  1.0000 -0.0997979747
C   C75       1.0  0.79630  0.91600  0.52640  1.0000 -0.0997979747
C   C76       1.0  0.20370  0.58400  0.02640  1.0000 -0.0997979747
C   C77       1.0  0.70370  0.91600  0.02640  1.0000 -0.0997979747
C   C78       1.0  0.29630  0.58400  0.52640  1.0000 -0.0997979747
C   C79       1.0  0.20370  0.08400  0.47360  1.0000 -0.0997979747
C   C80       1.0  0.79630  0.41600  0.97360  1.0000 -0.0997979747
C   C81       1.0  0.27950  0.03870  0.01072  1.0000 -0.0997979747
C   C82       1.0  0.72050  0.46130  0.51072  1.0000 -0.0997979747
C   C83       1.0  0.77950  0.96130  0.48928  1.0000 -0.0997979747
C   C84       1.0  0.22050  0.53870  0.98928  1.0000 -0.0997979747
C   C85       1.0  0.72050  0.96130  0.98928  1.0000 -0.0997979747
C   C86       1.0  0.27950  0.53870  0.48928  1.0000 -0.0997979747
C   C87       1.0  0.22050  0.03870  0.51072  1.0000 -0.0997979747
C   C88       1.0  0.77950  0.46130  0.01072  1.0000 -0.0997979747
C   C89       1.0  0.23530  0.97340  0.00213  1.0000 -0.0194232727
C   C90       1.0  0.76470  0.52660  0.50213  1.0000 -0.0194232727
C   C91       1.0  0.73530  0.02660  0.49787  1.0000 -0.0194232727
C   C92       1.0  0.26470  0.47340  0.99787  1.0000 -0.0194232727
C   C93       1.0  0.76470  0.02660  0.99787  1.0000 -0.0194232727
C   C94       1.0  0.23530  0.47340  0.49787  1.0000 -0.0194232727
C   C95       1.0  0.26470  0.97340  0.50213  1.0000 -0.0194232727
C   C96       1.0  0.73530  0.52660  0.00213  1.0000 -0.0194232727
C   C97       1.0  0.20890  0.95240  0.95553  1.0000 -0.1427731552
C   C98       1.0  0.79110  0.54760  0.45553  1.0000 -0.1427731552
C   C99       1.0  0.70890  0.04760  0.54447  1.0000 -0.1427731552
C   C100      1.0  0.29110  0.45240  0.04447  1.0000 -0.1427731552
C   C101      1.0  0.79110  0.04760  0.04447  1.0000 -0.1427731552
C   C102      1.0  0.20890  0.45240  0.54447  1.0000 -0.1427731552
C   C103      1.0  0.29110  0.95240  0.45553  1.0000 -0.1427731552
C   C104      1.0  0.70890  0.54760  0.95553  1.0000 -0.1427731552
C   C105      1.0  0.27750  0.11400  0.88752  1.0000 0.6115064602
C   C106      1.0  0.72250  0.38600  0.38752  1.0000 0.6115064602
C   C107      1.0  0.77750  0.88600  0.61248  1.0000 0.6115064602
C   C108      1.0  0.22250  0.61400  0.11248  1.0000 0.6115064602
C   C109      1.0  0.72250  0.88600  0.11248  1.0000 0.6115064602
C   C110      1.0  0.27750  0.61400  0.61248  1.0000 0.6115064602
C   C111      1.0  0.22250  0.11400  0.38752  1.0000 0.6115064602
C   C112      1.0  0.77750  0.38600  0.88752  1.0000 0.6115064602
C   C113      1.0  0.21680  0.92510  0.04246  1.0000 0.5466082673
C   C114      1.0  0.78320  0.57490  0.54246  1.0000 0.5466082673
C   C115      1.0  0.71680  0.07490  0.45754  1.0000 0.5466082673
C   C116      1.0  0.28320  0.42510  0.95754  1.0000 0.5466082673
C   C117      1.0  0.78320  0.07490  0.95754  1.0000 0.5466082673
C   C118      1.0  0.21680  0.42510  0.45754  1.0000 0.5466082673
C   C119      1.0  0.28320  0.92510  0.54246  1.0000 0.5466082673
C   C120      1.0  0.71680  0.57490  0.04246  1.0000 0.5466082673
O   O1        1.0  0.00830  0.84182  0.72201  1.0000 -0.5557185952
O   O2        1.0  0.99170  0.65818  0.22201  1.0000 -0.5557185952
O   O3        1.0  0.50830  0.15818  0.77799  1.0000 -0.5557185952
O   O4        1.0  0.49170  0.34182  0.27799  1.0000 -0.5557185952
O   O5        1.0  0.99170  0.15818  0.27799  1.0000 -0.5557185952
O   O6        1.0  0.00830  0.34182  0.77799  1.0000 -0.5557185952
O   O7        1.0  0.49170  0.84182  0.22201  1.0000 -0.5557185952
O   O8        1.0  0.50830  0.65818  0.72201  1.0000 -0.5557185952
O   O9        1.0  0.25550  0.90807  0.69413  1.0000 -0.5502122064
O   O10       1.0  0.74450  0.59193  0.19413  1.0000 -0.5502122064
O   O11       1.0  0.75550  0.09193  0.80587  1.0000 -0.5502122064
O   O12       1.0  0.24450  0.40807  0.30587  1.0000 -0.5502122064
O   O13       1.0  0.74450  0.09193  0.30587  1.0000 -0.5502122064
O   O14       1.0  0.25550  0.40807  0.80587  1.0000 -0.5502122064
O   O15       1.0  0.24450  0.90807  0.19413  1.0000 -0.5502122064
O   O16       1.0  0.75550  0.59193  0.69413  1.0000 -0.5502122064
O   O17       1.0  0.11990  0.12538  0.86223  1.0000 -0.5557185952
O   O18       1.0  0.88010  0.37462  0.36223  1.0000 -0.5557185952
O   O19       1.0  0.61990  0.87462  0.63777  1.0000 -0.5557185952
O   O20       1.0  0.38010  0.62538  0.13777  1.0000 -0.5557185952
O   O21       1.0  0.88010  0.87462  0.13777  1.0000 -0.5557185952
O   O22       1.0  0.11990  0.62538  0.63777  1.0000 -0.5557185952
O   O23       1.0  0.38010  0.12538  0.36223  1.0000 -0.5557185952
O   O24       1.0  0.61990  0.37462  0.86223  1.0000 -0.5557185952
O   O25       1.0  0.43920  0.14550  0.88209  1.0000 -0.5721513648
O   O26       1.0  0.56080  0.35450  0.38209  1.0000 -0.5721513648
O   O27       1.0  0.93920  0.85450  0.61791  1.0000 -0.5721513648
O   O28       1.0  0.06080  0.64550  0.11791  1.0000 -0.5721513648
O   O29       1.0  0.56080  0.85450  0.11791  1.0000 -0.5721513648
O   O30       1.0  0.43920  0.64550  0.61791  1.0000 -0.5721513648
O   O31       1.0  0.06080  0.14550  0.38209  1.0000 -0.5721513648
O   O32       1.0  0.93920  0.35450  0.88209  1.0000 -0.5721513648
O   O33       1.0  0.23180  0.94910  0.08452  1.0000 -0.5502122064
O   O34       1.0  0.76820  0.55090  0.58452  1.0000 -0.5502122064
O   O35       1.0  0.73180  0.05090  0.41548  1.0000 -0.5502122064
O   O36       1.0  0.26820  0.44910  0.91548  1.0000 -0.5502122064
O   O37       1.0  0.76820  0.05090  0.91548  1.0000 -0.5502122064
O   O38       1.0  0.23180  0.44910  0.41548  1.0000 -0.5502122064
O   O39       1.0  0.26820  0.94910  0.58452  1.0000 -0.5502122064
O   O40       1.0  0.73180  0.55090  0.08452  1.0000 -0.5502122064
O   O41       1.0  0.18790  0.86530  0.03492  1.0000 -0.5442857165
O   O42       1.0  0.81210  0.63470  0.53492  1.0000 -0.5442857165
O   O43       1.0  0.68790  0.13470  0.46508  1.0000 -0.5442857165
O   O44       1.0  0.31210  0.36530  0.96508  1.0000 -0.5442857165
O   O45       1.0  0.81210  0.13470  0.96508  1.0000 -0.5442857165
O   O46       1.0  0.18790  0.36530  0.46508  1.0000 -0.5442857165
O   O47       1.0  0.31210  0.86530  0.53492  1.0000 -0.5442857165
O   O48       1.0  0.68790  0.63470  0.03492  1.0000 -0.5442857165
O   O49       1.0  0.27380  0.77828  0.63696  1.0000 -0.8647484947
O   O50       1.0  0.72620  0.72172  0.13696  1.0000 -0.8647484947
O   O51       1.0  0.77380  0.22172  0.86304  1.0000 -0.8647484947
O   O52       1.0  0.22620  0.27828  0.36304  1.0000 -0.8647484947
O   O53       1.0  0.72620  0.22172  0.36304  1.0000 -0.8647484947
O   O54       1.0  0.27380  0.27828  0.86304  1.0000 -0.8647484947
O   O55       1.0  0.22620  0.77828  0.13696  1.0000 -0.8647484947
O   O56       1.0  0.77380  0.72172  0.63696  1.0000 -0.8647484947
