# DDEC6 charges by PACMAN v1.1 (https://github.com/mtap-research/PACMAN-charge/)
data_2014[DyZn][nan]3[ASR]1
_chemical_formula_sum              "Dy2 Zn2 H20 C40 N6 O20"
_cell_length_a       10.66
_cell_length_b       11.377
_cell_length_c       12.509
_cell_angle_alpha    86.24
_cell_angle_beta     81.85
_cell_angle_gamma    89.07

_symmetry_space_group_name_H-M    "P 1"
_symmetry_Int_Tables_number       1

loop_
  _symmetry_equiv_pos_as_xyz
  'x, y, z'

loop_
  _atom_site_type_symbol
  _atom_site_label
  _atom_site_symmetry_multiplicity
  _atom_site_fract_x
  _atom_site_fract_y
  _atom_site_fract_z
  _atom_site_occupancy
  _atom_site_charge
Dy  Dy1       1.0  0.57331  0.51408  0.23813  1.0000 2.0002458602
Dy  Dy2       1.0  0.42669  0.48592  0.76187  1.0000 2.0002458602
Zn  Zn1       1.0  0.36811  0.16410  0.20067  1.0000 0.7507297307
Zn  Zn2       1.0  0.63189  0.83590  0.79933  1.0000 0.7507297307
H   H1        1.0  0.27560  0.94240  0.58240  1.0000 0.1307957927
H   H2        1.0  0.72440  0.05760  0.41760  1.0000 0.1307957927
H   H3        1.0  0.31730  0.10210  0.67710  1.0000 0.1213601049
H   H4        1.0  0.68270  0.89790  0.32290  1.0000 0.1213601049
H   H5        1.0  0.23700  0.38340  0.10380  1.0000 0.1307957927
H   H6        1.0  0.76300  0.61660  0.89620  1.0000 0.1307957927
H   H7        1.0  0.29430  0.96120  0.39590  1.0000 0.1213601049
H   H8        1.0  0.70570  0.03880  0.60410  1.0000 0.1213601049
H   H9        1.0  0.09460  0.12390  0.30350  1.0000 0.1120217427
H   H10       1.0  0.90540  0.87610  0.69650  1.0000 0.1120217427
H   H11       1.0  0.89640  0.20770  0.31560  1.0000 0.1356038212
H   H12       1.0  0.10360  0.79230  0.68440  1.0000 0.1356038212
H   H13       1.0  0.04230  0.47250  0.11100  1.0000 0.1496534556
H   H14       1.0  0.95770  0.52750  0.88900  1.0000 0.1496534556
H   H15       1.0  0.67300  0.18060  0.17980  1.0000 0.1213601049
H   H16       1.0  0.32700  0.81940  0.82020  1.0000 0.1213601049
H   H17       1.0  0.81200  0.88330  0.05170  1.0000 0.1307957927
H   H18       1.0  0.18800  0.11670  0.94830  1.0000 0.1307957927
H   H19       1.0  0.84560  0.06980  0.10850  1.0000 0.1213601049
H   H20       1.0  0.15440  0.93020  0.89150  1.0000 0.1213601049
C   C1        1.0  0.39650  0.31690  0.61060  1.0000 0.5986238033
C   C2        1.0  0.60350  0.68310  0.38940  1.0000 0.5986238033
C   C3        1.0  0.62080  0.88550  0.08900  1.0000 -0.0679596578
C   C4        1.0  0.37920  0.11450  0.91100  1.0000 -0.0679596578
C   C5        1.0  0.30110  0.01350  0.54550  1.0000 -0.1385058962
C   C6        1.0  0.69890  0.98650  0.45450  1.0000 -0.1385058962
C   C7        1.0  0.32720  0.10840  0.60190  1.0000 -0.0679596578
C   C8        1.0  0.67280  0.89160  0.39810  1.0000 -0.0679596578
C   C9        1.0  0.38180  0.21790  0.43230  1.0000 0.0867933392
C   C10       1.0  0.61820  0.78210  0.56770  1.0000 0.0867933392
C   C11       1.0  0.36870  0.21450  0.54520  1.0000 -0.0174586066
C   C12       1.0  0.63130  0.78550  0.45480  1.0000 -0.0174586066
C   C13       1.0  0.16800  0.34790  0.14710  1.0000 0.0802193455
C   C14       1.0  0.83200  0.65210  0.85290  1.0000 0.0802193455
C   C15       1.0  0.31340  0.02510  0.43330  1.0000 0.0802193455
C   C16       1.0  0.68660  0.97490  0.56670  1.0000 0.0802193455
C   C17       1.0  0.08410  0.19510  0.26480  1.0000 0.0687233977
C   C18       1.0  0.91590  0.80490  0.73520  1.0000 0.0687233977
C   C19       1.0  0.96430  0.24480  0.27220  1.0000 -0.1626187429
C   C20       1.0  0.03570  0.75520  0.72780  1.0000 -0.1626187429
C   C21       1.0  0.05110  0.40170  0.15100  1.0000 -0.1385058962
C   C22       1.0  0.94890  0.59830  0.84900  1.0000 -0.1385058962
C   C23       1.0  0.65980  0.10660  0.15610  1.0000 0.0802193455
C   C24       1.0  0.34020  0.89340  0.84390  1.0000 0.0802193455
C   C25       1.0  0.81670  0.40770  0.21980  1.0000 0.5596079439
C   C26       1.0  0.18330  0.59230  0.78020  1.0000 0.5596079439
C   C27       1.0  0.38140  0.92010  0.14440  1.0000 0.5323405772
C   C28       1.0  0.61860  0.07990  0.85560  1.0000 0.5323405772
C   C29       1.0  0.60000  0.76200  0.05530  1.0000 0.6491327792
C   C30       1.0  0.40000  0.23800  0.94470  1.0000 0.6491327792
C   C31       1.0  0.43420  0.32420  0.36190  1.0000 0.5472262114
C   C32       1.0  0.56580  0.67580  0.63810  1.0000 0.5472262114
C   C33       1.0  0.51980  0.95760  0.13150  1.0000 0.0687233977
C   C34       1.0  0.48020  0.04240  0.86850  1.0000 0.0687233977
C   C35       1.0  0.74360  0.92880  0.08020  1.0000 -0.0679596578
C   C36       1.0  0.25640  0.07120  0.91980  1.0000 -0.0679596578
C   C37       1.0  0.94610  0.35050  0.21440  1.0000 0.0367761463
C   C38       1.0  0.05390  0.64950  0.78560  1.0000 0.0367761463
C   C39       1.0  0.76390  0.04020  0.11400  1.0000 -0.1298665792
C   C40       1.0  0.23610  0.95980  0.88600  1.0000 -0.1298665792
N   N1        1.0  0.35220  0.12650  0.37700  1.0000 -0.2573851437
N   N2        1.0  0.64780  0.87350  0.62300  1.0000 -0.2573851437
N   N3        1.0  0.18660  0.24500  0.20420  1.0000 -0.2069177121
N   N4        1.0  0.81340  0.75500  0.79580  1.0000 -0.2069177121
N   N5        1.0  0.53990  0.06640  0.16360  1.0000 -0.2387183025
N   N6        1.0  0.46010  0.93360  0.83640  1.0000 -0.2387183025
O   O1        1.0  0.50300  0.32280  0.64170  1.0000 -0.5978906542
O   O2        1.0  0.49700  0.67720  0.35830  1.0000 -0.5978906542
O   O3        1.0  0.30740  0.38860  0.63910  1.0000 -0.5978906542
O   O4        1.0  0.69260  0.61140  0.36090  1.0000 -0.5978906542
O   O5        1.0  0.72270  0.35880  0.28120  1.0000 -0.6552980036
O   O6        1.0  0.27730  0.64120  0.71880  1.0000 -0.6542989701
O   O7        1.0  0.60790  0.68010  0.12600  1.0000 -0.6715242058
O   O8        1.0  0.39210  0.31990  0.87400  1.0000 -0.6715242058
O   O9        1.0  0.29880  0.99840  0.17480  1.0000 -0.5654100865
O   O10       1.0  0.70120  0.00160  0.82520  1.0000 -0.5654100865
O   O11       1.0  0.58260  0.74850  0.95890  1.0000 -0.5413281411
O   O12       1.0  0.41740  0.25150  0.04110  1.0000 -0.5413281411
O   O13       1.0  0.80190  0.50260  0.16410  1.0000 -0.619500646
O   O14       1.0  0.19810  0.49740  0.83590  1.0000 -0.619500646
O   O15       1.0  0.44720  0.31790  0.25910  1.0000 -0.6264398784
O   O16       1.0  0.55280  0.68210  0.74090  1.0000 -0.6264398784
O   O17       1.0  0.46820  0.41280  0.40480  1.0000 -0.5471803636
O   O18       1.0  0.53180  0.58720  0.59520  1.0000 -0.5471803636
O   O19       1.0  0.35770  0.81730  0.12510  1.0000 -0.4988690704
O   O20       1.0  0.64230  0.18270  0.87490  1.0000 -0.4988690704
