# DDEC6 charges by PACMAN v1.1 (https://github.com/mtap-research/PACMAN-charge/)
data_2014[Zn][etf]3[ASR]1
_chemical_formula_sum              "Zn12 H144 C264 I12 N108"
_cell_length_a       27.0978
_cell_length_b       27.0978
_cell_length_c       27.0978
_cell_angle_alpha    108.581
_cell_angle_beta     108.581
_cell_angle_gamma    108.581

_symmetry_space_group_name_H-M    "P 1"
_symmetry_Int_Tables_number       1

loop_
  _symmetry_equiv_pos_as_xyz
  'x, y, z'

loop_
  _atom_site_type_symbol
  _atom_site_label
  _atom_site_symmetry_multiplicity
  _atom_site_fract_x
  _atom_site_fract_y
  _atom_site_fract_z
  _atom_site_occupancy
  _atom_site_charge
Zn  Zn1       1.0  0.54037  0.33867  0.20027  1.0000 0.5067502343
Zn  Zn2       1.0  0.33867  0.20027  0.54037  1.0000 0.5067502343
Zn  Zn3       1.0  0.20027  0.54037  0.33867  1.0000 0.5067502343
Zn  Zn4       1.0  0.04037  0.70027  0.83867  1.0000 0.5067502343
Zn  Zn5       1.0  0.70027  0.83867  0.04037  1.0000 0.5067502343
Zn  Zn6       1.0  0.83867  0.04037  0.70027  1.0000 0.5067502343
Zn  Zn7       1.0  0.95963  0.29973  0.16133  1.0000 0.5067502343
Zn  Zn8       1.0  0.29973  0.16133  0.95963  1.0000 0.5067502343
Zn  Zn9       1.0  0.16133  0.95963  0.29973  1.0000 0.5067502343
Zn  Zn10      1.0  0.45963  0.66133  0.79973  1.0000 0.5067502343
Zn  Zn11      1.0  0.66133  0.79973  0.45963  1.0000 0.5067502343
Zn  Zn12      1.0  0.79973  0.45963  0.66133  1.0000 0.5067502343
H   H1        1.0  0.55750  0.44380  0.18270  1.0000 0.1082481912
H   H2        1.0  0.44380  0.18270  0.55750  1.0000 0.1082481912
H   H3        1.0  0.18270  0.55750  0.44380  1.0000 0.1082481912
H   H4        1.0  0.05750  0.68270  0.94380  1.0000 0.1082481912
H   H5        1.0  0.68270  0.94380  0.05750  1.0000 0.1155433936
H   H6        1.0  0.94380  0.05750  0.68270  1.0000 0.1082481912
H   H7        1.0  0.55690  0.47560  0.11370  1.0000 0.1390975607
H   H8        1.0  0.47560  0.11370  0.55690  1.0000 0.1390975607
H   H9        1.0  0.11370  0.55690  0.47560  1.0000 0.1390975607
H   H10       1.0  0.05690  0.61370  0.97560  1.0000 0.1390975607
H   H11       1.0  0.61370  0.97560  0.05690  1.0000 0.1390975607
H   H12       1.0  0.97560  0.05690  0.61370  1.0000 0.1390975607
H   H13       1.0  0.51940  0.31280  0.00140  1.0000 0.1318998767
H   H14       1.0  0.31280  0.00140  0.51940  1.0000 0.1318998767
H   H15       1.0  0.00140  0.51940  0.31280  1.0000 0.1318998767
H   H16       1.0  0.01940  0.50140  0.81280  1.0000 0.1318998767
H   H17       1.0  0.50140  0.81280  0.01940  1.0000 0.1318998767
H   H18       1.0  0.81280  0.01940  0.50140  1.0000 0.1318998767
H   H19       1.0  0.52680  0.28690  0.07690  1.0000 0.0944586479
H   H20       1.0  0.28690  0.07690  0.52680  1.0000 0.0944586479
H   H21       1.0  0.07690  0.52680  0.28690  1.0000 0.0944586479
H   H22       1.0  0.02680  0.57690  0.78690  1.0000 0.0944586479
H   H23       1.0  0.57690  0.78690  0.02680  1.0000 0.0944586479
H   H24       1.0  0.78690  0.02680  0.57690  1.0000 0.0944586479
H   H25       1.0  0.63080  0.72640  0.92820  1.0000 0.1082481912
H   H26       1.0  0.72640  0.92820  0.63080  1.0000 0.1082481912
H   H27       1.0  0.92820  0.63080  0.72640  1.0000 0.1082481912
H   H28       1.0  0.13080  0.42820  0.22640  1.0000 0.1082481912
H   H29       1.0  0.42820  0.22640  0.13080  1.0000 0.1082481912
H   H30       1.0  0.22640  0.13080  0.42820  1.0000 0.1082481912
H   H31       1.0  0.58460  0.62630  0.89510  1.0000 0.1390975607
H   H32       1.0  0.62630  0.89510  0.58460  1.0000 0.1390975607
H   H33       1.0  0.89510  0.58460  0.62630  1.0000 0.1390975607
H   H34       1.0  0.08460  0.39510  0.12630  1.0000 0.1390975607
H   H35       1.0  0.39510  0.12630  0.08460  1.0000 0.1390975607
H   H36       1.0  0.12630  0.08460  0.39510  1.0000 0.1390975607
H   H37       1.0  0.63770  0.65880  0.06510  1.0000 0.1464053823
H   H38       1.0  0.65880  0.06510  0.63770  1.0000 0.1464053823
H   H39       1.0  0.06510  0.63770  0.65880  1.0000 0.1464053823
H   H40       1.0  0.13770  0.56510  0.15880  1.0000 0.1464053823
H   H41       1.0  0.56510  0.15880  0.13770  1.0000 0.1464053823
H   H42       1.0  0.15880  0.13770  0.56510  1.0000 0.1464053823
H   H43       1.0  0.68200  0.75750  0.09340  1.0000 0.1033028993
H   H44       1.0  0.75750  0.09340  0.68200  1.0000 0.1033028993
H   H45       1.0  0.09340  0.68200  0.75750  1.0000 0.1033028993
H   H46       1.0  0.18200  0.59340  0.25750  1.0000 0.1033028993
H   H47       1.0  0.59340  0.25750  0.18200  1.0000 0.1033028993
H   H48       1.0  0.25750  0.18200  0.59340  1.0000 0.1033028993
H   H49       1.0  0.37470  0.19760  0.65500  1.0000 0.1033028993
H   H50       1.0  0.19760  0.65500  0.37470  1.0000 0.1033028993
H   H51       1.0  0.65500  0.37470  0.19760  1.0000 0.1033028993
H   H52       1.0  0.87470  0.15500  0.69760  1.0000 0.1033028993
H   H53       1.0  0.15500  0.69760  0.87470  1.0000 0.1033028993
H   H54       1.0  0.69760  0.87470  0.15500  1.0000 0.1033028993
H   H55       1.0  0.42260  0.26030  0.75410  1.0000 0.1390975607
H   H56       1.0  0.26030  0.75410  0.42260  1.0000 0.1390975607
H   H57       1.0  0.75410  0.42260  0.26030  1.0000 0.1390975607
H   H58       1.0  0.92260  0.25410  0.76030  1.0000 0.1390975607
H   H59       1.0  0.25410  0.76030  0.92260  1.0000 0.1390975607
H   H60       1.0  0.76030  0.92260  0.25410  1.0000 0.1390975607
H   H61       1.0  0.44090  0.39480  0.71860  1.0000 0.1390975607
H   H62       1.0  0.39480  0.71860  0.44090  1.0000 0.1390975607
H   H63       1.0  0.71860  0.44090  0.39480  1.0000 0.1390975607
H   H64       1.0  0.94090  0.21860  0.89480  1.0000 0.1390975607
H   H65       1.0  0.21860  0.89480  0.94090  1.0000 0.1390975607
H   H66       1.0  0.89480  0.94090  0.21860  1.0000 0.1390975607
H   H67       1.0  0.39130  0.32690  0.61800  1.0000 0.1082481912
H   H68       1.0  0.32690  0.61800  0.39130  1.0000 0.1082481912
H   H69       1.0  0.61800  0.39130  0.32690  1.0000 0.1082481912
H   H70       1.0  0.89130  0.11800  0.82690  1.0000 0.1082481912
H   H71       1.0  0.11800  0.82690  0.89130  1.0000 0.1082481912
H   H72       1.0  0.82690  0.89130  0.11800  1.0000 0.1082481912
H   H73       1.0  0.94250  0.31730  0.05620  1.0000 0.1082481912
H   H74       1.0  0.31730  0.05620  0.94250  1.0000 0.1082481912
H   H75       1.0  0.05620  0.94250  0.31730  1.0000 0.1082481912
H   H76       1.0  0.44250  0.55620  0.81730  1.0000 0.1082481912
H   H77       1.0  0.55620  0.81730  0.44250  1.0000 0.1082481912
H   H78       1.0  0.81730  0.44250  0.55620  1.0000 0.1082481912
H   H79       1.0  0.94310  0.38630  0.02440  1.0000 0.1390975607
H   H80       1.0  0.38630  0.02440  0.94310  1.0000 0.1390975607
H   H81       1.0  0.02440  0.94310  0.38630  1.0000 0.1390975607
H   H82       1.0  0.44310  0.52440  0.88630  1.0000 0.1390975607
H   H83       1.0  0.52440  0.88630  0.44310  1.0000 0.1390975607
H   H84       1.0  0.88630  0.44310  0.52440  1.0000 0.1390975607
H   H85       1.0  0.98060  0.49860  0.18720  1.0000 0.1318998767
H   H86       1.0  0.49860  0.18720  0.98060  1.0000 0.1318998767
H   H87       1.0  0.18720  0.98060  0.49860  1.0000 0.1318998767
H   H88       1.0  0.48060  0.68720  0.99860  1.0000 0.1318998767
H   H89       1.0  0.68720  0.99860  0.48060  1.0000 0.1318998767
H   H90       1.0  0.99860  0.48060  0.68720  1.0000 0.1318998767
H   H91       1.0  0.97320  0.42310  0.21310  1.0000 0.0944586479
H   H92       1.0  0.42310  0.21310  0.97320  1.0000 0.0944586479
H   H93       1.0  0.21310  0.97320  0.42310  1.0000 0.0944586479
H   H94       1.0  0.47320  0.71310  0.92310  1.0000 0.0944586479
H   H95       1.0  0.71310  0.92310  0.47320  1.0000 0.0944586479
H   H96       1.0  0.92310  0.47320  0.71310  1.0000 0.0944586479
H   H97       1.0  0.86920  0.57180  0.77360  1.0000 0.1082481912
H   H98       1.0  0.57180  0.77360  0.86920  1.0000 0.1082481912
H   H99       1.0  0.77360  0.86920  0.57180  1.0000 0.1082481912
H   H100      1.0  0.36920  0.27360  0.07180  1.0000 0.1082481912
H   H101      1.0  0.27360  0.07180  0.36920  1.0000 0.1082481912
H   H102      1.0  0.07180  0.36920  0.27360  1.0000 0.1082481912
H   H103      1.0  0.91540  0.60490  0.87370  1.0000 0.1390975607
H   H104      1.0  0.60490  0.87370  0.91540  1.0000 0.1390975607
H   H105      1.0  0.87370  0.91540  0.60490  1.0000 0.1390975607
H   H106      1.0  0.41540  0.37370  0.10490  1.0000 0.1390975607
H   H107      1.0  0.37370  0.10490  0.41540  1.0000 0.1390975607
H   H108      1.0  0.10490  0.41540  0.37370  1.0000 0.1390975607
H   H109      1.0  0.86230  0.43490  0.84120  1.0000 0.1464053823
H   H110      1.0  0.43490  0.84120  0.86230  1.0000 0.1464053823
H   H111      1.0  0.84120  0.86230  0.43490  1.0000 0.1464053823
H   H112      1.0  0.36230  0.34120  0.93490  1.0000 0.1464053823
H   H113      1.0  0.34120  0.93490  0.36230  1.0000 0.1464053823
H   H114      1.0  0.93490  0.36230  0.34120  1.0000 0.1464053823
H   H115      1.0  0.81800  0.40660  0.74250  1.0000 0.1033028993
H   H116      1.0  0.40660  0.74250  0.81800  1.0000 0.1033028993
H   H117      1.0  0.74250  0.81800  0.40660  1.0000 0.1033028993
H   H118      1.0  0.31800  0.24250  0.90660  1.0000 0.1033028993
H   H119      1.0  0.24250  0.90660  0.31800  1.0000 0.1033028993
H   H120      1.0  0.90660  0.31800  0.24250  1.0000 0.1033028993
H   H121      1.0  0.12530  0.84500  0.30240  1.0000 0.1033028993
H   H122      1.0  0.84500  0.30240  0.12530  1.0000 0.1033028993
H   H123      1.0  0.30240  0.12530  0.84500  1.0000 0.1033028993
H   H124      1.0  0.62530  0.80240  0.34500  1.0000 0.1033028993
H   H125      1.0  0.80240  0.34500  0.62530  1.0000 0.1033028993
H   H126      1.0  0.34500  0.62530  0.80240  1.0000 0.1033028993
H   H127      1.0  0.07740  0.74590  0.23970  1.0000 0.1390975607
H   H128      1.0  0.74590  0.23970  0.07740  1.0000 0.1390975607
H   H129      1.0  0.23970  0.07740  0.74590  1.0000 0.1390975607
H   H130      1.0  0.57740  0.73970  0.24590  1.0000 0.1390975607
H   H131      1.0  0.73970  0.24590  0.57740  1.0000 0.1390975607
H   H132      1.0  0.24590  0.57740  0.73970  1.0000 0.1390975607
H   H133      1.0  0.05910  0.78140  0.10520  1.0000 0.1390975607
H   H134      1.0  0.78140  0.10520  0.05910  1.0000 0.1390975607
H   H135      1.0  0.10520  0.05910  0.78140  1.0000 0.1390975607
H   H136      1.0  0.55910  0.60520  0.28140  1.0000 0.1390975607
H   H137      1.0  0.60520  0.28140  0.55910  1.0000 0.1390975607
H   H138      1.0  0.28140  0.55910  0.60520  1.0000 0.1390975607
H   H139      1.0  0.10870  0.88200  0.17310  1.0000 0.1082481912
H   H140      1.0  0.88200  0.17310  0.10870  1.0000 0.1082481912
H   H141      1.0  0.17310  0.10870  0.88200  1.0000 0.1082481912
H   H142      1.0  0.60870  0.67310  0.38200  1.0000 0.1082481912
H   H143      1.0  0.67310  0.38200  0.60870  1.0000 0.1082481912
H   H144      1.0  0.38200  0.60870  0.67310  1.0000 0.1082481912
C   C1        1.0  0.54976  0.41700  0.14515  1.0000 0.048066762
C   C2        1.0  0.41700  0.14515  0.54976  1.0000 0.048066762
C   C3        1.0  0.14515  0.54976  0.41700  1.0000 0.048066762
C   C4        1.0  0.04976  0.64515  0.91700  1.0000 0.048066762
C   C5        1.0  0.64515  0.91700  0.04976  1.0000 0.048066762
C   C6        1.0  0.91700  0.04976  0.64515  1.0000 0.048066762
C   C7        1.0  0.54893  0.43609  0.10463  1.0000 -0.1446447575
C   C8        1.0  0.43609  0.10463  0.54893  1.0000 -0.1446447575
C   C9        1.0  0.10463  0.54893  0.43609  1.0000 -0.1446447575
C   C10       1.0  0.04893  0.60463  0.93609  1.0000 -0.1446447575
C   C11       1.0  0.60463  0.93609  0.04893  1.0000 -0.1446447575
C   C12       1.0  0.93609  0.04893  0.60463  1.0000 -0.1446447575
C   C13       1.0  0.53601  0.39616  0.04915  1.0000 0.0701902411
C   C14       1.0  0.39616  0.04915  0.53601  1.0000 0.0701902411
C   C15       1.0  0.04915  0.53601  0.39616  1.0000 0.0701902411
C   C16       1.0  0.03601  0.54915  0.89616  1.0000 0.0701902411
C   C17       1.0  0.54915  0.89616  0.03601  1.0000 0.0701902411
C   C18       1.0  0.89616  0.03601  0.54915  1.0000 0.0701902411
C   C19       1.0  0.52756  0.34044  0.03868  1.0000 -0.1704618277
C   C20       1.0  0.34044  0.03868  0.52756  1.0000 -0.1704618277
C   C21       1.0  0.03868  0.52756  0.34044  1.0000 -0.1704618277
C   C22       1.0  0.02756  0.53868  0.84044  1.0000 -0.1704618277
C   C23       1.0  0.53868  0.84044  0.02756  1.0000 -0.1704618277
C   C24       1.0  0.84044  0.02756  0.53868  1.0000 -0.1704618277
C   C25       1.0  0.53104  0.32500  0.08370  1.0000 0.0630507806
C   C26       1.0  0.32500  0.08370  0.53104  1.0000 0.0630507806
C   C27       1.0  0.08370  0.53104  0.32500  1.0000 0.0630507806
C   C28       1.0  0.03104  0.58370  0.82500  1.0000 0.0630507806
C   C29       1.0  0.58370  0.82500  0.03104  1.0000 0.0630507806
C   C30       1.0  0.82500  0.03104  0.58370  1.0000 0.0630507806
C   C31       1.0  0.63275  0.71219  0.95627  1.0000 0.048066762
C   C32       1.0  0.71219  0.95627  0.63275  1.0000 0.048066762
C   C33       1.0  0.95627  0.63275  0.71219  1.0000 0.048066762
C   C34       1.0  0.13275  0.45627  0.21219  1.0000 0.048066762
C   C35       1.0  0.45627  0.21219  0.13275  1.0000 0.048066762
C   C36       1.0  0.21219  0.13275  0.45627  1.0000 0.048066762
C   C37       1.0  0.60554  0.65268  0.93616  1.0000 -0.1467277536
C   C38       1.0  0.65268  0.93616  0.60554  1.0000 -0.1467277536
C   C39       1.0  0.93616  0.60554  0.65268  1.0000 -0.1467277536
C   C40       1.0  0.10554  0.43616  0.15268  1.0000 -0.1467277536
C   C41       1.0  0.43616  0.15268  0.10554  1.0000 -0.1467277536
C   C42       1.0  0.15268  0.10554  0.43616  1.0000 -0.1467277536
C   C43       1.0  0.60887  0.63129  0.97672  1.0000 0.0701902411
C   C44       1.0  0.63129  0.97672  0.60887  1.0000 0.0701902411
C   C45       1.0  0.97672  0.60887  0.63129  1.0000 0.0701902411
C   C46       1.0  0.10887  0.47672  0.13129  1.0000 0.0701902411
C   C47       1.0  0.47672  0.13129  0.10887  1.0000 0.0701902411
C   C48       1.0  0.13129  0.10887  0.47672  1.0000 0.0701902411
C   C49       1.0  0.63678  0.67190  0.03636  1.0000 -0.1585766545
C   C50       1.0  0.67190  0.03636  0.63678  1.0000 -0.1585766545
C   C51       1.0  0.03636  0.63678  0.67190  1.0000 -0.1585766545
C   C52       1.0  0.13678  0.53636  0.17190  1.0000 -0.1585766545
C   C53       1.0  0.53636  0.17190  0.13678  1.0000 -0.1585766545
C   C54       1.0  0.17190  0.13678  0.53636  1.0000 -0.1585766545
C   C55       1.0  0.66270  0.73032  0.05273  1.0000 0.048066762
C   C56       1.0  0.73032  0.05273  0.66270  1.0000 0.048066762
C   C57       1.0  0.05273  0.66270  0.73032  1.0000 0.048066762
C   C58       1.0  0.16270  0.55273  0.23032  1.0000 0.048066762
C   C59       1.0  0.55273  0.23032  0.16270  1.0000 0.048066762
C   C60       1.0  0.23032  0.16270  0.55273  1.0000 0.048066762
C   C61       1.0  0.38890  0.23860  0.66760  1.0000 0.0422452541
C   C62       1.0  0.23860  0.66760  0.38890  1.0000 0.0422452541
C   C63       1.0  0.66760  0.38890  0.23860  1.0000 0.0422452541
C   C64       1.0  0.88890  0.16760  0.73860  1.0000 0.0422452541
C   C65       1.0  0.16760  0.73860  0.88890  1.0000 0.0422452541
C   C66       1.0  0.73860  0.88890  0.16760  1.0000 0.0422452541
C   C67       1.0  0.41779  0.27603  0.72716  1.0000 -0.1585766545
C   C68       1.0  0.27603  0.72716  0.41779  1.0000 -0.1585766545
C   C69       1.0  0.72716  0.41779  0.27603  1.0000 -0.1585766545
C   C70       1.0  0.91779  0.22716  0.77603  1.0000 -0.1585766545
C   C71       1.0  0.22716  0.77603  0.91779  1.0000 -0.1585766545
C   C72       1.0  0.77603  0.91779  0.22716  1.0000 -0.1585766545
C   C73       1.0  0.43911  0.33393  0.74748  1.0000 0.0701902411
C   C74       1.0  0.33393  0.74748  0.43911  1.0000 0.0701902411
C   C75       1.0  0.74748  0.43911  0.33393  1.0000 0.0701902411
C   C76       1.0  0.93911  0.24748  0.83393  1.0000 0.0701902411
C   C77       1.0  0.24748  0.83393  0.93911  1.0000 0.0701902411
C   C78       1.0  0.83393  0.93911  0.24748  1.0000 0.0701902411
C   C79       1.0  0.42830  0.35410  0.70650  1.0000 -0.1585766545
C   C80       1.0  0.35410  0.70650  0.42830  1.0000 -0.1585766545
C   C81       1.0  0.70650  0.42830  0.35410  1.0000 -0.1585766545
C   C82       1.0  0.92830  0.20650  0.85410  1.0000 -0.1585766545
C   C83       1.0  0.20650  0.85410  0.92830  1.0000 -0.1585766545
C   C84       1.0  0.85410  0.92830  0.20650  1.0000 -0.1585766545
C   C85       1.0  0.39830  0.31300  0.64620  1.0000 0.0701902411
C   C86       1.0  0.31300  0.64620  0.39830  1.0000 0.0701902411
C   C87       1.0  0.64620  0.39830  0.31300  1.0000 0.0701902411
C   C88       1.0  0.89830  0.14620  0.81300  1.0000 0.0701902411
C   C89       1.0  0.14620  0.81300  0.89830  1.0000 0.0701902411
C   C90       1.0  0.81300  0.89830  0.14620  1.0000 0.0701902411
C   C91       1.0  0.53239  0.41611  0.00315  1.0000 0.3525403904
C   C92       1.0  0.41611  0.00315  0.53239  1.0000 0.3525403904
C   C93       1.0  0.00315  0.53239  0.41611  1.0000 0.3525403904
C   C94       1.0  0.03239  0.50315  0.91611  1.0000 0.3525403904
C   C95       1.0  0.50315  0.91611  0.03239  1.0000 0.3525403904
C   C96       1.0  0.91611  0.03239  0.50315  1.0000 0.3525403904
C   C97       1.0  0.55749  0.49409  0.98395  1.0000 0.3811487196
C   C98       1.0  0.49409  0.98395  0.55749  1.0000 0.3811487196
C   C99       1.0  0.98395  0.55749  0.49409  1.0000 0.3811487196
C   C100      1.0  0.05749  0.48395  0.99409  1.0000 0.3811487196
C   C101      1.0  0.48395  0.99409  0.05749  1.0000 0.3811487196
C   C102      1.0  0.99409  0.05749  0.48395  1.0000 0.3811487196
C   C103      1.0  0.58032  0.56627  0.95782  1.0000 0.3449692411
C   C104      1.0  0.56627  0.95782  0.58032  1.0000 0.3449692411
C   C105      1.0  0.95782  0.58032  0.56627  1.0000 0.3525403904
C   C106      1.0  0.08032  0.45782  0.06627  1.0000 0.3449692411
C   C107      1.0  0.45782  0.06627  0.08032  1.0000 0.3449692411
C   C108      1.0  0.06627  0.08032  0.45782  1.0000 0.3449692411
C   C109      1.0  0.52686  0.47335  0.88235  1.0000 0.370123704
C   C110      1.0  0.47335  0.88235  0.52686  1.0000 0.370123704
C   C111      1.0  0.88235  0.52686  0.47335  1.0000 0.370123704
C   C112      1.0  0.02686  0.38235  0.97335  1.0000 0.3811487196
C   C113      1.0  0.38235  0.97335  0.02686  1.0000 0.3811487196
C   C114      1.0  0.97335  0.02686  0.38235  1.0000 0.370123704
C   C115      1.0  0.47214  0.37724  0.81157  1.0000 0.370123704
C   C116      1.0  0.37724  0.81157  0.47214  1.0000 0.370123704
C   C117      1.0  0.81157  0.47214  0.37724  1.0000 0.370123704
C   C118      1.0  0.97214  0.31157  0.87724  1.0000 0.370123704
C   C119      1.0  0.31157  0.87724  0.97214  1.0000 0.370123704
C   C120      1.0  0.87724  0.97214  0.31157  1.0000 0.370123704
C   C121      1.0  0.50074  0.39282  0.90707  1.0000 0.3811487196
C   C122      1.0  0.39282  0.90707  0.50074  1.0000 0.3811487196
C   C123      1.0  0.90707  0.50074  0.39282  1.0000 0.3811487196
C   C124      1.0  0.00074  0.40707  0.89282  1.0000 0.3811487196
C   C125      1.0  0.40707  0.89282  0.00074  1.0000 0.3811487196
C   C126      1.0  0.89282  0.00074  0.40707  1.0000 0.3811487196
C   C127      1.0  0.52783  0.45303  0.92387  1.0000 -0.1923856752
C   C128      1.0  0.45303  0.92387  0.52783  1.0000 -0.1923856752
C   C129      1.0  0.92387  0.52783  0.45303  1.0000 -0.1923856752
C   C130      1.0  0.02783  0.42387  0.95303  1.0000 -0.1923856752
C   C131      1.0  0.42387  0.95303  0.02783  1.0000 -0.1923856752
C   C132      1.0  0.95303  0.02783  0.42387  1.0000 -0.1923856752
C   C133      1.0  0.95024  0.35485  0.08300  1.0000 0.048066762
C   C134      1.0  0.35485  0.08300  0.95024  1.0000 0.048066762
C   C135      1.0  0.08300  0.95024  0.35485  1.0000 0.048066762
C   C136      1.0  0.45024  0.58300  0.85485  1.0000 0.048066762
C   C137      1.0  0.58300  0.85485  0.45024  1.0000 0.048066762
C   C138      1.0  0.85485  0.45024  0.58300  1.0000 0.048066762
C   C139      1.0  0.95107  0.39537  0.06391  1.0000 -0.1446447575
C   C140      1.0  0.39537  0.06391  0.95107  1.0000 -0.1446447575
C   C141      1.0  0.06391  0.95107  0.39537  1.0000 -0.1446447575
C   C142      1.0  0.45107  0.56391  0.89537  1.0000 -0.1446447575
C   C143      1.0  0.56391  0.89537  0.45107  1.0000 -0.1446447575
C   C144      1.0  0.89537  0.45107  0.56391  1.0000 -0.1446447575
C   C145      1.0  0.96399  0.45085  0.10384  1.0000 0.0701902411
C   C146      1.0  0.45085  0.10384  0.96399  1.0000 0.0701902411
C   C147      1.0  0.10384  0.96399  0.45085  1.0000 0.0701902411
C   C148      1.0  0.46399  0.60384  0.95085  1.0000 0.0701902411
C   C149      1.0  0.60384  0.95085  0.46399  1.0000 0.0701902411
C   C150      1.0  0.95085  0.46399  0.60384  1.0000 0.0701902411
C   C151      1.0  0.97244  0.46132  0.15956  1.0000 -0.1704618277
C   C152      1.0  0.46132  0.15956  0.97244  1.0000 -0.1704618277
C   C153      1.0  0.15956  0.97244  0.46132  1.0000 -0.1704618277
C   C154      1.0  0.47244  0.65956  0.96132  1.0000 -0.1704618277
C   C155      1.0  0.65956  0.96132  0.47244  1.0000 -0.1704618277
C   C156      1.0  0.96132  0.47244  0.65956  1.0000 -0.1704618277
C   C157      1.0  0.96896  0.41630  0.17500  1.0000 0.0630507806
C   C158      1.0  0.41630  0.17500  0.96896  1.0000 0.0630507806
C   C159      1.0  0.17500  0.96896  0.41630  1.0000 0.0630507806
C   C160      1.0  0.46896  0.67500  0.91630  1.0000 0.0630507806
C   C161      1.0  0.67500  0.91630  0.46896  1.0000 0.0630507806
C   C162      1.0  0.91630  0.46896  0.67500  1.0000 0.0630507806
C   C163      1.0  0.86725  0.54373  0.78781  1.0000 0.048066762
C   C164      1.0  0.54373  0.78781  0.86725  1.0000 0.048066762
C   C165      1.0  0.78781  0.86725  0.54373  1.0000 0.048066762
C   C166      1.0  0.36725  0.28781  0.04373  1.0000 0.048066762
C   C167      1.0  0.28781  0.04373  0.36725  1.0000 0.048066762
C   C168      1.0  0.04373  0.36725  0.28781  1.0000 0.048066762
C   C169      1.0  0.89446  0.56384  0.84732  1.0000 -0.1467277536
C   C170      1.0  0.56384  0.84732  0.89446  1.0000 -0.1467277536
C   C171      1.0  0.84732  0.89446  0.56384  1.0000 -0.1467277536
C   C172      1.0  0.39446  0.34732  0.06384  1.0000 -0.1467277536
C   C173      1.0  0.34732  0.06384  0.39446  1.0000 -0.1467277536
C   C174      1.0  0.06384  0.39446  0.34732  1.0000 -0.1467277536
C   C175      1.0  0.89113  0.52328  0.86871  1.0000 0.0701902411
C   C176      1.0  0.52328  0.86871  0.89113  1.0000 0.0701902411
C   C177      1.0  0.86871  0.89113  0.52328  1.0000 0.0701902411
C   C178      1.0  0.39113  0.36871  0.02328  1.0000 0.0701902411
C   C179      1.0  0.36871  0.02328  0.39113  1.0000 0.0701902411
C   C180      1.0  0.02328  0.39113  0.36871  1.0000 0.0701902411
C   C181      1.0  0.86322  0.46364  0.82810  1.0000 -0.1585766545
C   C182      1.0  0.46364  0.82810  0.86322  1.0000 -0.1585766545
C   C183      1.0  0.82810  0.86322  0.46364  1.0000 -0.1585766545
C   C184      1.0  0.36322  0.32810  0.96364  1.0000 -0.1585766545
C   C185      1.0  0.32810  0.96364  0.36322  1.0000 -0.1585766545
C   C186      1.0  0.96364  0.36322  0.32810  1.0000 -0.1585766545
C   C187      1.0  0.83730  0.44727  0.76968  1.0000 0.048066762
C   C188      1.0  0.44727  0.76968  0.83730  1.0000 0.048066762
C   C189      1.0  0.76968  0.83730  0.44727  1.0000 0.048066762
C   C190      1.0  0.33730  0.26968  0.94727  1.0000 0.048066762
C   C191      1.0  0.26968  0.94727  0.33730  1.0000 0.048066762
C   C192      1.0  0.94727  0.33730  0.26968  1.0000 0.048066762
C   C193      1.0  0.11110  0.83240  0.26140  1.0000 0.0422452541
C   C194      1.0  0.83240  0.26140  0.11110  1.0000 0.0422452541
C   C195      1.0  0.26140  0.11110  0.83240  1.0000 0.0422452541
C   C196      1.0  0.61110  0.76140  0.33240  1.0000 0.0422452541
C   C197      1.0  0.76140  0.33240  0.61110  1.0000 0.0422452541
C   C198      1.0  0.33240  0.61110  0.76140  1.0000 0.0422452541
C   C199      1.0  0.08221  0.77284  0.22397  1.0000 -0.1585766545
C   C200      1.0  0.77284  0.22397  0.08221  1.0000 -0.1585766545
C   C201      1.0  0.22397  0.08221  0.77284  1.0000 -0.1585766545
C   C202      1.0  0.58221  0.72397  0.27284  1.0000 -0.1585766545
C   C203      1.0  0.72397  0.27284  0.58221  1.0000 -0.1585766545
C   C204      1.0  0.27284  0.58221  0.72397  1.0000 -0.1585766545
C   C205      1.0  0.06089  0.75252  0.16607  1.0000 0.0701902411
C   C206      1.0  0.75252  0.16607  0.06089  1.0000 0.0701902411
C   C207      1.0  0.16607  0.06089  0.75252  1.0000 0.0701902411
C   C208      1.0  0.56089  0.66607  0.25252  1.0000 0.0701902411
C   C209      1.0  0.66607  0.25252  0.56089  1.0000 0.0701902411
C   C210      1.0  0.25252  0.56089  0.66607  1.0000 0.0701902411
C   C211      1.0  0.07170  0.79350  0.14590  1.0000 -0.1585766545
C   C212      1.0  0.79350  0.14590  0.07170  1.0000 -0.1585766545
C   C213      1.0  0.14590  0.07170  0.79350  1.0000 -0.1585766545
C   C214      1.0  0.57170  0.64590  0.29350  1.0000 -0.1585766545
C   C215      1.0  0.64590  0.29350  0.57170  1.0000 -0.1585766545
C   C216      1.0  0.29350  0.57170  0.64590  1.0000 -0.1585766545
C   C217      1.0  0.10170  0.85380  0.18700  1.0000 0.0701902411
C   C218      1.0  0.85380  0.18700  0.10170  1.0000 0.0701902411
C   C219      1.0  0.18700  0.10170  0.85380  1.0000 0.0701902411
C   C220      1.0  0.60170  0.68700  0.35380  1.0000 0.0701902411
C   C221      1.0  0.68700  0.35380  0.60170  1.0000 0.0701902411
C   C222      1.0  0.35380  0.60170  0.68700  1.0000 0.0701902411
C   C223      1.0  0.96761  0.49685  0.08389  1.0000 0.3525403904
C   C224      1.0  0.49685  0.08389  0.96761  1.0000 0.3525403904
C   C225      1.0  0.08389  0.96761  0.49685  1.0000 0.3525403904
C   C226      1.0  0.46761  0.58389  0.99685  1.0000 0.3525403904
C   C227      1.0  0.58389  0.99685  0.46761  1.0000 0.3525403904
C   C228      1.0  0.99685  0.46761  0.58389  1.0000 0.3525403904
C   C229      1.0  0.94251  0.51605  0.00591  1.0000 0.3811487196
C   C230      1.0  0.51605  0.00591  0.94251  1.0000 0.3811487196
C   C231      1.0  0.00591  0.94251  0.51605  1.0000 0.3811487196
C   C232      1.0  0.44251  0.50591  0.01605  1.0000 0.3811487196
C   C233      1.0  0.50591  0.01605  0.44251  1.0000 0.3811487196
C   C234      1.0  0.01605  0.44251  0.50591  1.0000 0.3811487196
C   C235      1.0  0.91968  0.54218  0.93373  1.0000 0.3449692411
C   C236      1.0  0.54218  0.93373  0.91968  1.0000 0.3449692411
C   C237      1.0  0.93373  0.91968  0.54218  1.0000 0.3449692411
C   C238      1.0  0.41968  0.43373  0.04218  1.0000 0.3449692411
C   C239      1.0  0.43373  0.04218  0.41968  1.0000 0.3449692411
C   C240      1.0  0.04218  0.41968  0.43373  1.0000 0.3449692411
C   C241      1.0  0.97314  0.61765  0.02665  1.0000 0.370123704
C   C242      1.0  0.61765  0.02665  0.97314  1.0000 0.370123704
C   C243      1.0  0.02665  0.97314  0.61765  1.0000 0.370123704
C   C244      1.0  0.47314  0.52665  0.11765  1.0000 0.3811487196
C   C245      1.0  0.52665  0.11765  0.47314  1.0000 0.370123704
C   C246      1.0  0.11765  0.47314  0.52665  1.0000 0.370123704
C   C247      1.0  0.02786  0.68843  0.12276  1.0000 0.370123704
C   C248      1.0  0.68843  0.12276  0.02786  1.0000 0.370123704
C   C249      1.0  0.12276  0.02786  0.68843  1.0000 0.370123704
C   C250      1.0  0.52786  0.62276  0.18843  1.0000 0.370123704
C   C251      1.0  0.62276  0.18843  0.52786  1.0000 0.370123704
C   C252      1.0  0.18843  0.52786  0.62276  1.0000 0.370123704
C   C253      1.0  0.99926  0.59293  0.10718  1.0000 0.3811487196
C   C254      1.0  0.59293  0.10718  0.99926  1.0000 0.3811487196
C   C255      1.0  0.10718  0.99926  0.59293  1.0000 0.3811487196
C   C256      1.0  0.49926  0.60718  0.09293  1.0000 0.3811487196
C   C257      1.0  0.60718  0.09293  0.49926  1.0000 0.3811487196
C   C258      1.0  0.09293  0.49926  0.60718  1.0000 0.3811487196
C   C259      1.0  0.97217  0.57613  0.04697  1.0000 -0.1923856752
C   C260      1.0  0.57613  0.04697  0.97217  1.0000 -0.1923856752
C   C261      1.0  0.04697  0.97217  0.57613  1.0000 -0.1923856752
C   C262      1.0  0.47217  0.54697  0.07613  1.0000 -0.1923856752
C   C263      1.0  0.54697  0.07613  0.47217  1.0000 -0.1923856752
C   C264      1.0  0.07613  0.47217  0.54697  1.0000 -0.1923856752
I   I1        1.0  0.47422  0.36411  0.23810  1.0000 -0.5084355838
I   I2        1.0  0.36411  0.23810  0.47422  1.0000 -0.5084355838
I   I3        1.0  0.23810  0.47422  0.36411  1.0000 -0.5084355838
I   I4        1.0  0.97422  0.73810  0.86411  1.0000 -0.5084355838
I   I5        1.0  0.73810  0.86411  0.97422  1.0000 -0.5084355838
I   I6        1.0  0.86411  0.97422  0.73810  1.0000 -0.5084355838
I   I7        1.0  0.02578  0.26190  0.13589  1.0000 -0.5084355838
I   I8        1.0  0.26190  0.13589  0.02578  1.0000 -0.5084355838
I   I9        1.0  0.13589  0.02578  0.26190  1.0000 -0.5084355838
I   I10       1.0  0.52578  0.63589  0.76190  1.0000 -0.5084355838
I   I11       1.0  0.63589  0.76190  0.52578  1.0000 -0.5084355838
I   I12       1.0  0.76190  0.52578  0.63589  1.0000 -0.5084355838
N   N1        1.0  0.54008  0.36145  0.13517  1.0000 -0.1988206963
N   N2        1.0  0.36145  0.13517  0.54008  1.0000 -0.1988206963
N   N3        1.0  0.13517  0.54008  0.36145  1.0000 -0.1988206963
N   N4        1.0  0.04008  0.63517  0.86145  1.0000 -0.1988206963
N   N5        1.0  0.63517  0.86145  0.04008  1.0000 -0.1988206963
N   N6        1.0  0.86145  0.04008  0.63517  1.0000 -0.1988206963
N   N7        1.0  0.66236  0.75166  0.01394  1.0000 -0.2188494669
N   N8        1.0  0.75166  0.01394  0.66236  1.0000 -0.2188494669
N   N9        1.0  0.01394  0.66236  0.75166  1.0000 -0.2188494669
N   N10       1.0  0.16236  0.51394  0.25166  1.0000 -0.2188494669
N   N11       1.0  0.51394  0.25166  0.16236  1.0000 -0.2188494669
N   N12       1.0  0.25166  0.16236  0.51394  1.0000 -0.2188494669
N   N13       1.0  0.37953  0.25631  0.62749  1.0000 -0.1988206963
N   N14       1.0  0.25631  0.62749  0.37953  1.0000 -0.1988206963
N   N15       1.0  0.62749  0.37953  0.25631  1.0000 -0.1988206963
N   N16       1.0  0.87953  0.12749  0.75631  1.0000 -0.1988206963
N   N17       1.0  0.12749  0.75631  0.87953  1.0000 -0.1988206963
N   N18       1.0  0.75631  0.87953  0.12749  1.0000 -0.1988206963
N   N19       1.0  0.55930  0.47537  0.02462  1.0000 -0.4006129123
N   N20       1.0  0.47537  0.02462  0.55930  1.0000 -0.4006129123
N   N21       1.0  0.02462  0.55930  0.47537  1.0000 -0.4006129123
N   N22       1.0  0.05930  0.52462  0.97537  1.0000 -0.4006129123
N   N23       1.0  0.52462  0.97537  0.05930  1.0000 -0.4006129123
N   N24       1.0  0.97537  0.05930  0.52462  1.0000 -0.4006129123
N   N25       1.0  0.58387  0.55260  0.00145  1.0000 -0.4006129123
N   N26       1.0  0.55260  0.00145  0.58387  1.0000 -0.4006129123
N   N27       1.0  0.00145  0.58387  0.55260  1.0000 -0.4006129123
N   N28       1.0  0.08387  0.50145  0.05260  1.0000 -0.4006129123
N   N29       1.0  0.50145  0.05260  0.08387  1.0000 -0.4006129123
N   N30       1.0  0.05260  0.08387  0.50145  1.0000 -0.4006129123
N   N31       1.0  0.55403  0.53162  0.89933  1.0000 -0.4121040395
N   N32       1.0  0.53162  0.89933  0.55403  1.0000 -0.4121040395
N   N33       1.0  0.89933  0.55403  0.53162  1.0000 -0.4121040395
N   N34       1.0  0.05403  0.39933  0.03162  1.0000 -0.4121040395
N   N35       1.0  0.39933  0.03162  0.05403  1.0000 -0.4121040395
N   N36       1.0  0.03162  0.05403  0.39933  1.0000 -0.4121040395
N   N37       1.0  0.49763  0.43346  0.82403  1.0000 -0.4121040395
N   N38       1.0  0.43346  0.82403  0.49763  1.0000 -0.4121040395
N   N39       1.0  0.82403  0.49763  0.43346  1.0000 -0.4121040395
N   N40       1.0  0.99763  0.32403  0.93346  1.0000 -0.4121040395
N   N41       1.0  0.32403  0.93346  0.99763  1.0000 -0.4121040395
N   N42       1.0  0.93346  0.99763  0.32403  1.0000 -0.41998191
N   N43       1.0  0.47114  0.35283  0.84826  1.0000 -0.41998191
N   N44       1.0  0.35283  0.84826  0.47114  1.0000 -0.41998191
N   N45       1.0  0.84826  0.47114  0.35283  1.0000 -0.41998191
N   N46       1.0  0.97114  0.34826  0.85283  1.0000 -0.41998191
N   N47       1.0  0.34826  0.85283  0.97114  1.0000 -0.41998191
N   N48       1.0  0.85283  0.97114  0.34826  1.0000 -0.41998191
N   N49       1.0  0.50304  0.37360  0.94700  1.0000 -0.4006129123
N   N50       1.0  0.37360  0.94700  0.50304  1.0000 -0.4006129123
N   N51       1.0  0.94700  0.50304  0.37360  1.0000 -0.4006129123
N   N52       1.0  0.00304  0.44700  0.87360  1.0000 -0.4006129123
N   N53       1.0  0.44700  0.87360  0.00304  1.0000 -0.4006129123
N   N54       1.0  0.87360  0.00304  0.44700  1.0000 -0.4006129123
N   N55       1.0  0.95992  0.36483  0.13855  1.0000 -0.1988206963
N   N56       1.0  0.36483  0.13855  0.95992  1.0000 -0.1988206963
N   N57       1.0  0.13855  0.95992  0.36483  1.0000 -0.1988206963
N   N58       1.0  0.45992  0.63855  0.86483  1.0000 -0.1988206963
N   N59       1.0  0.63855  0.86483  0.45992  1.0000 -0.1988206963
N   N60       1.0  0.86483  0.45992  0.63855  1.0000 -0.1988206963
N   N61       1.0  0.83764  0.48606  0.74834  1.0000 -0.2188494669
N   N62       1.0  0.48606  0.74834  0.83764  1.0000 -0.2188494669
N   N63       1.0  0.74834  0.83764  0.48606  1.0000 -0.2188494669
N   N64       1.0  0.33764  0.24834  0.98606  1.0000 -0.2188494669
N   N65       1.0  0.24834  0.98606  0.33764  1.0000 -0.2188494669
N   N66       1.0  0.98606  0.33764  0.24834  1.0000 -0.2188494669
N   N67       1.0  0.12047  0.87251  0.24369  1.0000 -0.1988206963
N   N68       1.0  0.87251  0.24369  0.12047  1.0000 -0.1988206963
N   N69       1.0  0.24369  0.12047  0.87251  1.0000 -0.1988206963
N   N70       1.0  0.62047  0.74369  0.37251  1.0000 -0.1988206963
N   N71       1.0  0.74369  0.37251  0.62047  1.0000 -0.1988206963
N   N72       1.0  0.37251  0.62047  0.74369  1.0000 -0.1988206963
N   N73       1.0  0.94070  0.47538  0.02463  1.0000 -0.4006129123
N   N74       1.0  0.47538  0.02463  0.94070  1.0000 -0.4006129123
N   N75       1.0  0.02463  0.94070  0.47538  1.0000 -0.4006129123
N   N76       1.0  0.44070  0.52463  0.97538  1.0000 -0.4006129123
N   N77       1.0  0.52463  0.97538  0.44070  1.0000 -0.4006129123
N   N78       1.0  0.97538  0.44070  0.52463  1.0000 -0.4006129123
N   N79       1.0  0.91613  0.49855  0.94740  1.0000 -0.4006129123
N   N80       1.0  0.49855  0.94740  0.91613  1.0000 -0.4006129123
N   N81       1.0  0.94740  0.91613  0.49855  1.0000 -0.4006129123
N   N82       1.0  0.41613  0.44740  0.99855  1.0000 -0.4006129123
N   N83       1.0  0.44740  0.99855  0.41613  1.0000 -0.4006129123
N   N84       1.0  0.99855  0.41613  0.44740  1.0000 -0.4006129123
N   N85       1.0  0.94597  0.60067  0.96838  1.0000 -0.4121040395
N   N86       1.0  0.60067  0.96838  0.94597  1.0000 -0.4121040395
N   N87       1.0  0.96838  0.94597  0.60067  1.0000 -0.4121040395
N   N88       1.0  0.44597  0.46838  0.10067  1.0000 -0.4121040395
N   N89       1.0  0.46838  0.10067  0.44597  1.0000 -0.4121040395
N   N90       1.0  0.10067  0.44597  0.46838  1.0000 -0.4121040395
N   N91       1.0  0.00237  0.67597  0.06654  1.0000 -0.4121040395
N   N92       1.0  0.67597  0.06654  0.00237  1.0000 -0.4121040395
N   N93       1.0  0.06654  0.00237  0.67597  1.0000 -0.4121040395
N   N94       1.0  0.50237  0.56654  0.17597  1.0000 -0.4121040395
N   N95       1.0  0.56654  0.17597  0.50237  1.0000 -0.4121040395
N   N96       1.0  0.17597  0.50237  0.56654  1.0000 -0.4121040395
N   N97       1.0  0.02886  0.65174  0.14717  1.0000 -0.41998191
N   N98       1.0  0.65174  0.14717  0.02886  1.0000 -0.41998191
N   N99       1.0  0.14717  0.02886  0.65174  1.0000 -0.41998191
N   N100      1.0  0.52886  0.64717  0.15174  1.0000 -0.41998191
N   N101      1.0  0.64717  0.15174  0.52886  1.0000 -0.41998191
N   N102      1.0  0.15174  0.52886  0.64717  1.0000 -0.41998191
N   N103      1.0  0.99696  0.55300  0.12640  1.0000 -0.4006129123
N   N104      1.0  0.55300  0.12640  0.99696  1.0000 -0.4006129123
N   N105      1.0  0.12640  0.99696  0.55300  1.0000 -0.4006129123
N   N106      1.0  0.49696  0.62640  0.05300  1.0000 -0.4006129123
N   N107      1.0  0.62640  0.05300  0.49696  1.0000 -0.4006129123
N   N108      1.0  0.05300  0.49696  0.62640  1.0000 -0.4006129123
