# DDEC6 charges by PACMAN v1.1 (https://github.com/mtap-research/PACMAN-charge/)
data_2014[Dy][bcu]3[ASR]1
_chemical_formula_sum              "Dy2 H48 C88 S8 N8 O24"
_cell_length_a       15.3763
_cell_length_b       15.3763
_cell_length_c       9.8086
_cell_angle_alpha    90
_cell_angle_beta     90
_cell_angle_gamma    90

_symmetry_space_group_name_H-M    "P 1"
_symmetry_Int_Tables_number       1

loop_
  _symmetry_equiv_pos_as_xyz
  'x, y, z'

loop_
  _atom_site_type_symbol
  _atom_site_label
  _atom_site_symmetry_multiplicity
  _atom_site_fract_x
  _atom_site_fract_y
  _atom_site_fract_z
  _atom_site_occupancy
  _atom_site_charge
Dy  Dy1       1.0  0.00000  0.00000  0.25000  1.0000 2.2547685573
Dy  Dy2       1.0  0.00000  0.00000  0.75000  1.0000 2.2547685573
H   H1        1.0  0.76160  0.91210  0.20390  1.0000 0.1422971556
H   H2        1.0  0.23840  0.08790  0.20390  1.0000 0.1422971556
H   H3        1.0  0.91210  0.23840  0.20390  1.0000 0.1422971556
H   H4        1.0  0.08790  0.76160  0.20390  1.0000 0.1422971556
H   H5        1.0  0.76160  0.08790  0.29610  1.0000 0.1422971556
H   H6        1.0  0.23840  0.91210  0.29610  1.0000 0.1422971556
H   H7        1.0  0.91210  0.76160  0.29610  1.0000 0.1422971556
H   H8        1.0  0.08790  0.23840  0.29610  1.0000 0.1422971556
H   H9        1.0  0.23840  0.08790  0.79610  1.0000 0.1422971556
H   H10       1.0  0.76160  0.91210  0.79610  1.0000 0.1422971556
H   H11       1.0  0.08790  0.76160  0.79610  1.0000 0.1422971556
H   H12       1.0  0.91210  0.23840  0.79610  1.0000 0.1422971556
H   H13       1.0  0.23840  0.91210  0.70390  1.0000 0.1422971556
H   H14       1.0  0.76160  0.08790  0.70390  1.0000 0.1422971556
H   H15       1.0  0.08790  0.23840  0.70390  1.0000 0.1422971556
H   H16       1.0  0.91210  0.76160  0.70390  1.0000 0.1422971556
H   H17       1.0  0.67800  0.78710  0.20420  1.0000 0.1327417959
H   H18       1.0  0.32200  0.21290  0.20420  1.0000 0.1327417959
H   H19       1.0  0.78710  0.32200  0.20420  1.0000 0.1327417959
H   H20       1.0  0.21290  0.67800  0.20420  1.0000 0.1327417959
H   H21       1.0  0.67800  0.21290  0.29580  1.0000 0.1327417959
H   H22       1.0  0.32200  0.78710  0.29580  1.0000 0.1327417959
H   H23       1.0  0.78710  0.67800  0.29580  1.0000 0.1327417959
H   H24       1.0  0.21290  0.32200  0.29580  1.0000 0.1327417959
H   H25       1.0  0.32200  0.21290  0.79580  1.0000 0.1327417959
H   H26       1.0  0.67800  0.78710  0.79580  1.0000 0.1327417959
H   H27       1.0  0.21290  0.67800  0.79580  1.0000 0.1327417959
H   H28       1.0  0.78710  0.32200  0.79580  1.0000 0.1327417959
H   H29       1.0  0.32200  0.78710  0.70420  1.0000 0.1327417959
H   H30       1.0  0.67800  0.21290  0.70420  1.0000 0.1327417959
H   H31       1.0  0.21290  0.32200  0.70420  1.0000 0.1327417959
H   H32       1.0  0.78710  0.67800  0.70420  1.0000 0.1327417959
H   H33       1.0  0.79750  0.65200  0.00000  1.0000 0.1486808559
H   H34       1.0  0.20250  0.34800  0.00000  1.0000 0.1486808559
H   H35       1.0  0.65200  0.20250  0.00000  1.0000 0.1486808559
H   H36       1.0  0.34800  0.79750  0.00000  1.0000 0.1486808559
H   H37       1.0  0.79750  0.34800  0.50000  1.0000 0.1486808559
H   H38       1.0  0.20250  0.65200  0.50000  1.0000 0.1486808559
H   H39       1.0  0.65200  0.79750  0.50000  1.0000 0.1486808559
H   H40       1.0  0.34800  0.20250  0.50000  1.0000 0.1486808559
H   H41       1.0  0.83340  0.49710  0.00000  1.0000 0.1327417959
H   H42       1.0  0.16660  0.50290  0.00000  1.0000 0.1327417959
H   H43       1.0  0.49710  0.16660  0.00000  1.0000 0.1327417959
H   H44       1.0  0.50290  0.83340  0.00000  1.0000 0.1327417959
H   H45       1.0  0.83340  0.50290  0.50000  1.0000 0.1327417959
H   H46       1.0  0.16660  0.49710  0.50000  1.0000 0.1327417959
H   H47       1.0  0.49710  0.83340  0.50000  1.0000 0.1327417959
H   H48       1.0  0.50290  0.16660  0.50000  1.0000 0.1327417959
C   C1        1.0  0.76825  0.92375  0.00000  1.0000 -0.0871377444
C   C2        1.0  0.23175  0.07625  0.00000  1.0000 -0.0871377444
C   C3        1.0  0.92375  0.23175  0.00000  1.0000 -0.0871377444
C   C4        1.0  0.07625  0.76825  0.00000  1.0000 -0.0871377444
C   C5        1.0  0.76825  0.07625  0.50000  1.0000 -0.0871377444
C   C6        1.0  0.23175  0.92375  0.50000  1.0000 -0.0871377444
C   C7        1.0  0.92375  0.76825  0.50000  1.0000 -0.0871377444
C   C8        1.0  0.07625  0.23175  0.50000  1.0000 -0.0871377444
C   C9        1.0  0.74442  0.88692  0.12200  1.0000 -0.0668222836
C   C10       1.0  0.25558  0.11308  0.12200  1.0000 -0.0668222836
C   C11       1.0  0.88692  0.25558  0.12200  1.0000 -0.0668222836
C   C12       1.0  0.11308  0.74442  0.12200  1.0000 -0.0668222836
C   C13       1.0  0.74442  0.11308  0.37800  1.0000 -0.0668222836
C   C14       1.0  0.25558  0.88692  0.37800  1.0000 -0.0668222836
C   C15       1.0  0.88692  0.74442  0.37800  1.0000 -0.0668222836
C   C16       1.0  0.11308  0.25558  0.37800  1.0000 -0.0668222836
C   C17       1.0  0.25558  0.11308  0.87800  1.0000 -0.0668222836
C   C18       1.0  0.74442  0.88692  0.87800  1.0000 -0.0668222836
C   C19       1.0  0.11308  0.74442  0.87800  1.0000 -0.0668222836
C   C20       1.0  0.88692  0.25558  0.87800  1.0000 -0.0668222836
C   C21       1.0  0.25558  0.88692  0.62200  1.0000 -0.0668222836
C   C22       1.0  0.74442  0.11308  0.62200  1.0000 -0.0668222836
C   C23       1.0  0.11308  0.25558  0.62200  1.0000 -0.0668222836
C   C24       1.0  0.88692  0.74442  0.62200  1.0000 -0.0668222836
C   C25       1.0  0.69471  0.81207  0.12190  1.0000 -0.1206283799
C   C26       1.0  0.30529  0.18793  0.12190  1.0000 -0.1206283799
C   C27       1.0  0.81207  0.30529  0.12190  1.0000 -0.1206283799
C   C28       1.0  0.18793  0.69471  0.12190  1.0000 -0.1206283799
C   C29       1.0  0.69471  0.18793  0.37810  1.0000 -0.1206283799
C   C30       1.0  0.30529  0.81207  0.37810  1.0000 -0.1206283799
C   C31       1.0  0.81207  0.69471  0.37810  1.0000 -0.1206283799
C   C32       1.0  0.18793  0.30529  0.37810  1.0000 -0.1206283799
C   C33       1.0  0.30529  0.18793  0.87810  1.0000 -0.1206283799
C   C34       1.0  0.69471  0.81207  0.87810  1.0000 -0.1206283799
C   C35       1.0  0.18793  0.69471  0.87810  1.0000 -0.1206283799
C   C36       1.0  0.81207  0.30529  0.87810  1.0000 -0.1206283799
C   C37       1.0  0.30529  0.81207  0.62190  1.0000 -0.1206283799
C   C38       1.0  0.69471  0.18793  0.62190  1.0000 -0.1206283799
C   C39       1.0  0.18793  0.30529  0.62190  1.0000 -0.1206283799
C   C40       1.0  0.81207  0.69471  0.62190  1.0000 -0.1206283799
C   C41       1.0  0.66945  0.77380  0.00000  1.0000 0.0946417845
C   C42       1.0  0.33055  0.22620  0.00000  1.0000 0.0946417845
C   C43       1.0  0.77380  0.33055  0.00000  1.0000 0.0946417845
C   C44       1.0  0.22620  0.66945  0.00000  1.0000 0.0946417845
C   C45       1.0  0.66945  0.22620  0.50000  1.0000 0.0946417845
C   C46       1.0  0.33055  0.77380  0.50000  1.0000 0.0946417845
C   C47       1.0  0.77380  0.66945  0.50000  1.0000 0.0946417845
C   C48       1.0  0.22620  0.33055  0.50000  1.0000 0.0946417845
C   C49       1.0  0.61815  0.69119  0.00000  1.0000 -0.0765679829
C   C50       1.0  0.38185  0.30881  0.00000  1.0000 -0.0765679829
C   C51       1.0  0.69119  0.38185  0.00000  1.0000 -0.0765679829
C   C52       1.0  0.30881  0.61815  0.00000  1.0000 -0.0765679829
C   C53       1.0  0.61815  0.30881  0.50000  1.0000 -0.0765679829
C   C54       1.0  0.38185  0.69119  0.50000  1.0000 -0.0765679829
C   C55       1.0  0.69119  0.61815  0.50000  1.0000 -0.0765679829
C   C56       1.0  0.30881  0.38185  0.50000  1.0000 -0.0765679829
C   C57       1.0  0.66424  0.61317  0.00000  1.0000 0.1993160912
C   C58       1.0  0.33576  0.38683  0.00000  1.0000 0.1993160912
C   C59       1.0  0.61317  0.33576  0.00000  1.0000 0.1993160912
C   C60       1.0  0.38683  0.66424  0.00000  1.0000 0.1993160912
C   C61       1.0  0.66424  0.38683  0.50000  1.0000 0.1993160912
C   C62       1.0  0.33576  0.61317  0.50000  1.0000 0.1993160912
C   C63       1.0  0.61317  0.66424  0.50000  1.0000 0.1993160912
C   C64       1.0  0.38683  0.33576  0.50000  1.0000 0.1993160912
C   C65       1.0  0.75807  0.60612  0.00000  1.0000 -0.1701946711
C   C66       1.0  0.24193  0.39388  0.00000  1.0000 -0.1701946711
C   C67       1.0  0.60612  0.24193  0.00000  1.0000 -0.1701946711
C   C68       1.0  0.39388  0.75807  0.00000  1.0000 -0.1701946711
C   C69       1.0  0.75807  0.39388  0.50000  1.0000 -0.1701946711
C   C70       1.0  0.24193  0.60612  0.50000  1.0000 -0.1701946711
C   C71       1.0  0.60612  0.75807  0.50000  1.0000 -0.1701946711
C   C72       1.0  0.39388  0.24193  0.50000  1.0000 -0.1701946711
C   C73       1.0  0.77770  0.52070  0.00000  1.0000 -0.1778063109
C   C74       1.0  0.22230  0.47930  0.00000  1.0000 -0.1778063109
C   C75       1.0  0.52070  0.22230  0.00000  1.0000 -0.1778063109
C   C76       1.0  0.47930  0.77770  0.00000  1.0000 -0.1778063109
C   C77       1.0  0.77770  0.47930  0.50000  1.0000 -0.1778063109
C   C78       1.0  0.22230  0.52070  0.50000  1.0000 -0.1778063109
C   C79       1.0  0.52070  0.77770  0.50000  1.0000 -0.1778063109
C   C80       1.0  0.47930  0.22230  0.50000  1.0000 -0.1778063109
C   C81       1.0  0.69763  0.47250  0.00000  1.0000 0.2136389682
C   C82       1.0  0.30237  0.52750  0.00000  1.0000 0.2136389682
C   C83       1.0  0.47250  0.30237  0.00000  1.0000 0.2136389682
C   C84       1.0  0.52750  0.69763  0.00000  1.0000 0.2136389682
C   C85       1.0  0.69763  0.52750  0.50000  1.0000 0.2136389682
C   C86       1.0  0.30237  0.47250  0.50000  1.0000 0.2136389682
C   C87       1.0  0.47250  0.69763  0.50000  1.0000 0.2136389682
C   C88       1.0  0.52750  0.30237  0.50000  1.0000 0.2136389682
S   S1        1.0  0.82149  0.02606  0.00000  1.0000 1.2790202418
S   S2        1.0  0.17851  0.97394  0.00000  1.0000 1.2790202418
S   S3        1.0  0.02606  0.17851  0.00000  1.0000 1.2790202418
S   S4        1.0  0.97394  0.82149  0.00000  1.0000 1.2790202418
S   S5        1.0  0.82149  0.97394  0.50000  1.0000 1.2790202418
S   S6        1.0  0.17851  0.02606  0.50000  1.0000 1.2790202418
S   S7        1.0  0.02606  0.82149  0.50000  1.0000 1.2790202418
S   S8        1.0  0.97394  0.17851  0.50000  1.0000 1.2790202418
N   N1        1.0  0.62971  0.53022  0.00000  1.0000 -0.3151248476
N   N2        1.0  0.37029  0.46978  0.00000  1.0000 -0.3151248476
N   N3        1.0  0.53022  0.37029  0.00000  1.0000 -0.3151248476
N   N4        1.0  0.46978  0.62971  0.00000  1.0000 -0.3151248476
N   N5        1.0  0.62971  0.46978  0.50000  1.0000 -0.3151248476
N   N6        1.0  0.37029  0.53022  0.50000  1.0000 -0.3151248476
N   N7        1.0  0.53022  0.62971  0.50000  1.0000 -0.3151248476
N   N8        1.0  0.46978  0.37029  0.50000  1.0000 -0.3151248476
O   O1        1.0  0.87444  0.03119  0.12234  1.0000 -0.7144078246
O   O2        1.0  0.12556  0.96881  0.12234  1.0000 -0.7144078246
O   O3        1.0  0.03119  0.12556  0.12234  1.0000 -0.7144078246
O   O4        1.0  0.96881  0.87444  0.12234  1.0000 -0.7144078246
O   O5        1.0  0.87444  0.96881  0.37766  1.0000 -0.7144078246
O   O6        1.0  0.12556  0.03119  0.37766  1.0000 -0.7144078246
O   O7        1.0  0.03119  0.87444  0.37766  1.0000 -0.7144078246
O   O8        1.0  0.96881  0.12556  0.37766  1.0000 -0.7144078246
O   O9        1.0  0.12556  0.96881  0.87766  1.0000 -0.7144078246
O   O10       1.0  0.87444  0.03119  0.87766  1.0000 -0.7144078246
O   O11       1.0  0.96881  0.87444  0.87766  1.0000 -0.7144078246
O   O12       1.0  0.03119  0.12556  0.87766  1.0000 -0.7144078246
O   O13       1.0  0.12556  0.03119  0.62234  1.0000 -0.7144078246
O   O14       1.0  0.87444  0.96881  0.62234  1.0000 -0.7144078246
O   O15       1.0  0.96881  0.12556  0.62234  1.0000 -0.7144078246
O   O16       1.0  0.03119  0.87444  0.62234  1.0000 -0.7144078246
O   O17       1.0  0.75239  0.08926  0.00000  1.0000 -0.5512612468
O   O18       1.0  0.24761  0.91074  0.00000  1.0000 -0.5512612468
O   O19       1.0  0.08926  0.24761  0.00000  1.0000 -0.5512612468
O   O20       1.0  0.91074  0.75239  0.00000  1.0000 -0.5512612468
O   O21       1.0  0.75239  0.91074  0.50000  1.0000 -0.5512612468
O   O22       1.0  0.24761  0.08926  0.50000  1.0000 -0.5512612468
O   O23       1.0  0.08926  0.75239  0.50000  1.0000 -0.5512612468
O   O24       1.0  0.91074  0.24761  0.50000  1.0000 -0.5512612468
