# DDEC6 charges by PACMAN v1.1 (https://github.com/mtap-research/PACMAN-charge/)
data_2014[Zn][pcu]3[ASR]1
_chemical_formula_sum              "Zn8 H104 C160 N16 O40"
_cell_length_a       12.344
_cell_length_b       26.323
_cell_length_c       15.663
_cell_angle_alpha    90
_cell_angle_beta     97.56
_cell_angle_gamma    90

_symmetry_space_group_name_H-M    "P 1"
_symmetry_Int_Tables_number       1

loop_
  _symmetry_equiv_pos_as_xyz
  'x, y, z'

loop_
  _atom_site_type_symbol
  _atom_site_label
  _atom_site_symmetry_multiplicity
  _atom_site_fract_x
  _atom_site_fract_y
  _atom_site_fract_z
  _atom_site_occupancy
  _atom_site_charge
Zn  Zn1       1.0  0.22368  0.24099  0.22120  1.0000 0.8410298065
Zn  Zn2       1.0  0.77632  0.74099  0.27880  1.0000 0.8410298065
Zn  Zn3       1.0  0.38279  0.26324  0.40834  1.0000 0.8197007314
Zn  Zn4       1.0  0.61721  0.76324  0.09166  1.0000 0.8197007314
Zn  Zn5       1.0  0.77632  0.75901  0.77880  1.0000 0.8410298065
Zn  Zn6       1.0  0.22368  0.25901  0.72120  1.0000 0.8410298065
Zn  Zn7       1.0  0.61721  0.73676  0.59166  1.0000 0.8197007314
Zn  Zn8       1.0  0.38279  0.23676  0.90834  1.0000 0.8197007314
H   H1        1.0  0.57660  0.36890  0.31890  1.0000 0.1189588811
H   H2        1.0  0.42340  0.86890  0.18110  1.0000 0.1189588811
H   H3        1.0  0.67750  0.43280  0.26160  1.0000 0.1309870441
H   H4        1.0  0.32250  0.93280  0.23840  1.0000 0.1309870441
H   H5        1.0  0.53230  0.39820  0.02270  1.0000 0.1309870441
H   H6        1.0  0.46770  0.89820  0.47730  1.0000 0.1309870441
H   H7        1.0  0.42290  0.33780  0.08050  1.0000 0.1189588811
H   H8        1.0  0.57710  0.83780  0.41950  1.0000 0.1189588811
H   H9        1.0  0.79840  0.52610  0.06430  1.0000 0.1385840461
H   H10       1.0  0.20160  0.02610  0.43570  1.0000 0.1385840461
H   H11       1.0  0.76810  0.61380  0.06960  1.0000 0.1189588811
H   H12       1.0  0.23190  0.11380  0.43040  1.0000 0.1189588811
H   H13       1.0  0.48470  0.58940  0.16270  1.0000 0.1189588811
H   H14       1.0  0.51530  0.08940  0.33730  1.0000 0.1189588811
H   H15       1.0  0.51240  0.50180  0.15980  1.0000 0.1309870441
H   H16       1.0  0.48760  0.00180  0.34020  1.0000 0.1309870441
H   H17       1.0  0.15350  0.37670  0.49440  1.0000 0.1189588811
H   H18       1.0  0.84650  0.87670  0.00560  1.0000 0.1189588811
H   H19       1.0  0.01080  0.43250  0.51010  1.0000 0.1309870441
H   H20       1.0  0.98920  0.93250  0.98990  1.0000 0.1309870441
H   H21       1.0  0.84190  0.38000  0.28880  1.0000 0.1385840461
H   H22       1.0  0.15810  0.88000  0.21120  1.0000 0.1385840461
H   H23       1.0  0.98370  0.32190  0.27420  1.0000 0.1189588811
H   H24       1.0  0.01630  0.82190  0.22580  1.0000 0.1189588811
H   H25       1.0  0.68270  0.50840  0.41740  1.0000 0.1385840461
H   H26       1.0  0.31730  0.00840  0.08260  1.0000 0.1385840461
H   H27       1.0  0.67210  0.59200  0.36490  1.0000 0.1189588811
H   H28       1.0  0.32790  0.09200  0.13510  1.0000 0.1189588811
H   H29       1.0  0.95720  0.57370  0.26920  1.0000 0.1189588811
H   H30       1.0  0.04280  0.07370  0.23080  1.0000 0.1189588811
H   H31       1.0  0.97090  0.49070  0.32120  1.0000 0.1309870441
H   H32       1.0  0.02910  0.99070  0.17880  1.0000 0.1309870441
H   H33       1.0  0.61250  0.23670  0.48240  1.0000 0.1189588811
H   H34       1.0  0.38750  0.73670  0.01760  1.0000 0.1189588811
H   H35       1.0  0.72470  0.24150  0.61060  1.0000 0.1309870441
H   H36       1.0  0.27530  0.74150  0.88940  1.0000 0.1309870441
H   H37       1.0  0.48660  0.31990  0.70930  1.0000 0.1494287834
H   H38       1.0  0.51340  0.81990  0.79070  1.0000 0.1494287834
H   H39       1.0  0.37920  0.31360  0.57700  1.0000 0.1189588811
H   H40       1.0  0.62080  0.81360  0.92300  1.0000 0.1189588811
H   H41       1.0  0.64640  0.29010  0.81050  1.0000 0.1189588811
H   H42       1.0  0.35360  0.79010  0.68950  1.0000 0.1189588811
H   H43       1.0  0.95460  0.29000  0.82010  1.0000 0.1189588811
H   H44       1.0  0.04540  0.79000  0.67990  1.0000 0.1189588811
H   H45       1.0  0.12350  0.30790  0.92230  1.0000 0.1494287834
H   H46       1.0  0.87650  0.80790  0.57770  1.0000 0.1494287834
H   H47       1.0  0.22740  0.29630  0.05330  1.0000 0.1120699518
H   H48       1.0  0.77260  0.79630  0.44670  1.0000 0.1120699518
H   H49       1.0  0.98720  0.22720  0.14660  1.0000 0.1120699518
H   H50       1.0  0.01280  0.72720  0.35340  1.0000 0.1120699518
H   H51       1.0  0.87690  0.23490  0.01660  1.0000 0.1385840461
H   H52       1.0  0.12310  0.73490  0.48340  1.0000 0.1385840461
H   H53       1.0  0.42340  0.63110  0.68110  1.0000 0.1189588811
H   H54       1.0  0.57660  0.13110  0.81890  1.0000 0.1189588811
H   H55       1.0  0.32250  0.56720  0.73840  1.0000 0.1309870441
H   H56       1.0  0.67750  0.06720  0.76160  1.0000 0.1309870441
H   H57       1.0  0.46770  0.60180  0.97730  1.0000 0.1309870441
H   H58       1.0  0.53230  0.10180  0.52270  1.0000 0.1309870441
H   H59       1.0  0.57710  0.66220  0.91950  1.0000 0.1189588811
H   H60       1.0  0.42290  0.16220  0.58050  1.0000 0.1189588811
H   H61       1.0  0.20160  0.47390  0.93570  1.0000 0.1385840461
H   H62       1.0  0.79840  0.97390  0.56430  1.0000 0.1385840461
H   H63       1.0  0.23190  0.38620  0.93040  1.0000 0.1189588811
H   H64       1.0  0.76810  0.88620  0.56960  1.0000 0.1189588811
H   H65       1.0  0.51530  0.41060  0.83730  1.0000 0.1189588811
H   H66       1.0  0.48470  0.91060  0.66270  1.0000 0.1189588811
H   H67       1.0  0.48760  0.49820  0.84020  1.0000 0.1309870441
H   H68       1.0  0.51240  0.99820  0.65980  1.0000 0.1309870441
H   H69       1.0  0.84650  0.62330  0.50560  1.0000 0.1189588811
H   H70       1.0  0.15350  0.12330  0.99440  1.0000 0.1189588811
H   H71       1.0  0.98920  0.56750  0.48990  1.0000 0.1309870441
H   H72       1.0  0.01080  0.06750  0.01010  1.0000 0.1309870441
H   H73       1.0  0.15810  0.62000  0.71120  1.0000 0.1385840461
H   H74       1.0  0.84190  0.12000  0.78880  1.0000 0.1385840461
H   H75       1.0  0.01630  0.67810  0.72580  1.0000 0.1189588811
H   H76       1.0  0.98370  0.17810  0.77420  1.0000 0.1189588811
H   H77       1.0  0.31730  0.49160  0.58260  1.0000 0.1385840461
H   H78       1.0  0.68270  0.99160  0.91740  1.0000 0.1385840461
H   H79       1.0  0.32790  0.40800  0.63510  1.0000 0.1189588811
H   H80       1.0  0.67210  0.90800  0.86490  1.0000 0.1189588811
H   H81       1.0  0.04280  0.42630  0.73080  1.0000 0.1189588811
H   H82       1.0  0.95720  0.92630  0.76920  1.0000 0.1189588811
H   H83       1.0  0.02910  0.50930  0.67880  1.0000 0.1309870441
H   H84       1.0  0.97090  0.00930  0.82120  1.0000 0.1309870441
H   H85       1.0  0.38750  0.76330  0.51760  1.0000 0.1189588811
H   H86       1.0  0.61250  0.26330  0.98240  1.0000 0.1189588811
H   H87       1.0  0.27530  0.75850  0.38940  1.0000 0.1309870441
H   H88       1.0  0.72470  0.25850  0.11060  1.0000 0.1309870441
H   H89       1.0  0.51340  0.68010  0.29070  1.0000 0.1494287834
H   H90       1.0  0.48660  0.18010  0.20930  1.0000 0.1494287834
H   H91       1.0  0.62080  0.68640  0.42300  1.0000 0.1189588811
H   H92       1.0  0.37920  0.18640  0.07700  1.0000 0.1189588811
H   H93       1.0  0.35360  0.70990  0.18950  1.0000 0.1189588811
H   H94       1.0  0.64640  0.20990  0.31050  1.0000 0.1189588811
H   H95       1.0  0.04540  0.71000  0.17990  1.0000 0.1189588811
H   H96       1.0  0.95460  0.21000  0.32010  1.0000 0.1189588811
H   H97       1.0  0.87650  0.69210  0.07770  1.0000 0.1494287834
H   H98       1.0  0.12350  0.19210  0.42230  1.0000 0.1494287834
H   H99       1.0  0.77260  0.70370  0.94670  1.0000 0.1120699518
H   H100      1.0  0.22740  0.20370  0.55330  1.0000 0.1120699518
H   H101      1.0  0.01280  0.77280  0.85340  1.0000 0.1120699518
H   H102      1.0  0.98720  0.27280  0.64660  1.0000 0.1120699518
H   H103      1.0  0.12310  0.76510  0.98340  1.0000 0.1309870441
H   H104      1.0  0.87690  0.26510  0.51660  1.0000 0.1309870441
C   C1        1.0  0.42470  0.30780  0.24390  1.0000 0.5896205515
C   C2        1.0  0.57530  0.80780  0.25610  1.0000 0.5896205515
C   C3        1.0  0.49130  0.34660  0.20570  1.0000 -0.0530906651
C   C4        1.0  0.50870  0.84660  0.29430  1.0000 -0.0530906651
C   C5        1.0  0.56650  0.37510  0.25870  1.0000 -0.0781052004
C   C6        1.0  0.43350  0.87510  0.24130  1.0000 -0.0781052004
C   C7        1.0  0.62740  0.41260  0.22490  1.0000 -0.2010788672
C   C8        1.0  0.37260  0.91260  0.27510  1.0000 -0.2010788672
C   C9        1.0  0.61330  0.41990  0.13630  1.0000 0.2473259206
C   C10       1.0  0.38670  0.91990  0.36370  1.0000 0.2473259206
C   C11       1.0  0.54010  0.39260  0.08310  1.0000 -0.1903900425
C   C12       1.0  0.45990  0.89260  0.41690  1.0000 -0.1903900425
C   C13       1.0  0.47650  0.35620  0.11730  1.0000 -0.0781052004
C   C14       1.0  0.52350  0.85620  0.38270  1.0000 -0.0781052004
C   C15       1.0  0.65620  0.50620  0.11000  1.0000 0.2621345356
C   C16       1.0  0.34380  0.00620  0.39000  1.0000 0.2621345356
C   C17       1.0  0.73420  0.53900  0.08410  1.0000 -0.2119737748
C   C18       1.0  0.26580  0.03900  0.41590  1.0000 -0.2119737748
C   C19       1.0  0.71600  0.59100  0.08780  1.0000 -0.0781052004
C   C20       1.0  0.28400  0.09100  0.41220  1.0000 -0.0781052004
C   C21       1.0  0.62340  0.61010  0.11740  1.0000 -0.0586650511
C   C22       1.0  0.37660  0.11010  0.38260  1.0000 -0.0586650511
C   C23       1.0  0.54880  0.57650  0.14290  1.0000 -0.0781052004
C   C24       1.0  0.45120  0.07650  0.35710  1.0000 -0.0781052004
C   C25       1.0  0.56420  0.52440  0.14070  1.0000 -0.2279404305
C   C26       1.0  0.43580  0.02440  0.35930  1.0000 -0.2279404305
C   C27       1.0  0.60000  0.66540  0.11530  1.0000 0.5566481039
C   C28       1.0  0.40000  0.16540  0.38470  1.0000 0.5566481039
C   C29       1.0  0.17250  0.30860  0.37010  1.0000 0.5896205515
C   C30       1.0  0.82750  0.80860  0.12990  1.0000 0.5896205515
C   C31       1.0  0.08390  0.34460  0.38250  1.0000 -0.0586650511
C   C32       1.0  0.91610  0.84460  0.11750  1.0000 -0.0586650511
C   C33       1.0  0.09060  0.37730  0.45240  1.0000 -0.0781052004
C   C34       1.0  0.90940  0.87730  0.04760  1.0000 -0.0781052004
C   C35       1.0  0.00650  0.41070  0.46140  1.0000 -0.2010788672
C   C36       1.0  0.99350  0.91070  0.03860  1.0000 -0.2010788672
C   C37       1.0  0.91730  0.41220  0.40000  1.0000 0.2473259206
C   C38       1.0  0.08270  0.91220  0.10000  1.0000 0.2473259206
C   C39       1.0  0.90570  0.37920  0.32990  1.0000 -0.2010788672
C   C40       1.0  0.09430  0.87920  0.17010  1.0000 -0.2010788672
C   C41       1.0  0.98990  0.34490  0.32130  1.0000 -0.0781052004
C   C42       1.0  0.01010  0.84490  0.17870  1.0000 -0.0781052004
C   C43       1.0  0.82960  0.49290  0.37530  1.0000 0.2473259206
C   C44       1.0  0.17040  0.99290  0.12470  1.0000 0.2473259206
C   C45       1.0  0.73890  0.52190  0.38800  1.0000 -0.2201140835
C   C46       1.0  0.26110  0.02190  0.11200  1.0000 -0.2201140835
C   C47       1.0  0.73300  0.57150  0.35630  1.0000 -0.0781052004
C   C48       1.0  0.26700  0.07150  0.14370  1.0000 -0.0781052004
C   C49       1.0  0.81420  0.59180  0.31220  1.0000 -0.0586650511
C   C50       1.0  0.18580  0.09180  0.18780  1.0000 -0.0586650511
C   C51       1.0  0.90170  0.56070  0.29980  1.0000 -0.0781052004
C   C52       1.0  0.09830  0.06070  0.20020  1.0000 -0.0781052004
C   C53       1.0  0.91050  0.51130  0.33060  1.0000 -0.2352597654
C   C54       1.0  0.08950  0.01130  0.16940  1.0000 -0.2352597654
C   C55       1.0  0.81240  0.64610  0.28640  1.0000 0.5406520501
C   C56       1.0  0.18760  0.14610  0.21360  1.0000 0.5406520501
C   C57       1.0  0.58680  0.25360  0.52940  1.0000 0.0780134671
C   C58       1.0  0.41320  0.75360  0.97060  1.0000 0.0780134671
C   C59       1.0  0.65320  0.25550  0.60520  1.0000 -0.1707508156
C   C60       1.0  0.34680  0.75550  0.89480  1.0000 -0.1707508156
C   C61       1.0  0.61430  0.27820  0.67450  1.0000 0.1309870441
C   C62       1.0  0.38570  0.77820  0.82550  1.0000 0.1189588811
C   C63       1.0  0.51210  0.30190  0.66330  1.0000 -0.1609585448
C   C64       1.0  0.48790  0.80190  0.83670  1.0000 -0.1609585448
C   C65       1.0  0.44980  0.29850  0.58440  1.0000 0.092518656
C   C66       1.0  0.55020  0.79850  0.91560  1.0000 0.092518656
C   C67       1.0  0.67870  0.27880  0.76210  1.0000 0.0399369792
C   C68       1.0  0.32130  0.77880  0.73790  1.0000 0.0399369792
C   C69       1.0  0.92270  0.27630  0.86710  1.0000 0.0399369792
C   C70       1.0  0.07730  0.77630  0.63290  1.0000 0.0399369792
C   C71       1.0  0.98590  0.27200  0.95250  1.0000 0.1189588811
C   C72       1.0  0.01410  0.77200  0.54750  1.0000 0.1189588811
C   C73       1.0  0.09350  0.29050  0.96690  1.0000 -0.1707508156
C   C74       1.0  0.90650  0.79050  0.53310  1.0000 -0.1707508156
C   C75       1.0  0.15500  0.28330  0.04530  1.0000 0.0982673824
C   C76       1.0  0.84500  0.78330  0.45470  1.0000 0.0982673824
C   C77       1.0  0.01570  0.24290  0.09970  1.0000 0.0780134671
C   C78       1.0  0.98430  0.74290  0.40030  1.0000 0.0780134671
C   C79       1.0  0.94920  0.24800  0.02230  1.0000 -0.1707508156
C   C80       1.0  0.05080  0.74800  0.47770  1.0000 -0.1707508156
C   C81       1.0  0.57530  0.69220  0.75610  1.0000 0.5896205515
C   C82       1.0  0.42470  0.19220  0.74390  1.0000 0.5896205515
C   C83       1.0  0.50870  0.65340  0.79430  1.0000 -0.0530906651
C   C84       1.0  0.49130  0.15340  0.70570  1.0000 -0.0530906651
C   C85       1.0  0.43350  0.62490  0.74130  1.0000 -0.0781052004
C   C86       1.0  0.56650  0.12490  0.75870  1.0000 -0.0781052004
C   C87       1.0  0.37260  0.58740  0.77510  1.0000 -0.2010788672
C   C88       1.0  0.62740  0.08740  0.72490  1.0000 -0.2010788672
C   C89       1.0  0.38670  0.58010  0.86370  1.0000 0.2473259206
C   C90       1.0  0.61330  0.08010  0.63630  1.0000 0.2473259206
C   C91       1.0  0.45990  0.60740  0.91690  1.0000 -0.1903900425
C   C92       1.0  0.54010  0.10740  0.58310  1.0000 -0.1903900425
C   C93       1.0  0.52350  0.64380  0.88270  1.0000 -0.0781052004
C   C94       1.0  0.47650  0.14380  0.61730  1.0000 -0.0781052004
C   C95       1.0  0.34380  0.49380  0.89000  1.0000 0.2621345356
C   C96       1.0  0.65620  0.99380  0.61000  1.0000 0.2621345356
C   C97       1.0  0.26580  0.46100  0.91590  1.0000 -0.2119737748
C   C98       1.0  0.73420  0.96100  0.58410  1.0000 -0.2119737748
C   C99       1.0  0.28400  0.40900  0.91220  1.0000 -0.0781052004
C   C100      1.0  0.71600  0.90900  0.58780  1.0000 -0.0781052004
C   C101      1.0  0.37660  0.38990  0.88260  1.0000 -0.0586650511
C   C102      1.0  0.62340  0.88990  0.61740  1.0000 -0.0586650511
C   C103      1.0  0.45120  0.42350  0.85710  1.0000 -0.0781052004
C   C104      1.0  0.54880  0.92350  0.64290  1.0000 -0.0781052004
C   C105      1.0  0.43580  0.47560  0.85930  1.0000 -0.2279404305
C   C106      1.0  0.56420  0.97560  0.64070  1.0000 -0.2279404305
C   C107      1.0  0.40000  0.33460  0.88470  1.0000 0.5566481039
C   C108      1.0  0.60000  0.83460  0.61530  1.0000 0.5566481039
C   C109      1.0  0.82750  0.69140  0.62990  1.0000 0.5896205515
C   C110      1.0  0.17250  0.19140  0.87010  1.0000 0.5896205515
C   C111      1.0  0.91610  0.65540  0.61750  1.0000 -0.0586650511
C   C112      1.0  0.08390  0.15540  0.88250  1.0000 -0.0586650511
C   C113      1.0  0.90940  0.62270  0.54760  1.0000 -0.0781052004
C   C114      1.0  0.09060  0.12270  0.95240  1.0000 -0.0781052004
C   C115      1.0  0.99350  0.58930  0.53860  1.0000 -0.2010788672
C   C116      1.0  0.00650  0.08930  0.96140  1.0000 -0.2010788672
C   C117      1.0  0.08270  0.58780  0.60000  1.0000 0.2473259206
C   C118      1.0  0.91730  0.08780  0.90000  1.0000 0.2473259206
C   C119      1.0  0.09430  0.62080  0.67010  1.0000 -0.2010788672
C   C120      1.0  0.90570  0.12080  0.82990  1.0000 -0.2010788672
C   C121      1.0  0.01010  0.65510  0.67870  1.0000 -0.0781052004
C   C122      1.0  0.98990  0.15510  0.82130  1.0000 -0.0781052004
C   C123      1.0  0.17040  0.50710  0.62470  1.0000 0.2473259206
C   C124      1.0  0.82960  0.00710  0.87530  1.0000 0.2473259206
C   C125      1.0  0.26110  0.47810  0.61200  1.0000 -0.2201140835
C   C126      1.0  0.73890  0.97810  0.88800  1.0000 -0.2201140835
C   C127      1.0  0.26700  0.42850  0.64370  1.0000 -0.0781052004
C   C128      1.0  0.73300  0.92850  0.85630  1.0000 -0.0781052004
C   C129      1.0  0.18580  0.40820  0.68780  1.0000 -0.0586650511
C   C130      1.0  0.81420  0.90820  0.81220  1.0000 -0.0586650511
C   C131      1.0  0.09830  0.43930  0.70020  1.0000 -0.0781052004
C   C132      1.0  0.90170  0.93930  0.79980  1.0000 -0.0781052004
C   C133      1.0  0.08950  0.48870  0.66940  1.0000 -0.2352597654
C   C134      1.0  0.91050  0.98870  0.83060  1.0000 -0.2352597654
C   C135      1.0  0.18760  0.35390  0.71360  1.0000 0.5406520501
C   C136      1.0  0.81240  0.85390  0.78640  1.0000 0.5406520501
C   C137      1.0  0.41320  0.74640  0.47060  1.0000 0.0780134671
C   C138      1.0  0.58680  0.24640  0.02940  1.0000 0.0780134671
C   C139      1.0  0.34680  0.74450  0.39480  1.0000 -0.1707508156
C   C140      1.0  0.65320  0.24450  0.10520  1.0000 -0.1707508156
C   C141      1.0  0.38570  0.72180  0.32550  1.0000 0.1309870441
C   C142      1.0  0.61430  0.22180  0.17450  1.0000 0.1309870441
C   C143      1.0  0.48790  0.69810  0.33670  1.0000 -0.1609585448
C   C144      1.0  0.51210  0.19810  0.16330  1.0000 -0.1609585448
C   C145      1.0  0.55020  0.70150  0.41560  1.0000 0.092518656
C   C146      1.0  0.44980  0.20150  0.08440  1.0000 0.092518656
C   C147      1.0  0.32130  0.72120  0.23790  1.0000 0.0399369792
C   C148      1.0  0.67870  0.22120  0.26210  1.0000 0.0399369792
C   C149      1.0  0.07730  0.72370  0.13290  1.0000 0.0399369792
C   C150      1.0  0.92270  0.22370  0.36710  1.0000 0.0399369792
C   C151      1.0  0.01410  0.72800  0.04750  1.0000 0.1189588811
C   C152      1.0  0.98590  0.22800  0.45250  1.0000 0.1189588811
C   C153      1.0  0.90650  0.70950  0.03310  1.0000 -0.1707508156
C   C154      1.0  0.09350  0.20950  0.46690  1.0000 -0.1707508156
C   C155      1.0  0.84500  0.71670  0.95470  1.0000 0.0982673824
C   C156      1.0  0.15500  0.21670  0.54530  1.0000 0.0982673824
C   C157      1.0  0.98430  0.75710  0.90030  1.0000 0.0780134671
C   C158      1.0  0.01570  0.25710  0.59970  1.0000 0.0780134671
C   C159      1.0  0.05080  0.75200  0.97770  1.0000 -0.1707508156
C   C160      1.0  0.94920  0.25200  0.52230  1.0000 -0.1707508156
N   N1        1.0  0.48510  0.27460  0.51670  1.0000 -0.2452971726
N   N2        1.0  0.51490  0.77460  0.98330  1.0000 -0.2452971726
N   N3        1.0  0.77900  0.26360  0.77110  1.0000 -0.1903900425
N   N4        1.0  0.22100  0.76360  0.72890  1.0000 -0.1903900425
N   N5        1.0  0.82560  0.26170  0.85740  1.0000 -0.1773045078
N   N6        1.0  0.17440  0.76170  0.64260  1.0000 -0.1773045078
N   N7        1.0  0.11960  0.25945  0.11080  1.0000 -0.2279404305
N   N8        1.0  0.88040  0.75945  0.38920  1.0000 -0.2279404305
N   N9        1.0  0.51490  0.72540  0.48330  1.0000 -0.2452971726
N   N10       1.0  0.48510  0.22540  0.01670  1.0000 -0.2452971726
N   N11       1.0  0.22100  0.73640  0.22890  1.0000 -0.1903900425
N   N12       1.0  0.77900  0.23640  0.27110  1.0000 -0.1903900425
N   N13       1.0  0.17440  0.73830  0.14260  1.0000 -0.1773045078
N   N14       1.0  0.82560  0.23830  0.35740  1.0000 -0.1773045078
N   N15       1.0  0.88040  0.74055  0.88920  1.0000 -0.2279404305
N   N16       1.0  0.11960  0.24055  0.61080  1.0000 -0.2279404305
O   O1        1.0  0.45430  0.29750  0.32190  1.0000 -0.5361447597
O   O2        1.0  0.54570  0.79750  0.17810  1.0000 -0.5361447597
O   O3        1.0  0.34390  0.28881  0.19740  1.0000 -0.5512031481
O   O4        1.0  0.65610  0.78881  0.30260  1.0000 -0.5512031481
O   O5        1.0  0.67820  0.45522  0.10080  1.0000 -0.2119737748
O   O6        1.0  0.32180  0.95522  0.39920  1.0000 -0.2119737748
O   O7        1.0  0.50800  0.68171  0.12570  1.0000 -0.5512031481
O   O8        1.0  0.49200  0.18171  0.37430  1.0000 -0.5512031481
O   O9        1.0  0.67770  0.69478  0.09830  1.0000 -0.5734217032
O   O10       1.0  0.32230  0.19478  0.40170  1.0000 -0.5734217032
O   O11       1.0  0.25990  0.30981  0.42220  1.0000 -0.5361447597
O   O12       1.0  0.74010  0.80981  0.07780  1.0000 -0.5361447597
O   O13       1.0  0.15460  0.27811  0.30710  1.0000 -0.5604060754
O   O14       1.0  0.84540  0.77811  0.19290  1.0000 -0.5604060754
O   O15       1.0  0.82950  0.44400  0.41010  1.0000 -0.2279404305
O   O16       1.0  0.17050  0.94400  0.08990  1.0000 -0.2279404305
O   O17       1.0  0.88950  0.66568  0.25580  1.0000 -0.5361447597
O   O18       1.0  0.11050  0.16568  0.24420  1.0000 -0.5361447597
O   O19       1.0  0.72790  0.67233  0.30100  1.0000 -0.5604060754
O   O20       1.0  0.27210  0.17233  0.19900  1.0000 -0.5604060754
O   O21       1.0  0.54570  0.70250  0.67810  1.0000 -0.5361447597
O   O22       1.0  0.45430  0.20250  0.82190  1.0000 -0.5361447597
O   O23       1.0  0.65610  0.71119  0.80260  1.0000 -0.5512031481
O   O24       1.0  0.34390  0.21119  0.69740  1.0000 -0.5512031481
O   O25       1.0  0.32180  0.54478  0.89920  1.0000 -0.2119737748
O   O26       1.0  0.67820  0.04478  0.60080  1.0000 -0.2119737748
O   O27       1.0  0.49200  0.31829  0.87430  1.0000 -0.5512031481
O   O28       1.0  0.50800  0.81829  0.62570  1.0000 -0.5512031481
O   O29       1.0  0.32230  0.30522  0.90170  1.0000 -0.5734217032
O   O30       1.0  0.67770  0.80522  0.59830  1.0000 -0.5734217032
O   O31       1.0  0.74010  0.69019  0.57780  1.0000 -0.5361447597
O   O32       1.0  0.25990  0.19019  0.92220  1.0000 -0.5361447597
O   O33       1.0  0.84540  0.72189  0.69290  1.0000 -0.5604060754
O   O34       1.0  0.15460  0.22189  0.80710  1.0000 -0.5604060754
O   O35       1.0  0.17050  0.55600  0.58990  1.0000 -0.2279404305
O   O36       1.0  0.82950  0.05600  0.91010  1.0000 -0.2279404305
O   O37       1.0  0.11050  0.33432  0.74420  1.0000 -0.5361447597
O   O38       1.0  0.88950  0.83432  0.75580  1.0000 -0.5361447597
O   O39       1.0  0.27210  0.32767  0.69900  1.0000 -0.5604060754
O   O40       1.0  0.72790  0.82767  0.80100  1.0000 -0.5604060754
