# DDEC6 charges by PACMAN v1.1 (https://github.com/mtap-research/PACMAN-charge/)
data_2014[Zn][srs]3[ASR]4
_chemical_formula_sum              "Zn24 H192 C288 I48 N96"
_cell_length_a       13.7981
_cell_length_b       27.6775
_cell_length_c       44.3415
_cell_angle_alpha    90
_cell_angle_beta     90
_cell_angle_gamma    90

_symmetry_space_group_name_H-M    "P 1"
_symmetry_Int_Tables_number       1

loop_
  _symmetry_equiv_pos_as_xyz
  'x, y, z'

loop_
  _atom_site_type_symbol
  _atom_site_label
  _atom_site_symmetry_multiplicity
  _atom_site_fract_x
  _atom_site_fract_y
  _atom_site_fract_z
  _atom_site_occupancy
  _atom_site_charge
Zn  Zn1       1.0  0.63000  0.02085  0.41705  1.0000 0.4337058338
Zn  Zn2       1.0  0.37000  0.47915  0.91705  1.0000 0.4337058338
Zn  Zn3       1.0  0.87000  0.52085  0.58295  1.0000 0.4337058338
Zn  Zn4       1.0  0.13000  0.97915  0.08295  1.0000 0.4337058338
Zn  Zn5       1.0  0.65692  0.54634  0.41672  1.0000 0.4047445013
Zn  Zn6       1.0  0.34308  0.95366  0.91672  1.0000 0.4047445013
Zn  Zn7       1.0  0.84308  0.04634  0.58328  1.0000 0.4056963577
Zn  Zn8       1.0  0.15692  0.45366  0.08328  1.0000 0.4047445013
Zn  Zn9       1.0  0.65741  0.74792  0.67914  1.0000 0.4337058338
Zn  Zn10      1.0  0.34259  0.75208  0.17914  1.0000 0.4337058338
Zn  Zn11      1.0  0.84259  0.24792  0.32086  1.0000 0.4337058338
Zn  Zn12      1.0  0.15741  0.25208  0.82086  1.0000 0.4337058338
Zn  Zn13      1.0  0.37000  0.97915  0.58295  1.0000 0.4337058338
Zn  Zn14      1.0  0.63000  0.52085  0.08295  1.0000 0.4337058338
Zn  Zn15      1.0  0.13000  0.47915  0.41705  1.0000 0.4337058338
Zn  Zn16      1.0  0.87000  0.02085  0.91705  1.0000 0.4337058338
Zn  Zn17      1.0  0.34308  0.45366  0.58328  1.0000 0.4047445013
Zn  Zn18      1.0  0.65692  0.04634  0.08328  1.0000 0.4047445013
Zn  Zn19      1.0  0.15692  0.95366  0.41672  1.0000 0.4047445013
Zn  Zn20      1.0  0.84308  0.54634  0.91672  1.0000 0.4056963577
Zn  Zn21      1.0  0.34259  0.25208  0.32086  1.0000 0.4337058338
Zn  Zn22      1.0  0.65741  0.24792  0.82086  1.0000 0.4337058338
Zn  Zn23      1.0  0.15741  0.75208  0.67914  1.0000 0.4337058338
Zn  Zn24      1.0  0.84259  0.74792  0.17914  1.0000 0.4337058338
H   H1        1.0  0.54020  0.65050  0.33333  1.0000 0.1322527487
H   H2        1.0  0.45980  0.84950  0.83333  1.0000 0.1322527487
H   H3        1.0  0.95980  0.15050  0.66667  1.0000 0.1322527487
H   H4        1.0  0.04020  0.34950  0.16667  1.0000 0.1322527487
H   H5        1.0  0.60300  0.72490  0.41090  1.0000 0.1404046023
H   H6        1.0  0.39700  0.77510  0.91090  1.0000 0.1404046023
H   H7        1.0  0.89700  0.22490  0.58910  1.0000 0.1404046023
H   H8        1.0  0.10300  0.27510  0.08910  1.0000 0.1404046023
H   H9        1.0  0.62710  0.59040  0.52540  1.0000 0.1404046023
H   H10       1.0  0.37290  0.90960  0.02540  1.0000 0.1404046023
H   H11       1.0  0.87290  0.09040  0.47460  1.0000 0.1404046023
H   H12       1.0  0.12710  0.40960  0.97460  1.0000 0.1404046023
H   H13       1.0  0.01100  0.53110  0.53300  1.0000 0.1013516633
H   H14       1.0  0.98900  0.96890  0.03300  1.0000 0.1013516633
H   H15       1.0  0.48900  0.03110  0.46700  1.0000 0.1013516633
H   H16       1.0  0.51100  0.46890  0.96700  1.0000 0.1013516633
H   H17       1.0  0.60550  0.91370  0.43050  1.0000 0.1197685628
H   H18       1.0  0.39450  0.58630  0.93050  1.0000 0.1197685628
H   H19       1.0  0.89450  0.41370  0.56950  1.0000 0.1197685628
H   H20       1.0  0.10550  0.08630  0.06950  1.0000 0.1197685628
H   H21       1.0  0.58780  0.84350  0.40780  1.0000 0.1322527487
H   H22       1.0  0.41220  0.65650  0.90780  1.0000 0.1322527487
H   H23       1.0  0.91220  0.34350  0.59220  1.0000 0.1322527487
H   H24       1.0  0.08780  0.15650  0.09220  1.0000 0.1322527487
H   H25       1.0  0.70140  0.56700  0.48150  1.0000 0.1013516633
H   H26       1.0  0.29860  0.93300  0.98150  1.0000 0.1013516633
H   H27       1.0  0.79860  0.06700  0.51850  1.0000 0.1013516633
H   H28       1.0  0.20140  0.43300  0.01850  1.0000 0.1013516633
H   H29       1.0  0.46160  0.52970  0.44260  1.0000 0.1013516633
H   H30       1.0  0.53840  0.97030  0.94260  1.0000 0.1013516633
H   H31       1.0  0.03840  0.02970  0.55740  1.0000 0.1013516633
H   H32       1.0  0.96160  0.47030  0.05740  1.0000 0.1013516633
H   H33       1.0  0.57610  0.58130  0.35930  1.0000 0.1013516633
H   H34       1.0  0.42390  0.91870  0.85930  1.0000 0.1013516633
H   H35       1.0  0.92390  0.08130  0.64070  1.0000 0.1013516633
H   H36       1.0  0.07610  0.41870  0.14070  1.0000 0.1013516633
H   H37       1.0  0.63930  0.65040  0.43190  1.0000 0.1013516633
H   H38       1.0  0.36070  0.84960  0.93190  1.0000 0.1013516633
H   H39       1.0  0.86070  0.15040  0.56810  1.0000 0.1013516633
H   H40       1.0  0.13930  0.34960  0.06810  1.0000 0.1013516633
H   H41       1.0  0.17550  0.55360  0.52390  1.0000 0.1197685628
H   H42       1.0  0.82450  0.94640  0.02390  1.0000 0.1197685628
H   H43       1.0  0.32450  0.05360  0.47610  1.0000 0.1197685628
H   H44       1.0  0.67550  0.44640  0.97610  1.0000 0.1197685628
H   H45       1.0  0.36600  0.68360  0.62650  1.0000 0.1404046023
H   H46       1.0  0.63400  0.81640  0.12650  1.0000 0.1404046023
H   H47       1.0  0.13400  0.18360  0.37350  1.0000 0.1404046023
H   H48       1.0  0.86600  0.31640  0.87350  1.0000 0.1404046023
H   H49       1.0  0.69630  0.66790  0.63320  1.0000 0.1092095432
H   H50       1.0  0.30370  0.83210  0.13320  1.0000 0.1092095432
H   H51       1.0  0.80370  0.16790  0.36680  1.0000 0.1092095432
H   H52       1.0  0.19630  0.33210  0.86680  1.0000 0.1092095432
H   H53       1.0  0.37280  0.55200  0.48550  1.0000 0.1322527487
H   H54       1.0  0.62720  0.94800  0.98550  1.0000 0.1322527487
H   H55       1.0  0.12720  0.05200  0.51450  1.0000 0.1322527487
H   H56       1.0  0.87280  0.44800  0.01450  1.0000 0.1322527487
H   H57       1.0  0.61690  0.63290  0.59520  1.0000 0.1322527487
H   H58       1.0  0.38310  0.86710  0.09520  1.0000 0.1322527487
H   H59       1.0  0.88310  0.13290  0.40480  1.0000 0.1322527487
H   H60       1.0  0.11690  0.36710  0.90480  1.0000 0.1322527487
H   H61       1.0  0.17500  0.60950  0.60900  1.0000 0.1322527487
H   H62       1.0  0.82500  0.89050  0.10900  1.0000 0.1322527487
H   H63       1.0  0.32500  0.10950  0.39100  1.0000 0.1322527487
H   H64       1.0  0.67500  0.39050  0.89100  1.0000 0.1322527487
H   H65       1.0  0.01420  0.57990  0.61550  1.0000 0.1013516633
H   H66       1.0  0.98580  0.92010  0.11550  1.0000 0.1013516633
H   H67       1.0  0.48580  0.07990  0.38450  1.0000 0.1013516633
H   H68       1.0  0.51420  0.42010  0.88450  1.0000 0.1013516633
H   H69       1.0  0.45500  0.71970  0.66580  1.0000 0.1013516633
H   H70       1.0  0.54500  0.78030  0.16580  1.0000 0.1013516633
H   H71       1.0  0.04500  0.21970  0.33420  1.0000 0.1013516633
H   H72       1.0  0.95500  0.28030  0.83420  1.0000 0.1013516633
H   H73       1.0  0.50800  0.70180  0.27280  1.0000 0.1322527487
H   H74       1.0  0.49200  0.79820  0.77280  1.0000 0.1322527487
H   H75       1.0  0.99200  0.20180  0.72720  1.0000 0.1322527487
H   H76       1.0  0.00800  0.29820  0.22720  1.0000 0.1322527487
H   H77       1.0  0.57110  0.98750  0.35480  1.0000 0.1092095432
H   H78       1.0  0.42890  0.51250  0.85480  1.0000 0.1092095432
H   H79       1.0  0.92890  0.48750  0.64520  1.0000 0.1092095432
H   H80       1.0  0.07110  0.01250  0.14520  1.0000 0.1092095432
H   H81       1.0  0.45850  0.84570  0.26800  1.0000 0.1322527487
H   H82       1.0  0.54150  0.65430  0.76800  1.0000 0.1322527487
H   H83       1.0  0.04150  0.34570  0.73200  1.0000 0.1322527487
H   H84       1.0  0.95850  0.15430  0.23200  1.0000 0.1322527487
H   H85       1.0  0.54800  0.91570  0.32840  1.0000 0.1322527487
H   H86       1.0  0.45200  0.58430  0.82840  1.0000 0.1322527487
H   H87       1.0  0.95200  0.41570  0.67160  1.0000 0.1322527487
H   H88       1.0  0.04800  0.08430  0.17160  1.0000 0.1322527487
H   H89       1.0  0.39910  0.83380  0.21920  1.0000 0.1092095432
H   H90       1.0  0.60090  0.66620  0.71920  1.0000 0.1092095432
H   H91       1.0  0.10090  0.33380  0.78080  1.0000 0.1092095432
H   H92       1.0  0.89910  0.16620  0.28080  1.0000 0.1092095432
H   H93       1.0  0.45410  0.69420  0.22450  1.0000 0.1092095432
H   H94       1.0  0.54590  0.80580  0.72450  1.0000 0.1092095432
H   H95       1.0  0.04590  0.19420  0.77550  1.0000 0.1092095432
H   H96       1.0  0.95410  0.30580  0.27550  1.0000 0.1092095432
H   H97       1.0  0.45980  0.34950  0.66667  1.0000 0.1322527487
H   H98       1.0  0.54020  0.15050  0.16667  1.0000 0.1322527487
H   H99       1.0  0.04020  0.84950  0.33333  1.0000 0.1322527487
H   H100      1.0  0.95980  0.65050  0.83333  1.0000 0.1322527487
H   H101      1.0  0.39700  0.27510  0.58910  1.0000 0.1404046023
H   H102      1.0  0.60300  0.22490  0.08910  1.0000 0.1404046023
H   H103      1.0  0.10300  0.77510  0.41090  1.0000 0.1404046023
H   H104      1.0  0.89700  0.72490  0.91090  1.0000 0.1404046023
H   H105      1.0  0.37290  0.40960  0.47460  1.0000 0.1404046023
H   H106      1.0  0.62710  0.09040  0.97460  1.0000 0.1404046023
H   H107      1.0  0.12710  0.90960  0.52540  1.0000 0.1404046023
H   H108      1.0  0.87290  0.59040  0.02540  1.0000 0.1404046023
H   H109      1.0  0.98900  0.46890  0.46700  1.0000 0.1013516633
H   H110      1.0  0.01100  0.03110  0.96700  1.0000 0.1013516633
H   H111      1.0  0.51100  0.96890  0.53300  1.0000 0.1013516633
H   H112      1.0  0.48900  0.53110  0.03300  1.0000 0.1013516633
H   H113      1.0  0.39450  0.08630  0.56950  1.0000 0.1197685628
H   H114      1.0  0.60550  0.41370  0.06950  1.0000 0.1197685628
H   H115      1.0  0.10550  0.58630  0.43050  1.0000 0.1197685628
H   H116      1.0  0.89450  0.91370  0.93050  1.0000 0.1197685628
H   H117      1.0  0.41220  0.15650  0.59220  1.0000 0.1322527487
H   H118      1.0  0.58780  0.34350  0.09220  1.0000 0.1322527487
H   H119      1.0  0.08780  0.65650  0.40780  1.0000 0.1322527487
H   H120      1.0  0.91220  0.84350  0.90780  1.0000 0.1322527487
H   H121      1.0  0.29860  0.43300  0.51850  1.0000 0.1013516633
H   H122      1.0  0.70140  0.06700  0.01850  1.0000 0.1013516633
H   H123      1.0  0.20140  0.93300  0.48150  1.0000 0.1013516633
H   H124      1.0  0.79860  0.56700  0.98150  1.0000 0.1013516633
H   H125      1.0  0.53840  0.47030  0.55740  1.0000 0.1013516633
H   H126      1.0  0.46160  0.02970  0.05740  1.0000 0.1013516633
H   H127      1.0  0.96160  0.97030  0.44260  1.0000 0.1013516633
H   H128      1.0  0.03840  0.52970  0.94260  1.0000 0.1013516633
H   H129      1.0  0.42390  0.41870  0.64070  1.0000 0.1013516633
H   H130      1.0  0.57610  0.08130  0.14070  1.0000 0.1013516633
H   H131      1.0  0.07610  0.91870  0.35930  1.0000 0.1013516633
H   H132      1.0  0.92390  0.58130  0.85930  1.0000 0.1013516633
H   H133      1.0  0.36070  0.34960  0.56810  1.0000 0.1013516633
H   H134      1.0  0.63930  0.15040  0.06810  1.0000 0.1013516633
H   H135      1.0  0.13930  0.84960  0.43190  1.0000 0.1013516633
H   H136      1.0  0.86070  0.65040  0.93190  1.0000 0.1013516633
H   H137      1.0  0.82450  0.44640  0.47610  1.0000 0.1197685628
H   H138      1.0  0.17550  0.05360  0.97610  1.0000 0.1197685628
H   H139      1.0  0.67550  0.94640  0.52390  1.0000 0.1197685628
H   H140      1.0  0.32450  0.55360  0.02390  1.0000 0.1197685628
H   H141      1.0  0.63400  0.31640  0.37350  1.0000 0.1404046023
H   H142      1.0  0.36600  0.18360  0.87350  1.0000 0.1404046023
H   H143      1.0  0.86600  0.81640  0.62650  1.0000 0.1404046023
H   H144      1.0  0.13400  0.68360  0.12650  1.0000 0.1404046023
H   H145      1.0  0.30370  0.33210  0.36680  1.0000 0.1092095432
H   H146      1.0  0.69630  0.16790  0.86680  1.0000 0.1092095432
H   H147      1.0  0.19630  0.83210  0.63320  1.0000 0.1092095432
H   H148      1.0  0.80370  0.66790  0.13320  1.0000 0.1092095432
H   H149      1.0  0.62720  0.44800  0.51450  1.0000 0.1322527487
H   H150      1.0  0.37280  0.05200  0.01450  1.0000 0.1322527487
H   H151      1.0  0.87280  0.94800  0.48550  1.0000 0.1322527487
H   H152      1.0  0.12720  0.55200  0.98550  1.0000 0.1322527487
H   H153      1.0  0.38310  0.36710  0.40480  1.0000 0.1322527487
H   H154      1.0  0.61690  0.13290  0.90480  1.0000 0.1322527487
H   H155      1.0  0.11690  0.86710  0.59520  1.0000 0.1322527487
H   H156      1.0  0.88310  0.63290  0.09520  1.0000 0.1322527487
H   H157      1.0  0.82500  0.39050  0.39100  1.0000 0.1322527487
H   H158      1.0  0.17500  0.10950  0.89100  1.0000 0.1322527487
H   H159      1.0  0.67500  0.89050  0.60900  1.0000 0.1322527487
H   H160      1.0  0.32500  0.60950  0.10900  1.0000 0.1322527487
H   H161      1.0  0.98580  0.42010  0.38450  1.0000 0.1013516633
H   H162      1.0  0.01420  0.07990  0.88450  1.0000 0.1013516633
H   H163      1.0  0.51420  0.92010  0.61550  1.0000 0.1013516633
H   H164      1.0  0.48580  0.57990  0.11550  1.0000 0.1013516633
H   H165      1.0  0.54500  0.28030  0.33420  1.0000 0.1013516633
H   H166      1.0  0.45500  0.21970  0.83420  1.0000 0.1013516633
H   H167      1.0  0.95500  0.78030  0.66580  1.0000 0.1013516633
H   H168      1.0  0.04500  0.71970  0.16580  1.0000 0.1013516633
H   H169      1.0  0.49200  0.29820  0.72720  1.0000 0.1322527487
H   H170      1.0  0.50800  0.20180  0.22720  1.0000 0.1322527487
H   H171      1.0  0.00800  0.79820  0.27280  1.0000 0.1322527487
H   H172      1.0  0.99200  0.70180  0.77280  1.0000 0.1322527487
H   H173      1.0  0.42890  0.01250  0.64520  1.0000 0.1092095432
H   H174      1.0  0.57110  0.48750  0.14520  1.0000 0.1092095432
H   H175      1.0  0.07110  0.51250  0.35480  1.0000 0.1092095432
H   H176      1.0  0.92890  0.98750  0.85480  1.0000 0.1092095432
H   H177      1.0  0.54150  0.15430  0.73200  1.0000 0.1322527487
H   H178      1.0  0.45850  0.34570  0.23200  1.0000 0.1322527487
H   H179      1.0  0.95850  0.65430  0.26800  1.0000 0.1322527487
H   H180      1.0  0.04150  0.84570  0.76800  1.0000 0.1322527487
H   H181      1.0  0.45200  0.08430  0.67160  1.0000 0.1322527487
H   H182      1.0  0.54800  0.41570  0.17160  1.0000 0.1322527487
H   H183      1.0  0.04800  0.58430  0.32840  1.0000 0.1322527487
H   H184      1.0  0.95200  0.91570  0.82840  1.0000 0.1322527487
H   H185      1.0  0.60090  0.16620  0.78080  1.0000 0.1092095432
H   H186      1.0  0.39910  0.33380  0.28080  1.0000 0.1092095432
H   H187      1.0  0.89910  0.66620  0.21920  1.0000 0.1092095432
H   H188      1.0  0.10090  0.83380  0.71920  1.0000 0.1092095432
H   H189      1.0  0.54590  0.30580  0.77550  1.0000 0.1092095432
H   H190      1.0  0.45410  0.19420  0.27550  1.0000 0.1092095432
H   H191      1.0  0.95410  0.80580  0.22450  1.0000 0.1092095432
H   H192      1.0  0.04590  0.69420  0.72450  1.0000 0.1092095432
C   C1        1.0  0.43420  0.58880  0.53770  1.0000 0.362931124
C   C2        1.0  0.56580  0.91120  0.03770  1.0000 0.362931124
C   C3        1.0  0.06580  0.08880  0.46230  1.0000 0.362931124
C   C4        1.0  0.93420  0.41120  0.96230  1.0000 0.362931124
C   C5        1.0  0.55530  0.74210  0.35180  1.0000 0.3461503192
C   C6        1.0  0.44470  0.75790  0.85180  1.0000 0.3461503192
C   C7        1.0  0.94470  0.24210  0.64820  1.0000 0.3461503192
C   C8        1.0  0.05530  0.25790  0.14820  1.0000 0.3461503192
C   C9        1.0  0.55190  0.82330  0.34950  1.0000 0.362931124
C   C10       1.0  0.44810  0.67670  0.84950  1.0000 0.362931124
C   C11       1.0  0.94810  0.32330  0.65050  1.0000 0.362931124
C   C12       1.0  0.05190  0.17670  0.15050  1.0000 0.362931124
C   C13       1.0  0.51970  0.77880  0.30790  1.0000 0.370224177
C   C14       1.0  0.48030  0.72120  0.80790  1.0000 0.370224177
C   C15       1.0  0.98030  0.27880  0.69210  1.0000 0.370224177
C   C16       1.0  0.01970  0.22120  0.19210  1.0000 0.370224177
C   C17       1.0  0.56130  0.65230  0.35360  1.0000 -0.1587971765
C   C18       1.0  0.43870  0.84770  0.85360  1.0000 -0.1587971765
C   C19       1.0  0.93870  0.15230  0.64640  1.0000 -0.1587971765
C   C20       1.0  0.06130  0.34770  0.14640  1.0000 -0.1587971765
C   C21       1.0  0.59860  0.69620  0.39920  1.0000 -0.182654381
C   C22       1.0  0.40140  0.80380  0.89920  1.0000 -0.182654381
C   C23       1.0  0.90140  0.19620  0.60080  1.0000 -0.182654381
C   C24       1.0  0.09860  0.30380  0.10080  1.0000 -0.182654381
C   C25       1.0  0.48840  0.57170  0.50970  1.0000 0.0605083879
C   C26       1.0  0.51160  0.92830  0.00970  1.0000 0.0605083879
C   C27       1.0  0.01160  0.07170  0.49030  1.0000 0.0605083879
C   C28       1.0  0.98840  0.42830  0.99030  1.0000 0.0605083879
C   C29       1.0  0.29780  0.59700  0.56290  1.0000 0.370224177
C   C30       1.0  0.70220  0.90300  0.06290  1.0000 0.370224177
C   C31       1.0  0.20220  0.09700  0.43710  1.0000 0.370224177
C   C32       1.0  0.79780  0.40300  0.93710  1.0000 0.370224177
C   C33       1.0  0.57110  0.69760  0.36830  1.0000 0.0605083879
C   C34       1.0  0.42890  0.80240  0.86830  1.0000 0.0605083879
C   C35       1.0  0.92890  0.19760  0.63170  1.0000 0.0605083879
C   C36       1.0  0.07110  0.30240  0.13170  1.0000 0.0605083879
C   C37       1.0  0.59100  0.57800  0.50880  1.0000 -0.1587971765
C   C38       1.0  0.40900  0.92200  0.00880  1.0000 -0.1587971765
C   C39       1.0  0.90900  0.07800  0.49120  1.0000 -0.1587971765
C   C40       1.0  0.09100  0.42200  0.99120  1.0000 -0.1587971765
C   C41       1.0  0.04650  0.54580  0.54890  1.0000 0.0898167168
C   C42       1.0  0.95350  0.95420  0.04890  1.0000 0.0898167168
C   C43       1.0  0.45350  0.04580  0.45110  1.0000 0.0898167168
C   C44       1.0  0.54650  0.45420  0.95110  1.0000 0.0898167168
C   C45       1.0  0.59490  0.91370  0.40940  1.0000 0.0605083879
C   C46       1.0  0.40510  0.58630  0.90940  1.0000 0.0605083879
C   C47       1.0  0.90510  0.41370  0.59060  1.0000 0.0605083879
C   C48       1.0  0.09490  0.08630  0.09060  1.0000 0.0605083879
C   C49       1.0  0.58330  0.87240  0.39630  1.0000 -0.143719132
C   C50       1.0  0.41670  0.62760  0.89630  1.0000 -0.143719132
C   C51       1.0  0.91670  0.37240  0.60370  1.0000 -0.143719132
C   C52       1.0  0.08330  0.12760  0.10370  1.0000 -0.143719132
C   C53       1.0  0.63280  0.56490  0.48230  1.0000 0.0817395735
C   C54       1.0  0.36720  0.93510  0.98230  1.0000 0.0817395735
C   C55       1.0  0.86720  0.06490  0.51770  1.0000 0.0817395735
C   C56       1.0  0.13280  0.43510  0.01770  1.0000 0.0817395735
C   C57       1.0  0.49420  0.54310  0.45960  1.0000 0.0605083879
C   C58       1.0  0.50580  0.95690  0.95960  1.0000 0.0605083879
C   C59       1.0  0.00580  0.04310  0.54040  1.0000 0.0605083879
C   C60       1.0  0.99420  0.45690  0.04040  1.0000 0.0605083879
C   C61       1.0  0.58250  0.61160  0.36920  1.0000 0.0817395735
C   C62       1.0  0.41750  0.88840  0.86920  1.0000 0.0817395735
C   C63       1.0  0.91750  0.11160  0.63080  1.0000 0.0817395735
C   C64       1.0  0.08250  0.38840  0.13080  1.0000 0.0817395735
C   C65       1.0  0.56370  0.86990  0.36450  1.0000 0.048577244
C   C66       1.0  0.43630  0.63010  0.86450  1.0000 0.048577244
C   C67       1.0  0.93630  0.36990  0.63550  1.0000 0.048577244
C   C68       1.0  0.06370  0.13010  0.13550  1.0000 0.048577244
C   C69       1.0  0.48350  0.65380  0.60550  1.0000 0.0605083879
C   C70       1.0  0.51650  0.84620  0.10550  1.0000 0.0605083879
C   C71       1.0  0.01650  0.15380  0.39450  1.0000 0.0605083879
C   C72       1.0  0.98350  0.34620  0.89450  1.0000 0.0605083879
C   C73       1.0  0.61870  0.65130  0.41150  1.0000 0.0898167168
C   C74       1.0  0.38130  0.84870  0.91150  1.0000 0.0898167168
C   C75       1.0  0.88130  0.15130  0.58850  1.0000 0.0898167168
C   C76       1.0  0.11870  0.34870  0.08850  1.0000 0.0898167168
C   C77       1.0  0.14500  0.55940  0.54270  1.0000 -0.1489170696
C   C78       1.0  0.85500  0.94060  0.04270  1.0000 -0.1489170696
C   C79       1.0  0.35500  0.05940  0.45730  1.0000 -0.1489170696
C   C80       1.0  0.64500  0.44060  0.95730  1.0000 -0.1489170696
C   C81       1.0  0.43210  0.62760  0.58150  1.0000 0.3431640743
C   C82       1.0  0.56790  0.87240  0.08150  1.0000 0.3431640743
C   C83       1.0  0.06790  0.12760  0.41850  1.0000 0.3431640743
C   C84       1.0  0.93210  0.37240  0.91850  1.0000 0.3431640743
C   C85       1.0  0.43450  0.68080  0.62710  1.0000 -0.1309994698
C   C86       1.0  0.56550  0.81920  0.12710  1.0000 -0.1309994698
C   C87       1.0  0.06550  0.18080  0.37290  1.0000 -0.1309994698
C   C88       1.0  0.93450  0.31920  0.87290  1.0000 -0.1309994698
C   C89       1.0  0.62890  0.67370  0.63080  1.0000 0.0705760696
C   C90       1.0  0.37110  0.82630  0.13080  1.0000 0.0705760696
C   C91       1.0  0.87110  0.17370  0.36920  1.0000 0.0705760696
C   C92       1.0  0.12890  0.32630  0.86920  1.0000 0.0705760696
C   C93       1.0  0.19270  0.58200  0.56710  1.0000 0.0705760696
C   C94       1.0  0.80730  0.91800  0.06710  1.0000 0.0705760696
C   C95       1.0  0.30730  0.08200  0.43290  1.0000 0.0705760696
C   C96       1.0  0.69270  0.41800  0.93290  1.0000 0.0705760696
C   C97       1.0  0.44130  0.55530  0.48530  1.0000 -0.1309994698
C   C98       1.0  0.55870  0.94470  0.98530  1.0000 -0.1309994698
C   C99       1.0  0.05870  0.05530  0.51470  1.0000 -0.1309994698
C   C100      1.0  0.94130  0.44470  0.01470  1.0000 -0.1309994698
C   C101      1.0  0.58080  0.65170  0.60920  1.0000 -0.1309994698
C   C102      1.0  0.41920  0.84830  0.10920  1.0000 -0.1309994698
C   C103      1.0  0.91920  0.15170  0.39080  1.0000 -0.1309994698
C   C104      1.0  0.08080  0.34830  0.89080  1.0000 -0.1309994698
C   C105      1.0  0.14430  0.59170  0.59330  1.0000 -0.1197720421
C   C106      1.0  0.85570  0.90830  0.09330  1.0000 -0.1197720421
C   C107      1.0  0.35570  0.09170  0.40670  1.0000 -0.1197720421
C   C108      1.0  0.64430  0.40830  0.90670  1.0000 -0.1197720421
C   C109      1.0  0.04670  0.57470  0.59690  1.0000 0.1013516633
C   C110      1.0  0.95330  0.92530  0.09690  1.0000 0.1013516633
C   C111      1.0  0.45330  0.07470  0.40310  1.0000 0.1013516633
C   C112      1.0  0.54670  0.42530  0.90310  1.0000 0.1013516633
C   C113      1.0  0.48850  0.70410  0.64980  1.0000 0.1013516633
C   C114      1.0  0.51150  0.79590  0.14980  1.0000 0.1013516633
C   C115      1.0  0.01150  0.20410  0.35020  1.0000 0.1013516633
C   C116      1.0  0.98850  0.29590  0.85020  1.0000 0.1013516633
C   C117      1.0  0.48510  0.77490  0.27590  1.0000 0.0705760696
C   C118      1.0  0.51490  0.72510  0.77590  1.0000 0.0705760696
C   C119      1.0  0.01490  0.27490  0.72410  1.0000 0.0705760696
C   C120      1.0  0.98510  0.22510  0.22410  1.0000 0.0705760696
C   C121      1.0  0.48530  0.72930  0.26210  1.0000 -0.1489170696
C   C122      1.0  0.51470  0.77070  0.76210  1.0000 -0.1489170696
C   C123      1.0  0.01470  0.22930  0.73790  1.0000 -0.1489170696
C   C124      1.0  0.98530  0.27070  0.23790  1.0000 -0.1489170696
C   C125      1.0  0.57450  0.95760  0.36520  1.0000 0.0898167168
C   C126      1.0  0.42550  0.54240  0.86520  1.0000 0.0898167168
C   C127      1.0  0.92550  0.45760  0.63480  1.0000 0.0898167168
C   C128      1.0  0.07450  0.04240  0.13480  1.0000 0.0898167168
C   C129      1.0  0.45570  0.81420  0.25960  1.0000 -0.1587971765
C   C130      1.0  0.54430  0.68580  0.75960  1.0000 -0.1587971765
C   C131      1.0  0.04430  0.31420  0.74040  1.0000 -0.1587971765
C   C132      1.0  0.95570  0.18580  0.24040  1.0000 -0.1587971765
C   C133      1.0  0.56020  0.91470  0.34950  1.0000 -0.143719132
C   C134      1.0  0.43980  0.58530  0.84950  1.0000 -0.143719132
C   C135      1.0  0.93980  0.41470  0.65050  1.0000 -0.143719132
C   C136      1.0  0.06020  0.08530  0.15050  1.0000 -0.143719132
C   C137      1.0  0.42170  0.80700  0.23060  1.0000 0.0898167168
C   C138      1.0  0.57830  0.69300  0.73060  1.0000 0.0898167168
C   C139      1.0  0.07830  0.30700  0.76940  1.0000 0.0898167168
C   C140      1.0  0.92170  0.19300  0.26940  1.0000 0.0898167168
C   C141      1.0  0.45330  0.72500  0.23390  1.0000 0.0817395735
C   C142      1.0  0.54670  0.77500  0.73390  1.0000 0.0817395735
C   C143      1.0  0.04670  0.22500  0.76610  1.0000 0.0817395735
C   C144      1.0  0.95330  0.27500  0.26610  1.0000 0.0817395735
C   C145      1.0  0.56580  0.41120  0.46230  1.0000 0.362931124
C   C146      1.0  0.43420  0.08880  0.96230  1.0000 0.362931124
C   C147      1.0  0.93420  0.91120  0.53770  1.0000 0.362931124
C   C148      1.0  0.06580  0.58880  0.03770  1.0000 0.362931124
C   C149      1.0  0.44470  0.25790  0.64820  1.0000 0.3461503192
C   C150      1.0  0.55530  0.24210  0.14820  1.0000 0.3461503192
C   C151      1.0  0.05530  0.75790  0.35180  1.0000 0.3461503192
C   C152      1.0  0.94470  0.74210  0.85180  1.0000 0.3461503192
C   C153      1.0  0.44810  0.17670  0.65050  1.0000 0.362931124
C   C154      1.0  0.55190  0.32330  0.15050  1.0000 0.362931124
C   C155      1.0  0.05190  0.67670  0.34950  1.0000 0.362931124
C   C156      1.0  0.94810  0.82330  0.84950  1.0000 0.362931124
C   C157      1.0  0.48030  0.22120  0.69210  1.0000 0.370224177
C   C158      1.0  0.51970  0.27880  0.19210  1.0000 0.370224177
C   C159      1.0  0.01970  0.72120  0.30790  1.0000 0.370224177
C   C160      1.0  0.98030  0.77880  0.80790  1.0000 0.370224177
C   C161      1.0  0.43870  0.34770  0.64640  1.0000 -0.1587971765
C   C162      1.0  0.56130  0.15230  0.14640  1.0000 -0.1587971765
C   C163      1.0  0.06130  0.84770  0.35360  1.0000 -0.1587971765
C   C164      1.0  0.93870  0.65230  0.85360  1.0000 -0.1587971765
C   C165      1.0  0.40140  0.30380  0.60080  1.0000 -0.182654381
C   C166      1.0  0.59860  0.19620  0.10080  1.0000 -0.182654381
C   C167      1.0  0.09860  0.80380  0.39920  1.0000 -0.182654381
C   C168      1.0  0.90140  0.69620  0.89920  1.0000 -0.182654381
C   C169      1.0  0.51160  0.42830  0.49030  1.0000 0.0605083879
C   C170      1.0  0.48840  0.07170  0.99030  1.0000 0.0605083879
C   C171      1.0  0.98840  0.92830  0.50970  1.0000 0.0605083879
C   C172      1.0  0.01160  0.57170  0.00970  1.0000 0.0605083879
C   C173      1.0  0.70220  0.40300  0.43710  1.0000 0.370224177
C   C174      1.0  0.29780  0.09700  0.93710  1.0000 0.370224177
C   C175      1.0  0.79780  0.90300  0.56290  1.0000 0.370224177
C   C176      1.0  0.20220  0.59700  0.06290  1.0000 0.370224177
C   C177      1.0  0.42890  0.30240  0.63170  1.0000 0.0605083879
C   C178      1.0  0.57110  0.19760  0.13170  1.0000 0.0605083879
C   C179      1.0  0.07110  0.80240  0.36830  1.0000 0.0605083879
C   C180      1.0  0.92890  0.69760  0.86830  1.0000 0.0605083879
C   C181      1.0  0.40900  0.42200  0.49120  1.0000 -0.1587971765
C   C182      1.0  0.59100  0.07800  0.99120  1.0000 -0.1587971765
C   C183      1.0  0.09100  0.92200  0.50880  1.0000 -0.1587971765
C   C184      1.0  0.90900  0.57800  0.00880  1.0000 -0.1587971765
C   C185      1.0  0.95350  0.45420  0.45110  1.0000 0.0898167168
C   C186      1.0  0.04650  0.04580  0.95110  1.0000 0.0898167168
C   C187      1.0  0.54650  0.95420  0.54890  1.0000 0.0898167168
C   C188      1.0  0.45350  0.54580  0.04890  1.0000 0.0898167168
C   C189      1.0  0.40510  0.08630  0.59060  1.0000 0.0605083879
C   C190      1.0  0.59490  0.41370  0.09060  1.0000 0.0605083879
C   C191      1.0  0.09490  0.58630  0.40940  1.0000 0.0605083879
C   C192      1.0  0.90510  0.91370  0.90940  1.0000 0.0605083879
C   C193      1.0  0.41670  0.12760  0.60370  1.0000 -0.143719132
C   C194      1.0  0.58330  0.37240  0.10370  1.0000 -0.143719132
C   C195      1.0  0.08330  0.62760  0.39630  1.0000 -0.143719132
C   C196      1.0  0.91670  0.87240  0.89630  1.0000 -0.143719132
C   C197      1.0  0.36720  0.43510  0.51770  1.0000 0.0817395735
C   C198      1.0  0.63280  0.06490  0.01770  1.0000 0.0817395735
C   C199      1.0  0.13280  0.93510  0.48230  1.0000 0.0817395735
C   C200      1.0  0.86720  0.56490  0.98230  1.0000 0.0817395735
C   C201      1.0  0.50580  0.45690  0.54040  1.0000 0.0605083879
C   C202      1.0  0.49420  0.04310  0.04040  1.0000 0.0605083879
C   C203      1.0  0.99420  0.95690  0.45960  1.0000 0.0605083879
C   C204      1.0  0.00580  0.54310  0.95960  1.0000 0.0605083879
C   C205      1.0  0.41750  0.38840  0.63080  1.0000 0.0817395735
C   C206      1.0  0.58250  0.11160  0.13080  1.0000 0.0817395735
C   C207      1.0  0.08250  0.88840  0.36920  1.0000 0.0817395735
C   C208      1.0  0.91750  0.61160  0.86920  1.0000 0.0817395735
C   C209      1.0  0.43630  0.13010  0.63550  1.0000 0.048577244
C   C210      1.0  0.56370  0.36990  0.13550  1.0000 0.048577244
C   C211      1.0  0.06370  0.63010  0.36450  1.0000 0.048577244
C   C212      1.0  0.93630  0.86990  0.86450  1.0000 0.048577244
C   C213      1.0  0.51650  0.34620  0.39450  1.0000 0.0605083879
C   C214      1.0  0.48350  0.15380  0.89450  1.0000 0.0605083879
C   C215      1.0  0.98350  0.84620  0.60550  1.0000 0.0605083879
C   C216      1.0  0.01650  0.65380  0.10550  1.0000 0.0605083879
C   C217      1.0  0.38130  0.34870  0.58850  1.0000 0.0898167168
C   C218      1.0  0.61870  0.15130  0.08850  1.0000 0.0898167168
C   C219      1.0  0.11870  0.84870  0.41150  1.0000 0.0898167168
C   C220      1.0  0.88130  0.65130  0.91150  1.0000 0.0898167168
C   C221      1.0  0.85500  0.44060  0.45730  1.0000 -0.1489170696
C   C222      1.0  0.14500  0.05940  0.95730  1.0000 -0.1489170696
C   C223      1.0  0.64500  0.94060  0.54270  1.0000 -0.1489170696
C   C224      1.0  0.35500  0.55940  0.04270  1.0000 -0.1489170696
C   C225      1.0  0.56790  0.37240  0.41850  1.0000 0.3431640743
C   C226      1.0  0.43210  0.12760  0.91850  1.0000 0.3431640743
C   C227      1.0  0.93210  0.87240  0.58150  1.0000 0.3431640743
C   C228      1.0  0.06790  0.62760  0.08150  1.0000 0.3431640743
C   C229      1.0  0.56550  0.31920  0.37290  1.0000 -0.1309994698
C   C230      1.0  0.43450  0.18080  0.87290  1.0000 -0.1309994698
C   C231      1.0  0.93450  0.81920  0.62710  1.0000 -0.1309994698
C   C232      1.0  0.06550  0.68080  0.12710  1.0000 -0.1309994698
C   C233      1.0  0.37110  0.32630  0.36920  1.0000 0.0705760696
C   C234      1.0  0.62890  0.17370  0.86920  1.0000 0.0705760696
C   C235      1.0  0.12890  0.82630  0.63080  1.0000 0.0705760696
C   C236      1.0  0.87110  0.67370  0.13080  1.0000 0.0705760696
C   C237      1.0  0.80730  0.41800  0.43290  1.0000 0.0705760696
C   C238      1.0  0.19270  0.08200  0.93290  1.0000 0.0705760696
C   C239      1.0  0.69270  0.91800  0.56710  1.0000 0.0705760696
C   C240      1.0  0.30730  0.58200  0.06710  1.0000 0.0705760696
C   C241      1.0  0.55870  0.44470  0.51470  1.0000 -0.1309994698
C   C242      1.0  0.44130  0.05530  0.01470  1.0000 -0.1309994698
C   C243      1.0  0.94130  0.94470  0.48530  1.0000 -0.1309994698
C   C244      1.0  0.05870  0.55530  0.98530  1.0000 -0.1309994698
C   C245      1.0  0.41920  0.34830  0.39080  1.0000 -0.1309994698
C   C246      1.0  0.58080  0.15170  0.89080  1.0000 -0.1309994698
C   C247      1.0  0.08080  0.84830  0.60920  1.0000 -0.1309994698
C   C248      1.0  0.91920  0.65170  0.10920  1.0000 -0.1309994698
C   C249      1.0  0.85570  0.40830  0.40670  1.0000 -0.1197720421
C   C250      1.0  0.14430  0.09170  0.90670  1.0000 -0.1197720421
C   C251      1.0  0.64430  0.90830  0.59330  1.0000 -0.1197720421
C   C252      1.0  0.35570  0.59170  0.09330  1.0000 -0.1197720421
C   C253      1.0  0.95330  0.42530  0.40310  1.0000 0.1013516633
C   C254      1.0  0.04670  0.07470  0.90310  1.0000 0.1013516633
C   C255      1.0  0.54670  0.92530  0.59690  1.0000 0.1013516633
C   C256      1.0  0.45330  0.57470  0.09690  1.0000 0.1013516633
C   C257      1.0  0.51150  0.29590  0.35020  1.0000 0.1013516633
C   C258      1.0  0.48850  0.20410  0.85020  1.0000 0.1013516633
C   C259      1.0  0.98850  0.79590  0.64980  1.0000 0.1013516633
C   C260      1.0  0.01150  0.70410  0.14980  1.0000 0.1013516633
C   C261      1.0  0.51490  0.22510  0.72410  1.0000 0.0705760696
C   C262      1.0  0.48510  0.27490  0.22410  1.0000 0.0705760696
C   C263      1.0  0.98510  0.72510  0.27590  1.0000 0.0705760696
C   C264      1.0  0.01490  0.77490  0.77590  1.0000 0.0705760696
C   C265      1.0  0.51470  0.27070  0.73790  1.0000 -0.1489170696
C   C266      1.0  0.48530  0.22930  0.23790  1.0000 -0.1489170696
C   C267      1.0  0.98530  0.77070  0.26210  1.0000 -0.1489170696
C   C268      1.0  0.01470  0.72930  0.76210  1.0000 -0.1489170696
C   C269      1.0  0.42550  0.04240  0.63480  1.0000 0.0898167168
C   C270      1.0  0.57450  0.45760  0.13480  1.0000 0.0898167168
C   C271      1.0  0.07450  0.54240  0.36520  1.0000 0.0898167168
C   C272      1.0  0.92550  0.95760  0.86520  1.0000 0.0898167168
C   C273      1.0  0.54430  0.18580  0.74040  1.0000 -0.1587971765
C   C274      1.0  0.45570  0.31420  0.24040  1.0000 -0.1587971765
C   C275      1.0  0.95570  0.68580  0.25960  1.0000 -0.1587971765
C   C276      1.0  0.04430  0.81420  0.75960  1.0000 -0.1587971765
C   C277      1.0  0.43980  0.08530  0.65050  1.0000 -0.143719132
C   C278      1.0  0.56020  0.41470  0.15050  1.0000 -0.143719132
C   C279      1.0  0.06020  0.58530  0.34950  1.0000 -0.143719132
C   C280      1.0  0.93980  0.91470  0.84950  1.0000 -0.143719132
C   C281      1.0  0.57830  0.19300  0.76940  1.0000 0.0898167168
C   C282      1.0  0.42170  0.30700  0.26940  1.0000 0.0898167168
C   C283      1.0  0.92170  0.69300  0.23060  1.0000 0.0898167168
C   C284      1.0  0.07830  0.80700  0.73060  1.0000 0.0898167168
C   C285      1.0  0.54670  0.27500  0.76610  1.0000 0.0817395735
C   C286      1.0  0.45330  0.22500  0.26610  1.0000 0.0817395735
C   C287      1.0  0.95330  0.77500  0.23390  1.0000 0.0817395735
C   C288      1.0  0.04670  0.72500  0.73390  1.0000 0.0817395735
I   I1        1.0  0.69611  0.00019  0.46460  1.0000 -0.4306125305
I   I2        1.0  0.30389  0.49981  0.96460  1.0000 -0.4306125305
I   I3        1.0  0.80389  0.50019  0.53540  1.0000 -0.4306125305
I   I4        1.0  0.19611  0.99981  0.03540  1.0000 -0.4306125305
I   I5        1.0  0.82466  0.55512  0.42345  1.0000 -0.4306125305
I   I6        1.0  0.17534  0.94488  0.92345  1.0000 -0.4306125305
I   I7        1.0  0.67534  0.05512  0.57655  1.0000 -0.4306125305
I   I8        1.0  0.32466  0.44488  0.07655  1.0000 -0.4306125305
I   I9        1.0  0.58202  0.48567  0.38781  1.0000 -0.4093278134
I   I10       1.0  0.41798  0.01433  0.88781  1.0000 -0.4093278134
I   I11       1.0  0.91798  0.98567  0.61219  1.0000 -0.4093278134
I   I12       1.0  0.08202  0.51433  0.11219  1.0000 -0.4093278134
I   I13       1.0  0.63890  0.82850  0.66325  1.0000 -0.4306125305
I   I14       1.0  0.36110  0.67150  0.16325  1.0000 -0.4306125305
I   I15       1.0  0.86110  0.32850  0.33675  1.0000 -0.4306125305
I   I16       1.0  0.13890  0.17150  0.83675  1.0000 -0.4306125305
I   I17       1.0  0.71005  0.06936  0.38150  1.0000 -0.393017237
I   I18       1.0  0.28995  0.43064  0.88150  1.0000 -0.393017237
I   I19       1.0  0.78995  0.56936  0.61850  1.0000 -0.393017237
I   I20       1.0  0.21005  0.93064  0.11850  1.0000 -0.393017237
I   I21       1.0  0.81439  0.71601  0.68503  1.0000 -0.4306125305
I   I22       1.0  0.18561  0.78399  0.18503  1.0000 -0.4306125305
I   I23       1.0  0.68561  0.21601  0.31497  1.0000 -0.4306125305
I   I24       1.0  0.31439  0.28399  0.81497  1.0000 -0.4306125305
I   I25       1.0  0.30389  0.99981  0.53540  1.0000 -0.4306125305
I   I26       1.0  0.69611  0.50019  0.03540  1.0000 -0.4306125305
I   I27       1.0  0.19611  0.49981  0.46460  1.0000 -0.4306125305
I   I28       1.0  0.80389  0.00019  0.96460  1.0000 -0.4306125305
I   I29       1.0  0.17534  0.44488  0.57655  1.0000 -0.4306125305
I   I30       1.0  0.82466  0.05512  0.07655  1.0000 -0.4306125305
I   I31       1.0  0.32466  0.94488  0.42345  1.0000 -0.4306125305
I   I32       1.0  0.67534  0.55512  0.92345  1.0000 -0.4306125305
I   I33       1.0  0.41798  0.51433  0.61219  1.0000 -0.4093278134
I   I34       1.0  0.58202  0.98567  0.11219  1.0000 -0.4093278134
I   I35       1.0  0.08202  0.01433  0.38781  1.0000 -0.4093278134
I   I36       1.0  0.91798  0.48567  0.88781  1.0000 -0.4093278134
I   I37       1.0  0.36110  0.17150  0.33675  1.0000 -0.4306125305
I   I38       1.0  0.63890  0.32850  0.83675  1.0000 -0.4306125305
I   I39       1.0  0.13890  0.67150  0.66325  1.0000 -0.4306125305
I   I40       1.0  0.86110  0.82850  0.16325  1.0000 -0.4306125305
I   I41       1.0  0.28995  0.93064  0.61850  1.0000 -0.393017237
I   I42       1.0  0.71005  0.56936  0.11850  1.0000 -0.393017237
I   I43       1.0  0.21005  0.43064  0.38150  1.0000 -0.393017237
I   I44       1.0  0.78995  0.06936  0.88150  1.0000 -0.393017237
I   I45       1.0  0.18561  0.28399  0.31497  1.0000 -0.4306125305
I   I46       1.0  0.81439  0.21601  0.81497  1.0000 -0.4306125305
I   I47       1.0  0.31439  0.78399  0.68503  1.0000 -0.4306125305
I   I48       1.0  0.68561  0.71601  0.18503  1.0000 -0.4306125305
N   N1        1.0  0.59320  0.95740  0.39510  1.0000 -0.1707545012
N   N2        1.0  0.40680  0.54260  0.89510  1.0000 -0.1707545012
N   N3        1.0  0.90680  0.45740  0.60490  1.0000 -0.1707545012
N   N4        1.0  0.09320  0.04260  0.10490  1.0000 -0.1707545012
N   N5        1.0  0.52750  0.82360  0.32010  1.0000 -0.4184576431
N   N6        1.0  0.47250  0.67640  0.82010  1.0000 -0.4184576431
N   N7        1.0  0.97250  0.32360  0.67990  1.0000 -0.4184576431
N   N8        1.0  0.02750  0.17640  0.17990  1.0000 -0.4184576431
N   N9        1.0  0.00120  0.55200  0.57480  1.0000 -0.182654381
N   N10       1.0  0.99880  0.94800  0.07480  1.0000 -0.182654381
N   N11       1.0  0.49880  0.05200  0.42520  1.0000 -0.182654381
N   N12       1.0  0.50120  0.44800  0.92520  1.0000 -0.182654381
N   N13       1.0  0.59060  0.54990  0.45820  1.0000 -0.182654381
N   N14       1.0  0.40940  0.95010  0.95820  1.0000 -0.182654381
N   N15       1.0  0.90940  0.04990  0.54180  1.0000 -0.182654381
N   N16       1.0  0.09060  0.45010  0.04180  1.0000 -0.182654381
N   N17       1.0  0.56670  0.78490  0.36590  1.0000 -0.4045941354
N   N18       1.0  0.43330  0.71510  0.86590  1.0000 -0.4045941354
N   N19       1.0  0.93330  0.28490  0.63410  1.0000 -0.4045941354
N   N20       1.0  0.06670  0.21510  0.13410  1.0000 -0.4045941354
N   N21       1.0  0.61210  0.61190  0.39780  1.0000 -0.1707545012
N   N22       1.0  0.38790  0.88810  0.89780  1.0000 -0.1707545012
N   N23       1.0  0.88790  0.11190  0.60220  1.0000 -0.1707545012
N   N24       1.0  0.11210  0.38810  0.10220  1.0000 -0.1707545012
N   N25       1.0  0.33990  0.57990  0.53870  1.0000 -0.3762624309
N   N26       1.0  0.66010  0.92010  0.03870  1.0000 -0.3762624309
N   N27       1.0  0.16010  0.07990  0.46130  1.0000 -0.3762624309
N   N28       1.0  0.83990  0.42010  0.96130  1.0000 -0.3762624309
N   N29       1.0  0.52930  0.73650  0.32250  1.0000 -0.4093278134
N   N30       1.0  0.47070  0.76350  0.82250  1.0000 -0.4093278134
N   N31       1.0  0.97070  0.23650  0.67750  1.0000 -0.4093278134
N   N32       1.0  0.02930  0.26350  0.17750  1.0000 -0.4093278134
N   N33       1.0  0.58260  0.70480  0.64960  1.0000 -0.1707545012
N   N34       1.0  0.41740  0.79520  0.14960  1.0000 -0.1707545012
N   N35       1.0  0.91740  0.20480  0.35040  1.0000 -0.1707545012
N   N36       1.0  0.08260  0.29520  0.85040  1.0000 -0.1707545012
N   N37       1.0  0.33620  0.62220  0.58480  1.0000 -0.3621844137
N   N38       1.0  0.66380  0.87780  0.08480  1.0000 -0.3621844137
N   N39       1.0  0.16380  0.12220  0.41520  1.0000 -0.3621844137
N   N40       1.0  0.83620  0.37780  0.91520  1.0000 -0.3621844137
N   N41       1.0  0.48300  0.61230  0.55780  1.0000 -0.3740483568
N   N42       1.0  0.51700  0.88770  0.05780  1.0000 -0.3740483568
N   N43       1.0  0.01700  0.11230  0.44220  1.0000 -0.3740483568
N   N44       1.0  0.98300  0.38770  0.94220  1.0000 -0.3740483568
N   N45       1.0  0.41990  0.76330  0.21830  1.0000 -0.1587971765
N   N46       1.0  0.58010  0.73670  0.71830  1.0000 -0.1587971765
N   N47       1.0  0.08010  0.26330  0.78170  1.0000 -0.1587971765
N   N48       1.0  0.91990  0.23670  0.28170  1.0000 -0.1587971765
N   N49       1.0  0.40680  0.04260  0.60490  1.0000 -0.1707545012
N   N50       1.0  0.59320  0.45740  0.10490  1.0000 -0.1707545012
N   N51       1.0  0.09320  0.54260  0.39510  1.0000 -0.1707545012
N   N52       1.0  0.90680  0.95740  0.89510  1.0000 -0.1707545012
N   N53       1.0  0.47250  0.17640  0.67990  1.0000 -0.4184576431
N   N54       1.0  0.52750  0.32360  0.17990  1.0000 -0.4184576431
N   N55       1.0  0.02750  0.67640  0.32010  1.0000 -0.4184576431
N   N56       1.0  0.97250  0.82360  0.82010  1.0000 -0.4184576431
N   N57       1.0  0.99880  0.44800  0.42520  1.0000 -0.182654381
N   N58       1.0  0.00120  0.05200  0.92520  1.0000 -0.182654381
N   N59       1.0  0.50120  0.94800  0.57480  1.0000 -0.182654381
N   N60       1.0  0.49880  0.55200  0.07480  1.0000 -0.182654381
N   N61       1.0  0.40940  0.45010  0.54180  1.0000 -0.182654381
N   N62       1.0  0.59060  0.04990  0.04180  1.0000 -0.182654381
N   N63       1.0  0.09060  0.95010  0.45820  1.0000 -0.182654381
N   N64       1.0  0.90940  0.54990  0.95820  1.0000 -0.182654381
N   N65       1.0  0.43330  0.21510  0.63410  1.0000 -0.4045941354
N   N66       1.0  0.56670  0.28490  0.13410  1.0000 -0.4045941354
N   N67       1.0  0.06670  0.71510  0.36590  1.0000 -0.4045941354
N   N68       1.0  0.93330  0.78490  0.86590  1.0000 -0.4045941354
N   N69       1.0  0.38790  0.38810  0.60220  1.0000 -0.1707545012
N   N70       1.0  0.61210  0.11190  0.10220  1.0000 -0.1707545012
N   N71       1.0  0.11210  0.88810  0.39780  1.0000 -0.1707545012
N   N72       1.0  0.88790  0.61190  0.89780  1.0000 -0.1707545012
N   N73       1.0  0.66010  0.42010  0.46130  1.0000 -0.3762624309
N   N74       1.0  0.33990  0.07990  0.96130  1.0000 -0.3762624309
N   N75       1.0  0.83990  0.92010  0.53870  1.0000 -0.3762624309
N   N76       1.0  0.16010  0.57990  0.03870  1.0000 -0.3762624309
N   N77       1.0  0.47070  0.26350  0.67750  1.0000 -0.4093278134
N   N78       1.0  0.52930  0.23650  0.17750  1.0000 -0.4093278134
N   N79       1.0  0.02930  0.76350  0.32250  1.0000 -0.4093278134
N   N80       1.0  0.97070  0.73650  0.82250  1.0000 -0.4093278134
N   N81       1.0  0.41740  0.29520  0.35040  1.0000 -0.1707545012
N   N82       1.0  0.58260  0.20480  0.85040  1.0000 -0.1707545012
N   N83       1.0  0.08260  0.79520  0.64960  1.0000 -0.1707545012
N   N84       1.0  0.91740  0.70480  0.14960  1.0000 -0.1707545012
N   N85       1.0  0.66380  0.37780  0.41520  1.0000 -0.3621844137
N   N86       1.0  0.33620  0.12220  0.91520  1.0000 -0.3621844137
N   N87       1.0  0.83620  0.87780  0.58480  1.0000 -0.3621844137
N   N88       1.0  0.16380  0.62220  0.08480  1.0000 -0.3621844137
N   N89       1.0  0.51700  0.38770  0.44220  1.0000 -0.3740483568
N   N90       1.0  0.48300  0.11230  0.94220  1.0000 -0.3740483568
N   N91       1.0  0.98300  0.88770  0.55780  1.0000 -0.3740483568
N   N92       1.0  0.01700  0.61230  0.05780  1.0000 -0.3740483568
N   N93       1.0  0.58010  0.23670  0.78170  1.0000 -0.1587971765
N   N94       1.0  0.41990  0.26330  0.28170  1.0000 -0.1587971765
N   N95       1.0  0.91990  0.73670  0.21830  1.0000 -0.1587971765
N   N96       1.0  0.08010  0.76330  0.71830  1.0000 -0.1587971765
