# DDEC6 charges by PACMAN v1.1 (https://github.com/mtap-research/PACMAN-charge/)
data_2014[Zr][fcu]3[ASR]3
_chemical_formula_sum              "Zr24 H112 C192 O128"
_cell_length_a       20.7465
_cell_length_b       20.7465
_cell_length_c       20.7465
_cell_angle_alpha    90
_cell_angle_beta     90
_cell_angle_gamma    90

_symmetry_space_group_name_H-M    "P 1"
_symmetry_Int_Tables_number       1

loop_
  _symmetry_equiv_pos_as_xyz
  'x, y, z'

loop_
  _atom_site_type_symbol
  _atom_site_label
  _atom_site_symmetry_multiplicity
  _atom_site_fract_x
  _atom_site_fract_y
  _atom_site_fract_z
  _atom_site_occupancy
  _atom_site_charge
Zr  Zr1       1.0  0.00000  0.11466  0.00000  1.0000 2.2769395026
Zr  Zr2       1.0  0.11466  0.00000  0.00000  1.0000 2.2769395026
Zr  Zr3       1.0  0.88534  0.00000  0.00000  1.0000 2.2769395026
Zr  Zr4       1.0  0.00000  0.00000  0.11466  1.0000 2.2769395026
Zr  Zr5       1.0  0.00000  0.00000  0.88534  1.0000 2.2769395026
Zr  Zr6       1.0  0.00000  0.88534  0.00000  1.0000 2.2769395026
Zr  Zr7       1.0  0.50000  0.61466  0.00000  1.0000 2.2769395026
Zr  Zr8       1.0  0.61466  0.50000  0.00000  1.0000 2.2769395026
Zr  Zr9       1.0  0.38534  0.50000  0.00000  1.0000 2.2769395026
Zr  Zr10      1.0  0.50000  0.50000  0.11466  1.0000 2.2769395026
Zr  Zr11      1.0  0.50000  0.50000  0.88534  1.0000 2.2769395026
Zr  Zr12      1.0  0.50000  0.38534  0.00000  1.0000 2.2769395026
Zr  Zr13      1.0  0.00000  0.61466  0.50000  1.0000 2.2769395026
Zr  Zr14      1.0  0.11466  0.50000  0.50000  1.0000 2.2769395026
Zr  Zr15      1.0  0.88534  0.50000  0.50000  1.0000 2.2769395026
Zr  Zr16      1.0  0.00000  0.50000  0.61466  1.0000 2.2769395026
Zr  Zr17      1.0  0.00000  0.50000  0.38534  1.0000 2.2769395026
Zr  Zr18      1.0  0.00000  0.38534  0.50000  1.0000 2.2769395026
Zr  Zr19      1.0  0.50000  0.11466  0.50000  1.0000 2.2769395026
Zr  Zr20      1.0  0.61466  0.00000  0.50000  1.0000 2.2769395026
Zr  Zr21      1.0  0.38534  0.00000  0.50000  1.0000 2.2769395026
Zr  Zr22      1.0  0.50000  0.00000  0.61466  1.0000 2.2769395026
Zr  Zr23      1.0  0.50000  0.00000  0.38534  1.0000 2.2769395026
Zr  Zr24      1.0  0.50000  0.88534  0.50000  1.0000 2.2769395026
H   H1        1.0  0.08570  0.08570  0.08570  1.0000 0.3944126008
H   H2        1.0  0.91430  0.08570  0.91430  1.0000 0.3944126008
H   H3        1.0  0.91430  0.91430  0.08570  1.0000 0.3944126008
H   H4        1.0  0.08570  0.91430  0.91430  1.0000 0.3944126008
H   H5        1.0  0.58570  0.58570  0.08570  1.0000 0.3944126008
H   H6        1.0  0.41430  0.58570  0.91430  1.0000 0.3944126008
H   H7        1.0  0.41430  0.41430  0.08570  1.0000 0.3944126008
H   H8        1.0  0.58570  0.41430  0.91430  1.0000 0.3944126008
H   H9        1.0  0.08570  0.58570  0.58570  1.0000 0.3944126008
H   H10       1.0  0.91430  0.58570  0.41430  1.0000 0.3944126008
H   H11       1.0  0.91430  0.41430  0.58570  1.0000 0.3944126008
H   H12       1.0  0.08570  0.41430  0.41430  1.0000 0.3944126008
H   H13       1.0  0.58570  0.08570  0.58570  1.0000 0.3944126008
H   H14       1.0  0.41430  0.08570  0.41430  1.0000 0.3944126008
H   H15       1.0  0.41430  0.91430  0.58570  1.0000 0.3944126008
H   H16       1.0  0.58570  0.91430  0.41430  1.0000 0.3944126008
H   H17       1.0  0.28182  0.13483  0.99661  1.0000 0.1089870155
H   H18       1.0  0.13483  0.28182  0.99661  1.0000 0.1089870155
H   H19       1.0  0.21818  0.36517  0.99661  1.0000 0.1089870155
H   H20       1.0  0.36517  0.21818  0.99661  1.0000 0.1089870155
H   H21       1.0  0.28182  0.63483  0.49661  1.0000 0.1089870155
H   H22       1.0  0.13483  0.78182  0.49661  1.0000 0.1089870155
H   H23       1.0  0.21818  0.86517  0.49661  1.0000 0.1089870155
H   H24       1.0  0.36517  0.71818  0.49661  1.0000 0.1089870155
H   H25       1.0  0.86517  0.71818  0.99661  1.0000 0.1089870155
H   H26       1.0  0.71818  0.86517  0.99661  1.0000 0.1089870155
H   H27       1.0  0.63483  0.78182  0.99661  1.0000 0.1089870155
H   H28       1.0  0.78182  0.63483  0.99661  1.0000 0.1089870155
H   H29       1.0  0.86517  0.21818  0.49661  1.0000 0.1089870155
H   H30       1.0  0.71818  0.36517  0.49661  1.0000 0.1089870155
H   H31       1.0  0.63483  0.28182  0.49661  1.0000 0.1089870155
H   H32       1.0  0.78182  0.13483  0.49661  1.0000 0.1089870155
H   H33       1.0  0.86517  0.28182  0.00339  1.0000 0.1089870155
H   H34       1.0  0.71818  0.13483  0.00339  1.0000 0.1089870155
H   H35       1.0  0.63483  0.21818  0.00339  1.0000 0.1089870155
H   H36       1.0  0.78182  0.36517  0.00339  1.0000 0.1089870155
H   H37       1.0  0.86517  0.78182  0.50339  1.0000 0.1089870155
H   H38       1.0  0.71818  0.63483  0.50339  1.0000 0.1089870155
H   H39       1.0  0.63483  0.71818  0.50339  1.0000 0.1089870155
H   H40       1.0  0.78182  0.86517  0.50339  1.0000 0.1089870155
H   H41       1.0  0.13483  0.21818  0.50339  1.0000 0.1089870155
H   H42       1.0  0.28182  0.36517  0.50339  1.0000 0.1089870155
H   H43       1.0  0.36517  0.28182  0.50339  1.0000 0.1089870155
H   H44       1.0  0.21818  0.13483  0.50339  1.0000 0.1089870155
H   H45       1.0  0.13483  0.71818  0.00339  1.0000 0.1089870155
H   H46       1.0  0.28182  0.86517  0.00339  1.0000 0.1089870155
H   H47       1.0  0.36517  0.78182  0.00339  1.0000 0.1089870155
H   H48       1.0  0.21818  0.63483  0.00339  1.0000 0.1089870155
H   H49       1.0  0.99664  0.28182  0.13483  1.0000 0.1089870155
H   H50       1.0  0.99658  0.13483  0.28182  1.0000 0.1089870155
H   H51       1.0  0.99658  0.21818  0.36517  1.0000 0.1089870155
H   H52       1.0  0.99664  0.36517  0.21818  1.0000 0.1089870155
H   H53       1.0  0.49660  0.36517  0.71818  1.0000 0.1089870155
H   H54       1.0  0.49662  0.21818  0.86517  1.0000 0.1089870155
H   H55       1.0  0.49662  0.13483  0.78182  1.0000 0.1089870155
H   H56       1.0  0.49660  0.28182  0.63483  1.0000 0.1089870155
H   H57       1.0  0.99660  0.86517  0.71818  1.0000 0.1089870155
H   H58       1.0  0.99662  0.71818  0.86517  1.0000 0.1089870155
H   H59       1.0  0.99662  0.63483  0.78182  1.0000 0.1089870155
H   H60       1.0  0.99660  0.78182  0.63483  1.0000 0.1089870155
H   H61       1.0  0.49664  0.78182  0.13483  1.0000 0.1089870155
H   H62       1.0  0.49658  0.63483  0.28182  1.0000 0.1089870155
H   H63       1.0  0.49658  0.71818  0.36517  1.0000 0.1089870155
H   H64       1.0  0.49664  0.86517  0.21818  1.0000 0.1089870155
H   H65       1.0  0.00338  0.86517  0.28182  1.0000 0.1089870155
H   H66       1.0  0.00340  0.71818  0.13483  1.0000 0.1089870155
H   H67       1.0  0.00340  0.63483  0.21818  1.0000 0.1089870155
H   H68       1.0  0.00338  0.78182  0.36517  1.0000 0.1089870155
H   H69       1.0  0.50342  0.78182  0.86517  1.0000 0.1089870155
H   H70       1.0  0.50336  0.63483  0.71818  1.0000 0.1089870155
H   H71       1.0  0.50336  0.71818  0.63483  1.0000 0.1089870155
H   H72       1.0  0.50342  0.86517  0.78182  1.0000 0.1089870155
H   H73       1.0  0.50338  0.36517  0.28182  1.0000 0.1089870155
H   H74       1.0  0.50340  0.21818  0.13483  1.0000 0.1089870155
H   H75       1.0  0.50340  0.13483  0.21818  1.0000 0.1089870155
H   H76       1.0  0.50338  0.28182  0.36517  1.0000 0.1089870155
H   H77       1.0  0.00342  0.28182  0.86517  1.0000 0.1089870155
H   H78       1.0  0.00336  0.13483  0.71818  1.0000 0.1089870155
H   H79       1.0  0.00336  0.21818  0.63483  1.0000 0.1089870155
H   H80       1.0  0.00342  0.36517  0.78182  1.0000 0.1089870155
H   H81       1.0  0.13483  0.99661  0.28182  1.0000 0.1089870155
H   H82       1.0  0.28182  0.99661  0.13483  1.0000 0.1089870155
H   H83       1.0  0.36517  0.99661  0.21818  1.0000 0.1089870155
H   H84       1.0  0.21818  0.99661  0.36517  1.0000 0.1089870155
H   H85       1.0  0.36517  0.49660  0.71818  1.0000 0.1089870155
H   H86       1.0  0.21818  0.49662  0.86517  1.0000 0.1089870155
H   H87       1.0  0.13483  0.49662  0.78182  1.0000 0.1089870155
H   H88       1.0  0.28182  0.49660  0.63483  1.0000 0.1089870155
H   H89       1.0  0.86517  0.99660  0.71818  1.0000 0.1089870155
H   H90       1.0  0.71818  0.99662  0.86517  1.0000 0.1089870155
H   H91       1.0  0.63483  0.99662  0.78182  1.0000 0.1089870155
H   H92       1.0  0.78182  0.99660  0.63483  1.0000 0.1089870155
H   H93       1.0  0.63483  0.49661  0.28182  1.0000 0.1089870155
H   H94       1.0  0.78182  0.49661  0.13483  1.0000 0.1089870155
H   H95       1.0  0.86517  0.49661  0.21818  1.0000 0.1089870155
H   H96       1.0  0.71818  0.49661  0.36517  1.0000 0.1089870155
H   H97       1.0  0.13483  0.00339  0.71818  1.0000 0.1089870155
H   H98       1.0  0.28182  0.00339  0.86517  1.0000 0.1089870155
H   H99       1.0  0.36517  0.00339  0.78182  1.0000 0.1089870155
H   H100      1.0  0.21818  0.00339  0.63483  1.0000 0.1089870155
H   H101      1.0  0.36517  0.50338  0.28182  1.0000 0.1089870155
H   H102      1.0  0.21818  0.50340  0.13483  1.0000 0.1089870155
H   H103      1.0  0.13483  0.50340  0.21818  1.0000 0.1089870155
H   H104      1.0  0.28182  0.50338  0.36517  1.0000 0.1089870155
H   H105      1.0  0.86517  0.00338  0.28182  1.0000 0.1089870155
H   H106      1.0  0.71818  0.00340  0.13483  1.0000 0.1089870155
H   H107      1.0  0.63483  0.00340  0.21818  1.0000 0.1089870155
H   H108      1.0  0.78182  0.00338  0.36517  1.0000 0.1089870155
H   H109      1.0  0.63483  0.50339  0.71818  1.0000 0.1089870155
H   H110      1.0  0.78182  0.50339  0.86517  1.0000 0.1089870155
H   H111      1.0  0.86517  0.50339  0.78182  1.0000 0.1089870155
H   H112      1.0  0.71818  0.50339  0.63483  1.0000 0.1089870155
C   C1        1.0  0.85113  0.14887  0.00249  1.0000 0.6311843036
C   C2        1.0  0.14887  0.14887  0.99750  1.0000 0.6311843036
C   C3        1.0  0.99750  0.14887  0.14887  1.0000 0.6311843036
C   C4        1.0  0.00250  0.14887  0.85113  1.0000 0.6311843036
C   C5        1.0  0.14887  0.85113  0.00250  1.0000 0.6311843036
C   C6        1.0  0.85113  0.85113  0.99750  1.0000 0.6311843036
C   C7        1.0  0.14887  0.99751  0.14887  1.0000 0.6311843036
C   C8        1.0  0.14887  0.00249  0.85113  1.0000 0.6311843036
C   C9        1.0  0.85113  0.99750  0.85113  1.0000 0.6311843036
C   C10       1.0  0.85113  0.00250  0.14887  1.0000 0.6311843036
C   C11       1.0  0.00249  0.85113  0.14887  1.0000 0.6311843036
C   C12       1.0  0.99751  0.85113  0.85113  1.0000 0.6311843036
C   C13       1.0  0.35113  0.64887  0.00249  1.0000 0.6311843036
C   C14       1.0  0.64887  0.64887  0.99750  1.0000 0.6311843036
C   C15       1.0  0.49750  0.64887  0.14887  1.0000 0.6311843036
C   C16       1.0  0.50250  0.64887  0.85113  1.0000 0.6311843036
C   C17       1.0  0.64887  0.35113  0.00250  1.0000 0.6311843036
C   C18       1.0  0.35113  0.35113  0.99750  1.0000 0.6311843036
C   C19       1.0  0.64887  0.49751  0.14887  1.0000 0.6311843036
C   C20       1.0  0.64887  0.50249  0.85113  1.0000 0.6311843036
C   C21       1.0  0.35113  0.49750  0.85113  1.0000 0.6311843036
C   C22       1.0  0.35113  0.50250  0.14887  1.0000 0.6311843036
C   C23       1.0  0.50249  0.35113  0.14887  1.0000 0.6311843036
C   C24       1.0  0.49751  0.35113  0.85113  1.0000 0.6311843036
C   C25       1.0  0.85113  0.64887  0.50250  1.0000 0.6311843036
C   C26       1.0  0.14887  0.64887  0.49750  1.0000 0.6311843036
C   C27       1.0  0.99751  0.64887  0.64887  1.0000 0.6311843036
C   C28       1.0  0.00249  0.64887  0.35113  1.0000 0.6311843036
C   C29       1.0  0.14887  0.35113  0.50249  1.0000 0.6311843036
C   C30       1.0  0.85113  0.35113  0.49750  1.0000 0.6311843036
C   C31       1.0  0.14887  0.49750  0.64887  1.0000 0.6311843036
C   C32       1.0  0.14887  0.50250  0.35113  1.0000 0.6311843036
C   C33       1.0  0.85113  0.49751  0.35113  1.0000 0.6311843036
C   C34       1.0  0.85113  0.50249  0.64887  1.0000 0.6311843036
C   C35       1.0  0.00250  0.35113  0.64887  1.0000 0.6311843036
C   C36       1.0  0.99750  0.35113  0.35113  1.0000 0.6311843036
C   C37       1.0  0.35113  0.14887  0.50250  1.0000 0.6311843036
C   C38       1.0  0.64887  0.14887  0.49750  1.0000 0.6311843036
C   C39       1.0  0.49751  0.14887  0.64887  1.0000 0.6311843036
C   C40       1.0  0.50249  0.14887  0.35113  1.0000 0.6311843036
C   C41       1.0  0.64887  0.85113  0.50249  1.0000 0.6311843036
C   C42       1.0  0.35113  0.85113  0.49750  1.0000 0.6311843036
C   C43       1.0  0.64887  0.99750  0.64887  1.0000 0.6311843036
C   C44       1.0  0.64887  0.00250  0.35113  1.0000 0.6311843036
C   C45       1.0  0.35113  0.99751  0.35113  1.0000 0.6311843036
C   C46       1.0  0.35113  0.00249  0.64887  1.0000 0.6311843036
C   C47       1.0  0.50250  0.85113  0.64887  1.0000 0.6311843036
C   C48       1.0  0.49750  0.85113  0.35113  1.0000 0.6311843036
C   C49       1.0  0.26694  0.18485  0.99653  1.0000 -0.111694398
C   C50       1.0  0.20070  0.20070  0.99668  1.0000 -0.0315113305
C   C51       1.0  0.18485  0.26694  0.99653  1.0000 -0.111694398
C   C52       1.0  0.23306  0.31515  0.99653  1.0000 -0.111694398
C   C53       1.0  0.29930  0.29930  0.99668  1.0000 -0.0315113305
C   C54       1.0  0.31515  0.23306  0.99653  1.0000 -0.111694398
C   C55       1.0  0.26694  0.68485  0.49653  1.0000 -0.111694398
C   C56       1.0  0.20070  0.70070  0.49668  1.0000 -0.0315113305
C   C57       1.0  0.18485  0.76694  0.49653  1.0000 -0.111694398
C   C58       1.0  0.23306  0.81515  0.49653  1.0000 -0.111694398
C   C59       1.0  0.29930  0.79930  0.49668  1.0000 -0.0315113305
C   C60       1.0  0.31515  0.73306  0.49653  1.0000 -0.111694398
C   C61       1.0  0.81515  0.73306  0.99653  1.0000 -0.111694398
C   C62       1.0  0.79930  0.79930  0.99668  1.0000 -0.0315113305
C   C63       1.0  0.73306  0.81515  0.99653  1.0000 -0.111694398
C   C64       1.0  0.68485  0.76694  0.99653  1.0000 -0.111694398
C   C65       1.0  0.70070  0.70070  0.99668  1.0000 -0.0315113305
C   C66       1.0  0.76694  0.68485  0.99653  1.0000 -0.111694398
C   C67       1.0  0.81515  0.23306  0.49653  1.0000 -0.111694398
C   C68       1.0  0.79930  0.29930  0.49668  1.0000 -0.0315113305
C   C69       1.0  0.73306  0.31515  0.49653  1.0000 -0.111694398
C   C70       1.0  0.68485  0.26694  0.49653  1.0000 -0.111694398
C   C71       1.0  0.70070  0.20070  0.49668  1.0000 -0.0315113305
C   C72       1.0  0.76694  0.18485  0.49653  1.0000 -0.111694398
C   C73       1.0  0.81515  0.26694  0.00347  1.0000 -0.111694398
C   C74       1.0  0.79930  0.20070  0.00332  1.0000 -0.0315113305
C   C75       1.0  0.73306  0.18485  0.00347  1.0000 -0.111694398
C   C76       1.0  0.68485  0.23306  0.00347  1.0000 -0.111694398
C   C77       1.0  0.70070  0.29930  0.00332  1.0000 -0.0315113305
C   C78       1.0  0.76694  0.31515  0.00347  1.0000 -0.111694398
C   C79       1.0  0.81515  0.76694  0.50347  1.0000 -0.111694398
C   C80       1.0  0.79930  0.70070  0.50332  1.0000 -0.0315113305
C   C81       1.0  0.73306  0.68485  0.50347  1.0000 -0.111694398
C   C82       1.0  0.68485  0.73306  0.50347  1.0000 -0.111694398
C   C83       1.0  0.70070  0.79930  0.50332  1.0000 -0.0315113305
C   C84       1.0  0.76694  0.81515  0.50347  1.0000 -0.111694398
C   C85       1.0  0.18485  0.23306  0.50347  1.0000 -0.111694398
C   C86       1.0  0.20070  0.29930  0.50332  1.0000 -0.0315113305
C   C87       1.0  0.26694  0.31515  0.50347  1.0000 -0.111694398
C   C88       1.0  0.31515  0.26694  0.50347  1.0000 -0.111694398
C   C89       1.0  0.29930  0.20070  0.50332  1.0000 -0.0315113305
C   C90       1.0  0.23306  0.18485  0.50347  1.0000 -0.111694398
C   C91       1.0  0.18485  0.73306  0.00347  1.0000 -0.111694398
C   C92       1.0  0.20070  0.79930  0.00332  1.0000 -0.0315113305
C   C93       1.0  0.26694  0.81515  0.00347  1.0000 -0.111694398
C   C94       1.0  0.31515  0.76694  0.00347  1.0000 -0.111694398
C   C95       1.0  0.29930  0.70070  0.00332  1.0000 -0.0315113305
C   C96       1.0  0.23306  0.68485  0.00347  1.0000 -0.111694398
C   C97       1.0  0.99655  0.26694  0.18485  1.0000 -0.111694398
C   C98       1.0  0.99668  0.20070  0.20070  1.0000 -0.0315113305
C   C99       1.0  0.99652  0.18485  0.26694  1.0000 -0.111694398
C   C100      1.0  0.99652  0.23306  0.31515  1.0000 -0.111694398
C   C101      1.0  0.99668  0.29930  0.29930  1.0000 -0.0315113305
C   C102      1.0  0.99655  0.31515  0.23306  1.0000 -0.111694398
C   C103      1.0  0.49653  0.31515  0.73306  1.0000 -0.111694398
C   C104      1.0  0.49668  0.29930  0.79930  1.0000 -0.0315113305
C   C105      1.0  0.49654  0.23306  0.81515  1.0000 -0.111694398
C   C106      1.0  0.49654  0.18485  0.76694  1.0000 -0.111694398
C   C107      1.0  0.49668  0.20070  0.70070  1.0000 -0.0315113305
C   C108      1.0  0.49653  0.26694  0.68485  1.0000 -0.111694398
C   C109      1.0  0.99653  0.81515  0.73306  1.0000 -0.111694398
C   C110      1.0  0.99668  0.79930  0.79930  1.0000 -0.0315113305
C   C111      1.0  0.99654  0.73306  0.81515  1.0000 -0.111694398
C   C112      1.0  0.99654  0.68485  0.76694  1.0000 -0.111694398
C   C113      1.0  0.99668  0.70070  0.70070  1.0000 -0.0315113305
C   C114      1.0  0.99653  0.76694  0.68485  1.0000 -0.111694398
C   C115      1.0  0.49655  0.76694  0.18485  1.0000 -0.111694398
C   C116      1.0  0.49668  0.70070  0.20070  1.0000 -0.0315113305
C   C117      1.0  0.49652  0.68485  0.26694  1.0000 -0.111694398
C   C118      1.0  0.49652  0.73306  0.31515  1.0000 -0.111694398
C   C119      1.0  0.49668  0.79930  0.29930  1.0000 -0.0315113305
C   C120      1.0  0.49655  0.81515  0.23306  1.0000 -0.111694398
C   C121      1.0  0.00346  0.81515  0.26694  1.0000 -0.111694398
C   C122      1.0  0.00332  0.79930  0.20070  1.0000 -0.0315113305
C   C123      1.0  0.00347  0.73306  0.18485  1.0000 -0.111694398
C   C124      1.0  0.00347  0.68485  0.23306  1.0000 -0.111694398
C   C125      1.0  0.00332  0.70070  0.29930  1.0000 -0.0315113305
C   C126      1.0  0.00346  0.76694  0.31515  1.0000 -0.111694398
C   C127      1.0  0.50348  0.76694  0.81515  1.0000 -0.111694398
C   C128      1.0  0.50332  0.70070  0.79930  1.0000 -0.0315113305
C   C129      1.0  0.50345  0.68485  0.73306  1.0000 -0.111694398
C   C130      1.0  0.50345  0.73306  0.68485  1.0000 -0.111694398
C   C131      1.0  0.50332  0.79930  0.70070  1.0000 -0.0315113305
C   C132      1.0  0.50348  0.81515  0.76694  1.0000 -0.111694398
C   C133      1.0  0.50346  0.31515  0.26694  1.0000 -0.111694398
C   C134      1.0  0.50332  0.29930  0.20070  1.0000 -0.0315113305
C   C135      1.0  0.50347  0.23306  0.18485  1.0000 -0.111694398
C   C136      1.0  0.50347  0.18485  0.23306  1.0000 -0.111694398
C   C137      1.0  0.50332  0.20070  0.29930  1.0000 -0.0315113305
C   C138      1.0  0.50346  0.26694  0.31515  1.0000 -0.111694398
C   C139      1.0  0.00348  0.26694  0.81515  1.0000 -0.111694398
C   C140      1.0  0.00332  0.20070  0.79930  1.0000 -0.0315113305
C   C141      1.0  0.00345  0.18485  0.73306  1.0000 -0.111694398
C   C142      1.0  0.00345  0.23306  0.68485  1.0000 -0.111694398
C   C143      1.0  0.00332  0.29930  0.70070  1.0000 -0.0315113305
C   C144      1.0  0.00348  0.31515  0.76694  1.0000 -0.111694398
C   C145      1.0  0.18485  0.99654  0.26694  1.0000 -0.111694398
C   C146      1.0  0.20070  0.99668  0.20070  1.0000 -0.0315113305
C   C147      1.0  0.26694  0.99653  0.18485  1.0000 -0.111694398
C   C148      1.0  0.31515  0.99653  0.23306  1.0000 -0.111694398
C   C149      1.0  0.29930  0.99668  0.29930  1.0000 -0.0315113305
C   C150      1.0  0.23306  0.99654  0.31515  1.0000 -0.111694398
C   C151      1.0  0.31515  0.49653  0.73306  1.0000 -0.111694398
C   C152      1.0  0.29930  0.49668  0.79930  1.0000 -0.0315113305
C   C153      1.0  0.23306  0.49654  0.81515  1.0000 -0.111694398
C   C154      1.0  0.18485  0.49654  0.76694  1.0000 -0.111694398
C   C155      1.0  0.20070  0.49668  0.70070  1.0000 -0.0315113305
C   C156      1.0  0.26694  0.49653  0.68485  1.0000 -0.111694398
C   C157      1.0  0.81515  0.99653  0.73306  1.0000 -0.111694398
C   C158      1.0  0.79930  0.99668  0.79930  1.0000 -0.0315113305
C   C159      1.0  0.73306  0.99654  0.81515  1.0000 -0.111694398
C   C160      1.0  0.68485  0.99654  0.76694  1.0000 -0.111694398
C   C161      1.0  0.70070  0.99668  0.70070  1.0000 -0.0315113305
C   C162      1.0  0.76694  0.99653  0.68485  1.0000 -0.111694398
C   C163      1.0  0.68485  0.49654  0.26694  1.0000 -0.111694398
C   C164      1.0  0.70070  0.49668  0.20070  1.0000 -0.0315113305
C   C165      1.0  0.76694  0.49653  0.18485  1.0000 -0.111694398
C   C166      1.0  0.81515  0.49653  0.23306  1.0000 -0.111694398
C   C167      1.0  0.79930  0.49668  0.29930  1.0000 -0.0315113305
C   C168      1.0  0.73306  0.49654  0.31515  1.0000 -0.111694398
C   C169      1.0  0.18485  0.00347  0.73306  1.0000 -0.111694398
C   C170      1.0  0.20070  0.00332  0.79930  1.0000 -0.0315113305
C   C171      1.0  0.26694  0.00346  0.81515  1.0000 -0.111694398
C   C172      1.0  0.31515  0.00346  0.76694  1.0000 -0.111694398
C   C173      1.0  0.29930  0.00332  0.70070  1.0000 -0.0315113305
C   C174      1.0  0.23306  0.00347  0.68485  1.0000 -0.111694398
C   C175      1.0  0.31515  0.50346  0.26694  1.0000 -0.111694398
C   C176      1.0  0.29930  0.50332  0.20070  1.0000 -0.0315113305
C   C177      1.0  0.23306  0.50347  0.18485  1.0000 -0.111694398
C   C178      1.0  0.18485  0.50347  0.23306  1.0000 -0.111694398
C   C179      1.0  0.20070  0.50332  0.29930  1.0000 -0.0315113305
C   C180      1.0  0.26694  0.50346  0.31515  1.0000 -0.111694398
C   C181      1.0  0.81515  0.00346  0.26694  1.0000 -0.111694398
C   C182      1.0  0.79930  0.00332  0.20070  1.0000 -0.0315113305
C   C183      1.0  0.73306  0.00347  0.18485  1.0000 -0.111694398
C   C184      1.0  0.68485  0.00347  0.23306  1.0000 -0.111694398
C   C185      1.0  0.70070  0.00332  0.29930  1.0000 -0.0315113305
C   C186      1.0  0.76694  0.00346  0.31515  1.0000 -0.111694398
C   C187      1.0  0.68485  0.50347  0.73306  1.0000 -0.111694398
C   C188      1.0  0.70070  0.50332  0.79930  1.0000 -0.0315113305
C   C189      1.0  0.76694  0.50346  0.81515  1.0000 -0.111694398
C   C190      1.0  0.81515  0.50346  0.76694  1.0000 -0.111694398
C   C191      1.0  0.79930  0.50332  0.70070  1.0000 -0.0315113305
C   C192      1.0  0.73306  0.50347  0.68485  1.0000 -0.111694398
O   O1        1.0  0.83268  0.08866  0.00176  1.0000 -0.5840562867
O   O2        1.0  0.16732  0.08866  0.99824  1.0000 -0.5840562867
O   O3        1.0  0.99824  0.16732  0.08866  1.0000 -0.5840562867
O   O4        1.0  0.00176  0.16732  0.91134  1.0000 -0.5840562867
O   O5        1.0  0.00176  0.08866  0.83268  1.0000 -0.5840562867
O   O6        1.0  0.99824  0.08866  0.16732  1.0000 -0.5840562867
O   O7        1.0  0.08866  0.16732  0.99824  1.0000 -0.5840562867
O   O8        1.0  0.91134  0.16732  0.00176  1.0000 -0.5840562867
O   O9        1.0  0.05863  0.05863  0.94137  1.0000 -1.102759211
O   O10       1.0  0.94137  0.05863  0.05863  1.0000 -1.102759211
O   O11       1.0  0.05820  0.05820  0.05820  1.0000 -0.9856538292
O   O12       1.0  0.94180  0.05820  0.94180  1.0000 -0.9856538292
O   O13       1.0  0.16732  0.91134  0.00176  1.0000 -0.5840562867
O   O14       1.0  0.83268  0.91134  0.99824  1.0000 -0.5840562867
O   O15       1.0  0.08866  0.99824  0.16732  1.0000 -0.5840562867
O   O16       1.0  0.08866  0.00176  0.83268  1.0000 -0.5840562867
O   O17       1.0  0.91134  0.99824  0.83268  1.0000 -0.5840562867
O   O18       1.0  0.91134  0.00176  0.16732  1.0000 -0.5840562867
O   O19       1.0  0.00176  0.83268  0.08866  1.0000 -0.5840562867
O   O20       1.0  0.99824  0.83268  0.91134  1.0000 -0.5840562867
O   O21       1.0  0.00176  0.91134  0.16732  1.0000 -0.5840562867
O   O22       1.0  0.99824  0.91134  0.83268  1.0000 -0.5840562867
O   O23       1.0  0.16732  0.99824  0.08866  1.0000 -0.5840562867
O   O24       1.0  0.83268  0.00176  0.08866  1.0000 -0.5840562867
O   O25       1.0  0.83268  0.99824  0.91134  1.0000 -0.5840562867
O   O26       1.0  0.16732  0.00176  0.91134  1.0000 -0.5840562867
O   O27       1.0  0.08866  0.83268  0.00176  1.0000 -0.5840562867
O   O28       1.0  0.91134  0.83268  0.99824  1.0000 -0.5840562867
O   O29       1.0  0.94137  0.94137  0.94137  1.0000 -1.102759211
O   O30       1.0  0.05863  0.94137  0.05863  1.0000 -1.102759211
O   O31       1.0  0.94180  0.94180  0.05820  1.0000 -0.9856538292
O   O32       1.0  0.05820  0.94180  0.94180  1.0000 -0.9856538292
O   O33       1.0  0.33268  0.58866  0.00176  1.0000 -0.5840562867
O   O34       1.0  0.66732  0.58866  0.99824  1.0000 -0.5840562867
O   O35       1.0  0.49824  0.66732  0.08866  1.0000 -0.5840562867
O   O36       1.0  0.50176  0.66732  0.91134  1.0000 -0.5840562867
O   O37       1.0  0.50176  0.58866  0.83268  1.0000 -0.5840562867
O   O38       1.0  0.49824  0.58866  0.16732  1.0000 -0.5840562867
O   O39       1.0  0.58866  0.66732  0.99824  1.0000 -0.5840562867
O   O40       1.0  0.41134  0.66732  0.00176  1.0000 -0.5840562867
O   O41       1.0  0.55863  0.55863  0.94137  1.0000 -1.102759211
O   O42       1.0  0.44137  0.55863  0.05863  1.0000 -1.102759211
O   O43       1.0  0.55820  0.55820  0.05820  1.0000 -0.9856538292
O   O44       1.0  0.44180  0.55820  0.94180  1.0000 -0.9856538292
O   O45       1.0  0.66732  0.41134  0.00176  1.0000 -0.5840562867
O   O46       1.0  0.33268  0.41134  0.99824  1.0000 -0.5840562867
O   O47       1.0  0.58866  0.49824  0.16732  1.0000 -0.5840562867
O   O48       1.0  0.58866  0.50176  0.83268  1.0000 -0.5840562867
O   O49       1.0  0.41134  0.49824  0.83268  1.0000 -0.5840562867
O   O50       1.0  0.41134  0.50176  0.16732  1.0000 -0.5840562867
O   O51       1.0  0.50176  0.33268  0.08866  1.0000 -0.5840562867
O   O52       1.0  0.49824  0.33268  0.91134  1.0000 -0.5840562867
O   O53       1.0  0.50176  0.41134  0.16732  1.0000 -0.5840562867
O   O54       1.0  0.49824  0.41134  0.83268  1.0000 -0.5840562867
O   O55       1.0  0.66732  0.49824  0.08866  1.0000 -0.5840562867
O   O56       1.0  0.33268  0.50176  0.08866  1.0000 -0.5840562867
O   O57       1.0  0.33268  0.49824  0.91134  1.0000 -0.5840562867
O   O58       1.0  0.66732  0.50176  0.91134  1.0000 -0.5840562867
O   O59       1.0  0.58866  0.33268  0.00176  1.0000 -0.5840562867
O   O60       1.0  0.41134  0.33268  0.99824  1.0000 -0.5840562867
O   O61       1.0  0.44137  0.44137  0.94137  1.0000 -1.102759211
O   O62       1.0  0.55863  0.44137  0.05863  1.0000 -1.102759211
O   O63       1.0  0.44180  0.44180  0.05820  1.0000 -0.9856538292
O   O64       1.0  0.55820  0.44180  0.94180  1.0000 -0.9856538292
O   O65       1.0  0.83268  0.58866  0.50176  1.0000 -0.5840562867
O   O66       1.0  0.16732  0.58866  0.49824  1.0000 -0.5840562867
O   O67       1.0  0.99824  0.66732  0.58866  1.0000 -0.5840562867
O   O68       1.0  0.00176  0.66732  0.41134  1.0000 -0.5840562867
O   O69       1.0  0.00176  0.58866  0.33268  1.0000 -0.5840562867
O   O70       1.0  0.99824  0.58866  0.66732  1.0000 -0.5840562867
O   O71       1.0  0.08866  0.66732  0.49824  1.0000 -0.5840562867
O   O72       1.0  0.91134  0.66732  0.50176  1.0000 -0.5840562867
O   O73       1.0  0.05863  0.55863  0.44137  1.0000 -1.102759211
O   O74       1.0  0.94137  0.55863  0.55863  1.0000 -1.102759211
O   O75       1.0  0.05820  0.55820  0.55820  1.0000 -0.9856538292
O   O76       1.0  0.94180  0.55820  0.44180  1.0000 -0.984419583
O   O77       1.0  0.16732  0.41134  0.50176  1.0000 -0.5840562867
O   O78       1.0  0.83268  0.41134  0.49824  1.0000 -0.5840562867
O   O79       1.0  0.08866  0.49824  0.66732  1.0000 -0.5840562867
O   O80       1.0  0.08866  0.50176  0.33268  1.0000 -0.5840562867
O   O81       1.0  0.91134  0.49824  0.33268  1.0000 -0.5840562867
O   O82       1.0  0.91134  0.50176  0.66732  1.0000 -0.5840562867
O   O83       1.0  0.00176  0.33268  0.58866  1.0000 -0.5840562867
O   O84       1.0  0.99824  0.33268  0.41134  1.0000 -0.5840562867
O   O85       1.0  0.00176  0.41134  0.66732  1.0000 -0.5840562867
O   O86       1.0  0.99824  0.41134  0.33268  1.0000 -0.5840562867
O   O87       1.0  0.16732  0.49824  0.58866  1.0000 -0.5840562867
O   O88       1.0  0.83268  0.50176  0.58866  1.0000 -0.5840562867
O   O89       1.0  0.83268  0.49824  0.41134  1.0000 -0.5840562867
O   O90       1.0  0.16732  0.50176  0.41134  1.0000 -0.5840562867
O   O91       1.0  0.08866  0.33268  0.50176  1.0000 -0.5840562867
O   O92       1.0  0.91134  0.33268  0.49824  1.0000 -0.5840562867
O   O93       1.0  0.94137  0.44137  0.44137  1.0000 -1.102759211
O   O94       1.0  0.05863  0.44137  0.55863  1.0000 -1.102759211
O   O95       1.0  0.94180  0.44180  0.55820  1.0000 -0.984419583
O   O96       1.0  0.05820  0.44180  0.44180  1.0000 -0.9856538292
O   O97       1.0  0.33268  0.08866  0.50176  1.0000 -0.5840562867
O   O98       1.0  0.66732  0.08866  0.49824  1.0000 -0.5840562867
O   O99       1.0  0.49824  0.16732  0.58866  1.0000 -0.5840562867
O   O100      1.0  0.50176  0.16732  0.41134  1.0000 -0.5840562867
O   O101      1.0  0.50176  0.08866  0.33268  1.0000 -0.5840562867
O   O102      1.0  0.49824  0.08866  0.66732  1.0000 -0.5840562867
O   O103      1.0  0.58866  0.16732  0.49824  1.0000 -0.5840562867
O   O104      1.0  0.41134  0.16732  0.50176  1.0000 -0.5840562867
O   O105      1.0  0.55863  0.05863  0.44137  1.0000 -1.102759211
O   O106      1.0  0.44137  0.05863  0.55863  1.0000 -1.102759211
O   O107      1.0  0.55820  0.05820  0.55820  1.0000 -0.9856538292
O   O108      1.0  0.44180  0.05820  0.44180  1.0000 -0.9856538292
O   O109      1.0  0.66732  0.91134  0.50176  1.0000 -0.5840562867
O   O110      1.0  0.33268  0.91134  0.49824  1.0000 -0.5840562867
O   O111      1.0  0.58866  0.99824  0.66732  1.0000 -0.5840562867
O   O112      1.0  0.58866  0.00176  0.33268  1.0000 -0.5840562867
O   O113      1.0  0.41134  0.99824  0.33268  1.0000 -0.5840562867
O   O114      1.0  0.41134  0.00176  0.66732  1.0000 -0.5840562867
O   O115      1.0  0.50176  0.83268  0.58866  1.0000 -0.5840562867
O   O116      1.0  0.49824  0.83268  0.41134  1.0000 -0.5840562867
O   O117      1.0  0.50176  0.91134  0.66732  1.0000 -0.5840562867
O   O118      1.0  0.49824  0.91134  0.33268  1.0000 -0.5840562867
O   O119      1.0  0.66732  0.99824  0.58866  1.0000 -0.5840562867
O   O120      1.0  0.33268  0.00176  0.58866  1.0000 -0.5840562867
O   O121      1.0  0.33268  0.99824  0.41134  1.0000 -0.5840562867
O   O122      1.0  0.66732  0.00176  0.41134  1.0000 -0.5840562867
O   O123      1.0  0.58866  0.83268  0.50176  1.0000 -0.5840562867
O   O124      1.0  0.41134  0.83268  0.49824  1.0000 -0.5840562867
O   O125      1.0  0.44137  0.94137  0.44137  1.0000 -1.102759211
O   O126      1.0  0.55863  0.94137  0.55863  1.0000 -1.102759211
O   O127      1.0  0.44180  0.94180  0.55820  1.0000 -0.9856538292
O   O128      1.0  0.55820  0.94180  0.44180  1.0000 -0.9856538292
