# DDEC6 charges by PACMAN v1.1 (https://github.com/mtap-research/PACMAN-charge/)
data_2014[Co][crb]3[ASR]2
_chemical_formula_sum              "Co8 H96 C152 N16 O40"
_cell_length_a       21.6461
_cell_length_b       11.5792
_cell_length_c       19.7016
_cell_angle_alpha    90
_cell_angle_beta     93.866
_cell_angle_gamma    90

_symmetry_space_group_name_H-M    "P 1"
_symmetry_Int_Tables_number       1

loop_
  _symmetry_equiv_pos_as_xyz
  'x, y, z'

loop_
  _atom_site_type_symbol
  _atom_site_label
  _atom_site_symmetry_multiplicity
  _atom_site_fract_x
  _atom_site_fract_y
  _atom_site_fract_z
  _atom_site_occupancy
  _atom_site_charge
Co  Co1       1.0  0.15200  0.34567  0.68342  1.0000 0.8710353838
Co  Co2       1.0  0.84800  0.65433  0.31658  1.0000 0.8710353838
Co  Co3       1.0  0.84800  0.84567  0.81658  1.0000 0.8710353838
Co  Co4       1.0  0.15200  0.15433  0.18342  1.0000 0.8710353838
Co  Co5       1.0  0.06568  0.18838  0.56408  1.0000 0.7066652642
Co  Co6       1.0  0.93432  0.81162  0.43592  1.0000 0.7066652642
Co  Co7       1.0  0.93432  0.68838  0.93592  1.0000 0.7066652642
Co  Co8       1.0  0.06568  0.31162  0.06408  1.0000 0.7066652642
H   H1        1.0  0.39473  0.28613  0.50310  1.0000 0.2701368497
H   H2        1.0  0.60527  0.71387  0.49690  1.0000 0.2701368497
H   H3        1.0  0.60527  0.78613  0.99690  1.0000 0.2701368497
H   H4        1.0  0.39473  0.21387  0.00310  1.0000 0.2701368497
H   H5        1.0  0.75644  0.48394  0.66478  1.0000 0.2701368497
H   H6        1.0  0.24356  0.51606  0.33522  1.0000 0.2701368497
H   H7        1.0  0.24356  0.98394  0.83522  1.0000 0.2701368497
H   H8        1.0  0.75644  0.01606  0.16478  1.0000 0.2701368497
H   H9        1.0  0.13604  0.25680  0.40158  1.0000 0.1276137001
H   H10       1.0  0.86396  0.74320  0.59842  1.0000 0.1276137001
H   H11       1.0  0.86396  0.75680  0.09842  1.0000 0.1276137001
H   H12       1.0  0.13604  0.24320  0.90158  1.0000 0.1276137001
H   H13       1.0  0.32109  0.22288  0.33190  1.0000 0.1386970074
H   H14       1.0  0.67891  0.77712  0.66810  1.0000 0.1386970074
H   H15       1.0  0.67891  0.72288  0.16810  1.0000 0.1386970074
H   H16       1.0  0.32109  0.27712  0.83190  1.0000 0.1386970074
H   H17       1.0  0.29482  0.32515  0.54072  1.0000 0.1276137001
H   H18       1.0  0.70518  0.67485  0.45928  1.0000 0.1276137001
H   H19       1.0  0.70518  0.82515  0.95928  1.0000 0.1276137001
H   H20       1.0  0.29482  0.17485  0.04072  1.0000 0.1276137001
H   H21       1.0  0.52347  0.22963  0.34139  1.0000 0.1188490286
H   H22       1.0  0.47653  0.77037  0.65861  1.0000 0.1188490286
H   H23       1.0  0.47653  0.72963  0.15861  1.0000 0.1188490286
H   H24       1.0  0.52347  0.27037  0.84139  1.0000 0.1188490286
H   H25       1.0  0.63571  0.25457  0.37715  1.0000 0.1012513532
H   H26       1.0  0.36429  0.74543  0.62285  1.0000 0.1012513532
H   H27       1.0  0.36429  0.75457  0.12285  1.0000 0.1012513532
H   H28       1.0  0.63571  0.24543  0.87715  1.0000 0.1012513532
H   H29       1.0  0.71729  0.32719  0.46229  1.0000 0.1012513532
H   H30       1.0  0.28271  0.67281  0.53771  1.0000 0.1012513532
H   H31       1.0  0.28271  0.82719  0.03771  1.0000 0.1012513532
H   H32       1.0  0.71729  0.17281  0.96229  1.0000 0.1012513532
H   H33       1.0  0.66459  0.48160  0.64952  1.0000 0.1012513532
H   H34       1.0  0.33541  0.51840  0.35048  1.0000 0.1012513532
H   H35       1.0  0.33541  0.98160  0.85048  1.0000 0.1012513532
H   H36       1.0  0.66459  0.01840  0.14952  1.0000 0.1012513532
H   H37       1.0  0.55552  0.44346  0.61752  1.0000 0.1188490286
H   H38       1.0  0.44448  0.55654  0.38248  1.0000 0.1188490286
H   H39       1.0  0.44448  0.94346  0.88248  1.0000 0.1188490286
H   H40       1.0  0.55552  0.05654  0.11752  1.0000 0.1188490286
H   H41       1.0  0.47313  0.37609  0.53207  1.0000 0.1012513532
H   H42       1.0  0.52687  0.62391  0.46793  1.0000 0.1012513532
H   H43       1.0  0.52687  0.87609  0.96793  1.0000 0.1012513532
H   H44       1.0  0.47313  0.12391  0.03207  1.0000 0.1012513532
H   H45       1.0  0.89879  0.37232  0.58361  1.0000 0.1386970074
H   H46       1.0  0.10121  0.62768  0.41639  1.0000 0.1386970074
H   H47       1.0  0.10121  0.87232  0.91639  1.0000 0.1386970074
H   H48       1.0  0.89879  0.12768  0.08361  1.0000 0.1386970074
H   H49       1.0  0.01445  0.49338  0.75639  1.0000 0.1276137001
H   H50       1.0  0.98555  0.50662  0.24361  1.0000 0.1276137001
H   H51       1.0  0.98555  0.99338  0.74361  1.0000 0.1276137001
H   H52       1.0  0.01445  0.00662  0.25639  1.0000 0.1276137001
H   H53       1.0  0.81810  0.56878  0.74405  1.0000 0.1188490286
H   H54       1.0  0.18190  0.43122  0.25595  1.0000 0.1188490286
H   H55       1.0  0.18190  0.06878  0.75595  1.0000 0.1188490286
H   H56       1.0  0.81810  0.93122  0.24405  1.0000 0.1188490286
H   H57       1.0  0.20551  0.53204  0.59667  1.0000 0.1012513532
H   H58       1.0  0.79449  0.46796  0.40333  1.0000 0.1012513532
H   H59       1.0  0.79449  0.03204  0.90333  1.0000 0.1012513532
H   H60       1.0  0.20551  0.96796  0.09667  1.0000 0.1012513532
H   H61       1.0  0.22685  0.74277  0.60780  1.0000 0.1012513532
H   H62       1.0  0.77315  0.25723  0.39220  1.0000 0.1012513532
H   H63       1.0  0.77315  0.24277  0.89220  1.0000 0.1012513532
H   H64       1.0  0.22685  0.75723  0.10780  1.0000 0.1012513532
H   H65       1.0  0.20734  0.84500  0.71803  1.0000 0.0907761508
H   H66       1.0  0.79266  0.15500  0.28197  1.0000 0.0907761508
H   H67       1.0  0.79266  0.34500  0.78197  1.0000 0.0907761508
H   H68       1.0  0.20734  0.65500  0.21803  1.0000 0.0907761508
H   H69       1.0  0.16363  0.72710  0.81180  1.0000 0.1012513532
H   H70       1.0  0.83637  0.27290  0.18820  1.0000 0.1012513532
H   H71       1.0  0.83637  0.22710  0.68820  1.0000 0.1012513532
H   H72       1.0  0.16363  0.77290  0.31180  1.0000 0.1012513532
H   H73       1.0  0.14407  0.51664  0.79315  1.0000 0.0907761508
H   H74       1.0  0.85593  0.48336  0.20685  1.0000 0.0907761508
H   H75       1.0  0.85593  0.01664  0.70685  1.0000 0.0907761508
H   H76       1.0  0.14407  0.98336  0.29315  1.0000 0.0907761508
H   H77       1.0  0.03431  0.03267  0.45170  1.0000 0.1012513532
H   H78       1.0  0.96569  0.96733  0.54830  1.0000 0.1012513532
H   H79       1.0  0.96569  0.53267  0.04830  1.0000 0.1012513532
H   H80       1.0  0.03431  0.46733  0.95170  1.0000 0.1012513532
H   H81       1.0  0.08625  0.87065  0.39593  1.0000 0.1188490286
H   H82       1.0  0.91375  0.12935  0.60407  1.0000 0.1188490286
H   H83       1.0  0.91375  0.37065  0.10407  1.0000 0.1188490286
H   H84       1.0  0.08625  0.62935  0.89593  1.0000 0.1188490286
H   H85       1.0  0.19697  0.81855  0.43538  1.0000 0.1110054017
H   H86       1.0  0.80303  0.18145  0.56462  1.0000 0.1012513532
H   H87       1.0  0.80303  0.31855  0.06462  1.0000 0.1012513532
H   H88       1.0  0.19697  0.68145  0.93538  1.0000 0.1012513532
H   H89       1.0  0.24981  0.93607  0.53073  1.0000 0.1110054017
H   H90       1.0  0.75019  0.06393  0.46927  1.0000 0.1110054017
H   H91       1.0  0.75019  0.43607  0.96927  1.0000 0.1110054017
H   H92       1.0  0.24981  0.56393  0.03073  1.0000 0.1110054017
H   H93       1.0  0.18975  0.09181  0.58548  1.0000 0.1012513532
H   H94       1.0  0.81025  0.90819  0.41452  1.0000 0.1012513532
H   H95       1.0  0.81025  0.59181  0.91452  1.0000 0.1012513532
H   H96       1.0  0.18975  0.40819  0.08548  1.0000 0.1012513532
C   C1        1.0  0.16577  0.31531  0.53157  1.0000 0.5701826529
C   C2        1.0  0.83423  0.68469  0.46843  1.0000 0.5701826529
C   C3        1.0  0.83423  0.81531  0.96843  1.0000 0.5701826529
C   C4        1.0  0.16577  0.18469  0.03157  1.0000 0.5701826529
C   C5        1.0  0.19846  0.20446  0.29126  1.0000 0.5225202308
C   C6        1.0  0.80154  0.79554  0.70874  1.0000 0.5225202308
C   C7        1.0  0.80154  0.70446  0.20874  1.0000 0.5225202308
C   C8        1.0  0.19846  0.29554  0.79126  1.0000 0.5225202308
C   C9        1.0  0.21076  0.29610  0.47684  1.0000 -0.015618901
C   C10       1.0  0.78924  0.70390  0.52316  1.0000 -0.015618901
C   C11       1.0  0.78924  0.79610  0.02316  1.0000 -0.015618901
C   C12       1.0  0.21076  0.20390  0.97684  1.0000 -0.015618901
C   C13       1.0  0.18624  0.26305  0.41168  1.0000 -0.1298856002
C   C14       1.0  0.81376  0.73695  0.58832  1.0000 -0.1298856002
C   C15       1.0  0.81376  0.76305  0.08832  1.0000 -0.1298856002
C   C16       1.0  0.18624  0.23695  0.91168  1.0000 -0.1298856002
C   C17       1.0  0.22572  0.23787  0.35984  1.0000 -0.0290142605
C   C18       1.0  0.77428  0.76213  0.64016  1.0000 -0.0290142605
C   C19       1.0  0.77428  0.73787  0.14016  1.0000 -0.0290142605
C   C20       1.0  0.22572  0.26213  0.85984  1.0000 -0.0290142605
C   C21       1.0  0.29037  0.24330  0.37216  1.0000 -0.1835576466
C   C22       1.0  0.70963  0.75670  0.62784  1.0000 -0.1835576466
C   C23       1.0  0.70963  0.74330  0.12784  1.0000 -0.1835576466
C   C24       1.0  0.29037  0.25670  0.87216  1.0000 -0.1835576466
C   C25       1.0  0.31537  0.27465  0.43759  1.0000 0.2357178794
C   C26       1.0  0.68463  0.72535  0.56241  1.0000 0.2357178794
C   C27       1.0  0.68463  0.77465  0.06241  1.0000 0.2357178794
C   C28       1.0  0.31537  0.22535  0.93759  1.0000 0.2357178794
C   C29       1.0  0.27554  0.30121  0.48961  1.0000 -0.1953833683
C   C30       1.0  0.72446  0.69879  0.51039  1.0000 -0.1953833683
C   C31       1.0  0.72446  0.80121  0.01039  1.0000 -0.1953833683
C   C32       1.0  0.27554  0.19879  0.98961  1.0000 -0.1953833683
C   C33       1.0  0.42622  0.28354  0.40637  1.0000 0.4711693541
C   C34       1.0  0.57378  0.71646  0.59363  1.0000 0.4711693541
C   C35       1.0  0.57378  0.78354  0.09363  1.0000 0.4711693541
C   C36       1.0  0.42622  0.21646  0.90637  1.0000 0.4711693541
C   C37       1.0  0.49152  0.29613  0.43571  1.0000 -0.0290142605
C   C38       1.0  0.50848  0.70387  0.56429  1.0000 -0.0290142605
C   C39       1.0  0.50848  0.79613  0.06429  1.0000 -0.0290142605
C   C40       1.0  0.49152  0.20387  0.93571  1.0000 -0.0290142605
C   C41       1.0  0.53822  0.26384  0.39169  1.0000 -0.1015091746
C   C42       1.0  0.46178  0.73616  0.60831  1.0000 -0.1015091746
C   C43       1.0  0.46178  0.76384  0.10831  1.0000 -0.1015091746
C   C44       1.0  0.53822  0.23616  0.89169  1.0000 -0.1015091746
C   C45       1.0  0.59995  0.27878  0.41146  1.0000 -0.1298856002
C   C46       1.0  0.40005  0.72122  0.58854  1.0000 -0.1298856002
C   C47       1.0  0.40005  0.77878  0.08854  1.0000 -0.1298856002
C   C48       1.0  0.59995  0.22122  0.91146  1.0000 -0.1298856002
C   C49       1.0  0.61836  0.32955  0.47556  1.0000 0.0785698013
C   C50       1.0  0.38164  0.67045  0.52444  1.0000 0.0785698013
C   C51       1.0  0.38164  0.82955  0.02444  1.0000 0.0785698013
C   C52       1.0  0.61836  0.17045  0.97556  1.0000 0.0785698013
C   C53       1.0  0.68093  0.35103  0.49573  1.0000 -0.1476501881
C   C54       1.0  0.31907  0.64897  0.50427  1.0000 -0.1476501881
C   C55       1.0  0.31907  0.85103  0.00427  1.0000 -0.1476501881
C   C56       1.0  0.68093  0.14897  0.99573  1.0000 -0.1476501881
C   C57       1.0  0.69921  0.40420  0.55707  1.0000 -0.0416883554
C   C58       1.0  0.30079  0.59580  0.44293  1.0000 -0.0416883554
C   C59       1.0  0.30079  0.90420  0.94293  1.0000 -0.0416883554
C   C60       1.0  0.69921  0.09580  0.05707  1.0000 -0.0416883554
C   C61       1.0  0.65275  0.43688  0.60135  1.0000 -0.1208353864
C   C62       1.0  0.34725  0.56312  0.39865  1.0000 -0.1208353864
C   C63       1.0  0.34725  0.93688  0.89865  1.0000 -0.1208353864
C   C64       1.0  0.65275  0.06312  0.10135  1.0000 -0.1208353864
C   C65       1.0  0.59087  0.41655  0.58326  1.0000 -0.1208353864
C   C66       1.0  0.40913  0.58345  0.41674  1.0000 -0.1208353864
C   C67       1.0  0.40913  0.91655  0.91674  1.0000 -0.1208353864
C   C68       1.0  0.59087  0.08345  0.08326  1.0000 -0.1208353864
C   C69       1.0  0.57162  0.36296  0.52027  1.0000 0.0907761508
C   C70       1.0  0.42838  0.63704  0.47973  1.0000 0.0907761508
C   C71       1.0  0.42838  0.86296  0.97973  1.0000 0.0907761508
C   C72       1.0  0.57162  0.13704  0.02027  1.0000 0.0907761508
C   C73       1.0  0.50842  0.34486  0.49891  1.0000 -0.1697968862
C   C74       1.0  0.49158  0.65514  0.50109  1.0000 -0.1697968862
C   C75       1.0  0.49158  0.84486  0.00109  1.0000 -0.1697968862
C   C76       1.0  0.50842  0.15514  0.99891  1.0000 -0.1697968862
C   C77       1.0  0.76787  0.41968  0.56915  1.0000 0.4711693541
C   C78       1.0  0.23213  0.58032  0.43085  1.0000 0.4711693541
C   C79       1.0  0.23213  0.91968  0.93085  1.0000 0.4711693541
C   C80       1.0  0.76787  0.08032  0.06915  1.0000 0.4711693541
C   C81       1.0  0.85090  0.46812  0.66026  1.0000 0.233847724
C   C82       1.0  0.14910  0.53188  0.33974  1.0000 0.233847724
C   C83       1.0  0.14910  0.96812  0.83974  1.0000 0.233847724
C   C84       1.0  0.85090  0.03188  0.16026  1.0000 0.233847724
C   C85       1.0  0.90293  0.41905  0.63184  1.0000 -0.1835576466
C   C86       1.0  0.09707  0.58095  0.36816  1.0000 -0.1835576466
C   C87       1.0  0.09707  0.91905  0.86816  1.0000 -0.1835576466
C   C88       1.0  0.90293  0.08095  0.13184  1.0000 -0.1835576466
C   C89       1.0  0.96133  0.42934  0.66723  1.0000 -0.015618901
C   C90       1.0  0.03867  0.57066  0.33277  1.0000 -0.0138383131
C   C91       1.0  0.03867  0.92934  0.83277  1.0000 -0.015618901
C   C92       1.0  0.96133  0.07066  0.16723  1.0000 -0.0138383131
C   C93       1.0  0.96843  0.48744  0.72993  1.0000 -0.1208353864
C   C94       1.0  0.03157  0.51256  0.27007  1.0000 -0.1208353864
C   C95       1.0  0.03157  0.98744  0.77007  1.0000 -0.1208353864
C   C96       1.0  0.96843  0.01256  0.22993  1.0000 -0.1208353864
C   C97       1.0  0.91647  0.53813  0.75705  1.0000 -0.0138383131
C   C98       1.0  0.08353  0.46187  0.24295  1.0000 -0.0138383131
C   C99       1.0  0.08353  0.03813  0.74295  1.0000 -0.0138383131
C   C100      1.0  0.91647  0.96187  0.25705  1.0000 -0.0138383131
C   C101      1.0  0.85825  0.52842  0.72213  1.0000 -0.1914909019
C   C102      1.0  0.14175  0.47158  0.27787  1.0000 -0.1914909019
C   C103      1.0  0.14175  0.02842  0.77787  1.0000 -0.1914909019
C   C104      1.0  0.85825  0.97158  0.22213  1.0000 -0.1914909019
C   C105      1.0  0.01693  0.37203  0.64008  1.0000 0.5860575006
C   C106      1.0  0.98307  0.62797  0.35992  1.0000 0.5860575006
C   C107      1.0  0.98307  0.87203  0.85992  1.0000 0.5860575006
C   C108      1.0  0.01693  0.12797  0.14008  1.0000 0.5860575006
C   C109      1.0  0.92000  0.60170  0.82239  1.0000 0.5637589858
C   C110      1.0  0.08000  0.39830  0.17761  1.0000 0.5637589858
C   C111      1.0  0.08000  0.10170  0.67761  1.0000 0.5637589858
C   C112      1.0  0.92000  0.89830  0.32239  1.0000 0.5637589858
C   C113      1.0  0.19791  0.57765  0.64407  1.0000 0.1012513532
C   C114      1.0  0.80209  0.42235  0.35593  1.0000 0.1012513532
C   C115      1.0  0.80209  0.07765  0.85593  1.0000 0.1012513532
C   C116      1.0  0.19791  0.92235  0.14407  1.0000 0.1012513532
C   C117      1.0  0.21009  0.69581  0.65117  1.0000 -0.1298856002
C   C118      1.0  0.78991  0.30419  0.34883  1.0000 -0.1298856002
C   C119      1.0  0.78991  0.19581  0.84883  1.0000 -0.1298856002
C   C120      1.0  0.21009  0.80419  0.15117  1.0000 -0.1298856002
C   C121      1.0  0.19882  0.75217  0.71180  1.0000 -0.0416883554
C   C122      1.0  0.80118  0.24783  0.28820  1.0000 -0.0416883554
C   C123      1.0  0.80118  0.25217  0.78820  1.0000 -0.0416883554
C   C124      1.0  0.19882  0.74783  0.21180  1.0000 -0.0416883554
C   C125      1.0  0.17482  0.68715  0.76374  1.0000 -0.1298856002
C   C126      1.0  0.82518  0.31285  0.23626  1.0000 -0.1298856002
C   C127      1.0  0.82518  0.18715  0.73626  1.0000 -0.1298856002
C   C128      1.0  0.17482  0.81285  0.26374  1.0000 -0.1298856002
C   C129      1.0  0.16336  0.56955  0.75361  1.0000 0.0907761508
C   C130      1.0  0.83664  0.43045  0.24639  1.0000 0.0907761508
C   C131      1.0  0.83664  0.06955  0.74639  1.0000 0.0907761508
C   C132      1.0  0.16336  0.93045  0.25361  1.0000 0.0907761508
C   C133      1.0  0.08172  0.00751  0.46895  1.0000 0.0697238266
C   C134      1.0  0.91828  0.99249  0.53105  1.0000 0.0697238266
C   C135      1.0  0.91828  0.50751  0.03105  1.0000 0.0697238266
C   C136      1.0  0.08172  0.49249  0.96895  1.0000 0.0697238266
C   C137      1.0  0.11178  0.91784  0.43708  1.0000 -0.1119197815
C   C138      1.0  0.88822  0.08216  0.56292  1.0000 -0.1119197815
C   C139      1.0  0.88822  0.41784  0.06292  1.0000 -0.1119197815
C   C140      1.0  0.11178  0.58216  0.93708  1.0000 -0.1119197815
C   C141      1.0  0.17280  0.88953  0.45895  1.0000 -0.0290142605
C   C142      1.0  0.82720  0.11047  0.54105  1.0000 -0.0290142605
C   C143      1.0  0.82720  0.38953  0.04105  1.0000 -0.0290142605
C   C144      1.0  0.17280  0.61047  0.95895  1.0000 -0.0290142605
C   C145      1.0  0.20167  0.95307  0.51255  1.0000 -0.1208353864
C   C146      1.0  0.79833  0.04693  0.48745  1.0000 -0.1208353864
C   C147      1.0  0.79833  0.45307  0.98745  1.0000 -0.1208353864
C   C148      1.0  0.20167  0.54693  0.01255  1.0000 -0.1208353864
C   C149      1.0  0.16904  0.04038  0.54326  1.0000 0.0697238266
C   C150      1.0  0.83096  0.95962  0.45674  1.0000 0.0697238266
C   C151      1.0  0.83096  0.54038  0.95674  1.0000 0.0697238266
C   C152      1.0  0.16904  0.45962  0.04326  1.0000 0.0697238266
N   N1        1.0  0.38037  0.27909  0.45278  1.0000 -0.3869051768
N   N2        1.0  0.61963  0.72091  0.54722  1.0000 -0.3869051768
N   N3        1.0  0.61963  0.77909  0.04722  1.0000 -0.3869051768
N   N4        1.0  0.38037  0.22091  0.95278  1.0000 -0.3869051768
N   N5        1.0  0.78897  0.45679  0.63315  1.0000 -0.381256467
N   N6        1.0  0.21103  0.54321  0.36685  1.0000 -0.381256467
N   N7        1.0  0.21103  0.95679  0.86685  1.0000 -0.381256467
N   N8        1.0  0.78897  0.04321  0.13315  1.0000 -0.381256467
N   N9        1.0  0.17526  0.51389  0.69486  1.0000 -0.2256255693
N   N10       1.0  0.82474  0.48611  0.30514  1.0000 -0.2256255693
N   N11       1.0  0.82474  0.01389  0.80514  1.0000 -0.2256255693
N   N12       1.0  0.17526  0.98611  0.19486  1.0000 -0.2256255693
N   N13       1.0  0.10932  0.06828  0.52242  1.0000 -0.2160885504
N   N14       1.0  0.89068  0.93172  0.47758  1.0000 -0.2160885504
N   N15       1.0  0.89068  0.56828  0.97758  1.0000 -0.2160885504
N   N16       1.0  0.10932  0.43172  0.02242  1.0000 -0.2160885504
O   O1        1.0  0.18782  0.33999  0.59213  1.0000 -0.5410680308
O   O2        1.0  0.81218  0.66001  0.40787  1.0000 -0.5410680308
O   O3        1.0  0.81218  0.83999  0.90787  1.0000 -0.5410680308
O   O4        1.0  0.18782  0.16001  0.09213  1.0000 -0.5410680308
O   O5        1.0  0.10834  0.29932  0.51224  1.0000 -0.4797101787
O   O6        1.0  0.89166  0.70068  0.48776  1.0000 -0.4797101787
O   O7        1.0  0.89166  0.79932  0.98776  1.0000 -0.4797101787
O   O8        1.0  0.10834  0.20068  0.01224  1.0000 -0.4797101787
O   O9        1.0  0.14082  0.17439  0.28226  1.0000 -0.50873418
O   O10       1.0  0.85918  0.82561  0.71774  1.0000 -0.50873418
O   O11       1.0  0.85918  0.67439  0.21774  1.0000 -0.50873418
O   O12       1.0  0.14082  0.32561  0.78226  1.0000 -0.50873418
O   O13       1.0  0.22943  0.20493  0.23736  1.0000 -0.4875447995
O   O14       1.0  0.77057  0.79507  0.76264  1.0000 -0.4875447995
O   O15       1.0  0.77057  0.70493  0.26264  1.0000 -0.4875447995
O   O16       1.0  0.22943  0.29507  0.73736  1.0000 -0.4875447995
O   O17       1.0  0.41517  0.27857  0.34392  1.0000 -0.4670482113
O   O18       1.0  0.58483  0.72143  0.65608  1.0000 -0.4670482113
O   O19       1.0  0.58483  0.77857  0.15608  1.0000 -0.4670482113
O   O20       1.0  0.41517  0.22143  0.84392  1.0000 -0.4670482113
O   O21       1.0  0.80372  0.39602  0.52441  1.0000 -0.4670482113
O   O22       1.0  0.19628  0.60398  0.47559  1.0000 -0.4670482113
O   O23       1.0  0.19628  0.89602  0.97559  1.0000 -0.4670482113
O   O24       1.0  0.80372  0.10398  0.02441  1.0000 -0.4670482113
O   O25       1.0  0.00710  0.29373  0.59453  1.0000 -0.4875447995
O   O26       1.0  0.99290  0.70627  0.40547  1.0000 -0.4875447995
O   O27       1.0  0.99290  0.79373  0.90547  1.0000 -0.4875447995
O   O28       1.0  0.00710  0.20627  0.09453  1.0000 -0.4875447995
O   O29       1.0  0.06913  0.40564  0.66729  1.0000 -0.5256966783
O   O30       1.0  0.93087  0.59436  0.33271  1.0000 -0.5256966783
O   O31       1.0  0.93087  0.90564  0.83271  1.0000 -0.5256966783
O   O32       1.0  0.06913  0.09436  0.16729  1.0000 -0.5256966783
O   O33       1.0  0.96320  0.57933  0.86876  1.0000 -0.4797101787
O   O34       1.0  0.03680  0.42067  0.13124  1.0000 -0.4797101787
O   O35       1.0  0.03680  0.07933  0.63124  1.0000 -0.4797101787
O   O36       1.0  0.96320  0.92067  0.36876  1.0000 -0.4797101787
O   O37       1.0  0.87752  0.67649  0.83582  1.0000 -0.5600242301
O   O38       1.0  0.12248  0.32351  0.16418  1.0000 -0.5600242301
O   O39       1.0  0.12248  0.17649  0.66418  1.0000 -0.5600242301
O   O40       1.0  0.87752  0.82351  0.33582  1.0000 -0.5600242301
