# DDEC6 charges by PACMAN v1.1 (https://github.com/mtap-research/PACMAN-charge/)
data_2014[Al][nan]3[ASR]1
_chemical_formula_sum              "Al4 P6 H12 C18 O18"
_cell_length_a       19.2563
_cell_length_b       19.2563
_cell_length_c       8.381
_cell_angle_alpha    77.573
_cell_angle_beta     102.427
_cell_angle_gamma    165.068

_symmetry_space_group_name_H-M    "P 1"
_symmetry_Int_Tables_number       1

loop_
  _symmetry_equiv_pos_as_xyz
  'x, y, z'

loop_
  _atom_site_type_symbol
  _atom_site_label
  _atom_site_symmetry_multiplicity
  _atom_site_fract_x
  _atom_site_fract_y
  _atom_site_fract_z
  _atom_site_occupancy
  _atom_site_charge
Al  Al1       1.0  0.89201  0.10799  0.15420  1.0000 1.843878035
Al  Al2       1.0  0.10799  0.89201  0.84580  1.0000 1.8475344223
Al  Al3       1.0  0.63752  0.36248  0.35470  1.0000 1.625420813
Al  Al4       1.0  0.36248  0.63752  0.64530  1.0000 1.6244877619
P   P1        1.0  0.65289  0.34711  0.71220  1.0000 1.3616363449
P   P2        1.0  0.34711  0.65289  0.28780  1.0000 1.3616363449
P   P3        1.0  0.82385  0.17615  0.76870  1.0000 1.3742483301
P   P4        1.0  0.17615  0.82385  0.23130  1.0000 1.3742483301
P   P5        1.0  0.58386  0.41614  0.04190  1.0000 1.3616363449
P   P6        1.0  0.41614  0.58386  0.95810  1.0000 1.3616363449
H   H1        1.0  0.71504  0.28496  0.97758  1.0000 0.1101197062
H   H2        1.0  0.28496  0.71504  0.02242  1.0000 0.1101197062
H   H3        1.0  0.77758  0.22242  0.99825  1.0000 0.1045751167
H   H4        1.0  0.22242  0.77758  0.00175  1.0000 0.1045751167
H   H5        1.0  0.76163  0.23837  0.50329  1.0000 0.1101197062
H   H6        1.0  0.23837  0.76163  0.49671  1.0000 0.1101197062
H   H7        1.0  0.69910  0.30090  0.48263  1.0000 0.1101197062
H   H8        1.0  0.30090  0.69910  0.51737  1.0000 0.1101197062
H   H9        1.0  0.53687  0.46313  0.26190  1.0000 0.1101197062
H   H10       1.0  0.46313  0.53687  0.73810  1.0000 0.1101197062
H   H11       1.0  0.52580  0.47420  0.77051  1.0000 0.1101197062
H   H12       1.0  0.47420  0.52580  0.22949  1.0000 0.1101197062
C   C1        1.0  0.70145  0.29855  0.72830  1.0000 -0.1724922317
C   C2        1.0  0.29855  0.70145  0.27170  1.0000 -0.1724922317
C   C3        1.0  0.72452  0.27548  0.88040  1.0000 -0.0830560582
C   C4        1.0  0.27548  0.72452  0.11960  1.0000 -0.0830560582
C   C5        1.0  0.76157  0.23843  0.89270  1.0000 -0.0830560582
C   C6        1.0  0.23843  0.76157  0.10730  1.0000 -0.0830560582
C   C7        1.0  0.77523  0.22477  0.75260  1.0000 -0.1875813561
C   C8        1.0  0.22477  0.77523  0.24740  1.0000 -0.1875813561
C   C9        1.0  0.75216  0.24784  0.60040  1.0000 -0.0884043923
C   C10       1.0  0.24784  0.75216  0.39960  1.0000 -0.0884043923
C   C11       1.0  0.71511  0.28489  0.58820  1.0000 -0.0884043923
C   C12       1.0  0.28489  0.71511  0.41180  1.0000 -0.0884043923
C   C13       1.0  0.53686  0.46314  0.01760  1.0000 -0.2134778979
C   C14       1.0  0.46314  0.53686  0.98240  1.0000 -0.2134778979
C   C15       1.0  0.52171  0.47829  0.15431  1.0000 -0.0651295888
C   C16       1.0  0.47829  0.52171  0.84569  1.0000 -0.0651295888
C   C17       1.0  0.51535  0.48465  0.86490  1.0000 -0.0830560582
C   C18       1.0  0.48465  0.51535  0.13510  1.0000 -0.0830560582
O   O1        1.0  0.63416  0.36584  0.53630  1.0000 -0.7733162301
O   O2        1.0  0.36584  0.63416  0.46370  1.0000 -0.7733162301
O   O3        1.0  0.84361  0.15639  0.95430  1.0000 -0.7397308307
O   O4        1.0  0.15639  0.84361  0.04570  1.0000 -0.7397308307
O   O5        1.0  0.89122  0.60678  0.79550  1.0000 -0.7901703822
O   O6        1.0  0.60678  0.89122  0.20450  1.0000 -0.7901703822
O   O7        1.0  0.10878  0.39322  0.20450  1.0000 -0.7901703822
O   O8        1.0  0.39322  0.10878  0.79550  1.0000 -0.7901703822
O   O9        1.0  0.58821  0.91939  0.68640  1.0000 -0.8419735985
O   O10       1.0  0.91939  0.58821  0.31360  1.0000 -0.8419735985
O   O11       1.0  0.41179  0.08061  0.31360  1.0000 -0.8419735985
O   O12       1.0  0.08061  0.41179  0.68640  1.0000 -0.8419735985
O   O13       1.0  0.60136  0.39864  0.22220  1.0000 -0.7584849554
O   O14       1.0  0.39864  0.60136  0.77780  1.0000 -0.7584849554
O   O15       1.0  0.83163  0.64157  0.95370  1.0000 -0.8114385861
O   O16       1.0  0.64157  0.83163  0.04630  1.0000 -0.8114385861
O   O17       1.0  0.16837  0.35843  0.04630  1.0000 -0.8114385861
O   O18       1.0  0.35843  0.16837  0.95370  1.0000 -0.8114385861
