# DDEC6 charges by PACMAN v1.1 (https://github.com/mtap-research/PACMAN-charge/)
data_2014[Cd][svg]3[ASR]1
_chemical_formula_sum              "Cd8 H56 C72 N24 O24"
_cell_length_a       20.872
_cell_length_b       20.872
_cell_length_c       5.882
_cell_angle_alpha    90
_cell_angle_beta     90
_cell_angle_gamma    90

_symmetry_space_group_name_H-M    "P 1"
_symmetry_Int_Tables_number       1

loop_
  _symmetry_equiv_pos_as_xyz
  'x, y, z'

loop_
  _atom_site_type_symbol
  _atom_site_label
  _atom_site_symmetry_multiplicity
  _atom_site_fract_x
  _atom_site_fract_y
  _atom_site_fract_z
  _atom_site_occupancy
  _atom_site_charge
Cd  Cd1       1.0  0.51803  0.07988  0.79003  1.0000 0.9437970556
Cd  Cd2       1.0  0.57988  0.98197  0.29003  1.0000 0.9437970556
Cd  Cd3       1.0  0.42012  0.01803  0.29003  1.0000 0.9437970556
Cd  Cd4       1.0  0.48197  0.92012  0.79003  1.0000 0.9437970556
Cd  Cd5       1.0  0.98197  0.42012  0.70997  1.0000 0.9437970556
Cd  Cd6       1.0  0.92012  0.51803  0.20997  1.0000 0.9437970556
Cd  Cd7       1.0  0.07988  0.48197  0.20997  1.0000 0.9437970556
Cd  Cd8       1.0  0.01803  0.57988  0.70997  1.0000 0.9437970556
H   H1        1.0  0.52700  0.09500  0.33900  1.0000 0.3488520123
H   H2        1.0  0.59500  0.97300  0.83900  1.0000 0.3488520123
H   H3        1.0  0.40500  0.02700  0.83900  1.0000 0.3488520123
H   H4        1.0  0.47300  0.90500  0.33900  1.0000 0.3488520123
H   H5        1.0  0.97300  0.40500  0.16100  1.0000 0.3488520123
H   H6        1.0  0.90500  0.52700  0.66100  1.0000 0.3488520123
H   H7        1.0  0.09500  0.47300  0.66100  1.0000 0.3488520123
H   H8        1.0  0.02700  0.59500  0.16100  1.0000 0.3488520123
H   H9        1.0  0.39490  0.18270  0.98880  1.0000 0.1262745746
H   H10       1.0  0.68270  0.10510  0.48880  1.0000 0.1262745746
H   H11       1.0  0.31730  0.89490  0.48880  1.0000 0.1262745746
H   H12       1.0  0.60510  0.81730  0.98880  1.0000 0.1262745746
H   H13       1.0  0.10510  0.31730  0.51120  1.0000 0.1262745746
H   H14       1.0  0.81730  0.39490  0.01120  1.0000 0.1262745746
H   H15       1.0  0.18270  0.60510  0.01120  1.0000 0.1262745746
H   H16       1.0  0.89490  0.68270  0.51120  1.0000 0.1262745746
H   H17       1.0  0.47750  0.20030  0.39960  1.0000 0.1219719285
H   H18       1.0  0.70030  0.02250  0.89960  1.0000 0.1219719285
H   H19       1.0  0.29970  0.97750  0.89960  1.0000 0.1219719285
H   H20       1.0  0.52250  0.79970  0.39960  1.0000 0.1219719285
H   H21       1.0  0.02250  0.29970  0.10040  1.0000 0.1219719285
H   H22       1.0  0.79970  0.47750  0.60040  1.0000 0.1219719285
H   H23       1.0  0.20030  0.52250  0.60040  1.0000 0.1219719285
H   H24       1.0  0.97750  0.70030  0.10040  1.0000 0.1219719285
H   H25       1.0  0.32730  0.25790  0.13240  1.0000 0.1219719285
H   H26       1.0  0.75790  0.17270  0.63240  1.0000 0.1219719285
H   H27       1.0  0.24210  0.82730  0.63240  1.0000 0.1219719285
H   H28       1.0  0.67270  0.74210  0.13240  1.0000 0.1219719285
H   H29       1.0  0.17270  0.24210  0.36760  1.0000 0.1219719285
H   H30       1.0  0.74210  0.32730  0.86760  1.0000 0.1219719285
H   H31       1.0  0.25790  0.67270  0.86760  1.0000 0.1219719285
H   H32       1.0  0.82730  0.75790  0.36760  1.0000 0.1219719285
H   H33       1.0  0.24220  0.32100  0.23760  1.0000 0.1096047796
H   H34       1.0  0.82100  0.25780  0.73760  1.0000 0.1096047796
H   H35       1.0  0.17900  0.74220  0.73760  1.0000 0.1096047796
H   H36       1.0  0.75780  0.67900  0.23760  1.0000 0.1096047796
H   H37       1.0  0.25780  0.17900  0.26240  1.0000 0.1096047796
H   H38       1.0  0.67900  0.24220  0.76240  1.0000 0.1096047796
H   H39       1.0  0.32100  0.75780  0.76240  1.0000 0.1096047796
H   H40       1.0  0.74220  0.82100  0.26240  1.0000 0.1096047796
H   H41       1.0  0.23540  0.39910  0.63990  1.0000 0.1219719285
H   H42       1.0  0.89910  0.26460  0.13990  1.0000 0.1219719285
H   H43       1.0  0.10090  0.73540  0.13990  1.0000 0.1219719285
H   H44       1.0  0.76460  0.60090  0.63990  1.0000 0.1219719285
H   H45       1.0  0.26460  0.10090  0.86010  1.0000 0.1219719285
H   H46       1.0  0.60090  0.23540  0.36010  1.0000 0.1219719285
H   H47       1.0  0.39910  0.76460  0.36010  1.0000 0.1219719285
H   H48       1.0  0.73540  0.89910  0.86010  1.0000 0.1219719285
H   H49       1.0  0.32190  0.33550  0.52410  1.0000 0.1262745746
H   H50       1.0  0.83550  0.17810  0.02410  1.0000 0.1262745746
H   H51       1.0  0.16450  0.82190  0.02410  1.0000 0.1262745746
H   H52       1.0  0.67810  0.66450  0.52410  1.0000 0.1262745746
H   H53       1.0  0.17810  0.16450  0.97590  1.0000 0.1262745746
H   H54       1.0  0.66450  0.32190  0.47590  1.0000 0.1262745746
H   H55       1.0  0.33550  0.67810  0.47590  1.0000 0.1262745746
H   H56       1.0  0.82190  0.83550  0.97590  1.0000 0.1262745746
C   C1        1.0  0.40670  0.19720  0.84510  1.0000 0.1096047796
C   C2        1.0  0.69720  0.09330  0.34510  1.0000 0.1096047796
C   C3        1.0  0.30280  0.90670  0.34510  1.0000 0.1096047796
C   C4        1.0  0.59330  0.80280  0.84510  1.0000 0.1096047796
C   C5        1.0  0.09330  0.30280  0.65490  1.0000 0.1096047796
C   C6        1.0  0.80280  0.40670  0.15490  1.0000 0.1096047796
C   C7        1.0  0.19720  0.59330  0.15490  1.0000 0.1096047796
C   C8        1.0  0.90670  0.69720  0.65490  1.0000 0.1096047796
C   C9        1.0  0.45070  0.20770  0.52320  1.0000 0.1383316628
C   C10       1.0  0.70770  0.04930  0.02320  1.0000 0.1383316628
C   C11       1.0  0.29230  0.95070  0.02320  1.0000 0.1383316628
C   C12       1.0  0.54930  0.79230  0.52320  1.0000 0.1383316628
C   C13       1.0  0.04930  0.29230  0.97680  1.0000 0.1383316628
C   C14       1.0  0.79230  0.45070  0.47680  1.0000 0.1383316628
C   C15       1.0  0.20770  0.54930  0.47680  1.0000 0.1383316628
C   C16       1.0  0.95070  0.70770  0.97680  1.0000 0.1383316628
C   C17       1.0  0.33230  0.29120  0.81830  1.0000 0.1383316628
C   C18       1.0  0.79120  0.16770  0.31830  1.0000 0.1383316628
C   C19       1.0  0.20880  0.83230  0.31830  1.0000 0.1383316628
C   C20       1.0  0.66770  0.70880  0.81830  1.0000 0.1383316628
C   C21       1.0  0.16770  0.20880  0.68170  1.0000 0.1383316628
C   C22       1.0  0.70880  0.33230  0.18170  1.0000 0.1383316628
C   C23       1.0  0.29120  0.66770  0.18170  1.0000 0.1383316628
C   C24       1.0  0.83230  0.79120  0.68170  1.0000 0.1383316628
C   C25       1.0  0.30940  0.28640  0.02890  1.0000 -0.1813297235
C   C26       1.0  0.78640  0.19060  0.52890  1.0000 -0.1813297235
C   C27       1.0  0.21360  0.80940  0.52890  1.0000 -0.1813297235
C   C28       1.0  0.69060  0.71360  0.02890  1.0000 -0.1813297235
C   C29       1.0  0.19060  0.21360  0.47110  1.0000 -0.1813297235
C   C30       1.0  0.71360  0.30940  0.97110  1.0000 -0.1813297235
C   C31       1.0  0.28640  0.69060  0.97110  1.0000 -0.1813297235
C   C32       1.0  0.80940  0.78640  0.47110  1.0000 -0.1813297235
C   C33       1.0  0.25810  0.32480  0.09050  1.0000 -0.1087809233
C   C34       1.0  0.82480  0.24190  0.59050  1.0000 -0.1087809233
C   C35       1.0  0.17520  0.75810  0.59050  1.0000 -0.1087809233
C   C36       1.0  0.74190  0.67520  0.09050  1.0000 -0.1087809233
C   C37       1.0  0.24190  0.17520  0.40950  1.0000 -0.1087809233
C   C38       1.0  0.67520  0.25810  0.90950  1.0000 -0.1087809233
C   C39       1.0  0.32480  0.74190  0.90950  1.0000 -0.1087809233
C   C40       1.0  0.75810  0.82480  0.40950  1.0000 -0.1087809233
C   C41       1.0  0.23010  0.36700  0.95090  1.0000 -0.0087776571
C   C42       1.0  0.86700  0.26990  0.45090  1.0000 -0.0087776571
C   C43       1.0  0.13300  0.73010  0.45090  1.0000 -0.0087776571
C   C44       1.0  0.76990  0.63300  0.95090  1.0000 -0.0087776571
C   C45       1.0  0.26990  0.13300  0.54910  1.0000 -0.0087776571
C   C46       1.0  0.63300  0.23010  0.04910  1.0000 -0.0087776571
C   C47       1.0  0.36700  0.76990  0.04910  1.0000 -0.0087776571
C   C48       1.0  0.73010  0.86700  0.54910  1.0000 -0.0087776571
C   C49       1.0  0.25370  0.37060  0.74270  1.0000 -0.1087809233
C   C50       1.0  0.87060  0.24630  0.24270  1.0000 -0.1087809233
C   C51       1.0  0.12940  0.75370  0.24270  1.0000 -0.1087809233
C   C52       1.0  0.74630  0.62940  0.74270  1.0000 -0.1087809233
C   C53       1.0  0.24630  0.12940  0.75730  1.0000 -0.1087809233
C   C54       1.0  0.62940  0.25370  0.25730  1.0000 -0.1087809233
C   C55       1.0  0.37060  0.74630  0.25730  1.0000 -0.1087809233
C   C56       1.0  0.75370  0.87060  0.75730  1.0000 -0.1087809233
C   C57       1.0  0.30610  0.33210  0.67140  1.0000 -0.1633511298
C   C58       1.0  0.83210  0.19390  0.17140  1.0000 -0.1633511298
C   C59       1.0  0.16790  0.80610  0.17140  1.0000 -0.1633511298
C   C60       1.0  0.69390  0.66790  0.67140  1.0000 -0.1633511298
C   C61       1.0  0.19390  0.16790  0.82860  1.0000 -0.1633511298
C   C62       1.0  0.66790  0.30610  0.32860  1.0000 -0.1633511298
C   C63       1.0  0.33210  0.69390  0.32860  1.0000 -0.1633511298
C   C64       1.0  0.80610  0.83210  0.82860  1.0000 -0.1633511298
C   C65       1.0  0.17510  0.40770  0.02940  1.0000 0.5546316542
C   C66       1.0  0.90770  0.32490  0.52940  1.0000 0.5546316542
C   C67       1.0  0.09230  0.67510  0.52940  1.0000 0.5546316542
C   C68       1.0  0.82490  0.59230  0.02940  1.0000 0.5546316542
C   C69       1.0  0.32490  0.09230  0.47060  1.0000 0.5546316542
C   C70       1.0  0.59230  0.17510  0.97060  1.0000 0.5546316542
C   C71       1.0  0.40770  0.82490  0.97060  1.0000 0.5546316542
C   C72       1.0  0.67510  0.90770  0.47060  1.0000 0.5546316542
N   N1        1.0  0.45020  0.17010  0.71400  1.0000 -0.3264973164
N   N2        1.0  0.67010  0.04980  0.21400  1.0000 -0.3264973164
N   N3        1.0  0.32990  0.95020  0.21400  1.0000 -0.3264973164
N   N4        1.0  0.54980  0.82990  0.71400  1.0000 -0.3264973164
N   N5        1.0  0.04980  0.32990  0.78600  1.0000 -0.3264973164
N   N6        1.0  0.82990  0.45020  0.28600  1.0000 -0.3264973164
N   N7        1.0  0.17010  0.54980  0.28600  1.0000 -0.3264973164
N   N8        1.0  0.95020  0.67010  0.78600  1.0000 -0.3264973164
N   N9        1.0  0.40930  0.25570  0.53240  1.0000 -0.2504070513
N   N10       1.0  0.75570  0.09070  0.03240  1.0000 -0.2504070513
N   N11       1.0  0.24430  0.90930  0.03240  1.0000 -0.2504070513
N   N12       1.0  0.59070  0.74430  0.53240  1.0000 -0.2504070513
N   N13       1.0  0.09070  0.24430  0.96760  1.0000 -0.2504070513
N   N14       1.0  0.74430  0.40930  0.46760  1.0000 -0.2504070513
N   N15       1.0  0.25570  0.59070  0.46760  1.0000 -0.2504070513
N   N16       1.0  0.90930  0.75570  0.96760  1.0000 -0.2504070513
N   N17       1.0  0.38200  0.24840  0.74110  1.0000 0.1219719285
N   N18       1.0  0.74840  0.11800  0.24110  1.0000 0.1219719285
N   N19       1.0  0.25160  0.88200  0.24110  1.0000 0.1219719285
N   N20       1.0  0.61800  0.75160  0.74110  1.0000 0.1219719285
N   N21       1.0  0.11800  0.25160  0.75890  1.0000 0.1219719285
N   N22       1.0  0.75160  0.38200  0.25890  1.0000 0.1219719285
N   N23       1.0  0.24840  0.61800  0.25890  1.0000 0.1219719285
N   N24       1.0  0.88200  0.74840  0.75890  1.0000 0.1219719285
O   O1        1.0  0.15440  0.45110  0.90440  1.0000 -0.5533320121
O   O2        1.0  0.95110  0.34560  0.40440  1.0000 -0.5533320121
O   O3        1.0  0.04890  0.65440  0.40440  1.0000 -0.5533320121
O   O4        1.0  0.84560  0.54890  0.90440  1.0000 -0.5533320121
O   O5        1.0  0.34560  0.04890  0.59560  1.0000 -0.5533320121
O   O6        1.0  0.54890  0.15440  0.09560  1.0000 -0.5533320121
O   O7        1.0  0.45110  0.84560  0.09560  1.0000 -0.5533320121
O   O8        1.0  0.65440  0.95110  0.59560  1.0000 -0.5533320121
O   O9        1.0  0.15010  0.39480  0.22020  1.0000 -0.5533320121
O   O10       1.0  0.89480  0.34990  0.72020  1.0000 -0.5533320121
O   O11       1.0  0.10520  0.65010  0.72020  1.0000 -0.5533320121
O   O12       1.0  0.84990  0.60520  0.22020  1.0000 -0.5533320121
O   O13       1.0  0.34990  0.10520  0.27980  1.0000 -0.5533320121
O   O14       1.0  0.60520  0.15010  0.77980  1.0000 -0.5533320121
O   O15       1.0  0.39480  0.84990  0.77980  1.0000 -0.5533320121
O   O16       1.0  0.65010  0.89480  0.27980  1.0000 -0.5533320121
O   O17       1.0  0.51660  0.06242  0.41540  1.0000 -0.829001721
O   O18       1.0  0.56242  0.98340  0.91540  1.0000 -0.829001721
O   O19       1.0  0.43758  0.01660  0.91540  1.0000 -0.829001721
O   O20       1.0  0.48340  0.93758  0.41540  1.0000 -0.829001721
O   O21       1.0  0.98340  0.43758  0.08460  1.0000 -0.829001721
O   O22       1.0  0.93758  0.51660  0.58460  1.0000 -0.829001721
O   O23       1.0  0.06242  0.48340  0.58460  1.0000 -0.829001721
O   O24       1.0  0.01660  0.56242  0.08460  1.0000 -0.829001721
