# DDEC6 charges by PACMAN v1.1 (https://github.com/mtap-research/PACMAN-charge/)
data_2014[Mn][nan]3[ASR]11
_chemical_formula_sum              "Mn4 P2 H2 C6 O20"
_cell_length_a       7.7895
_cell_length_b       8.0754
_cell_length_c       9.7286
_cell_angle_alpha    75.902
_cell_angle_beta     79.142
_cell_angle_gamma    86.695

_symmetry_space_group_name_H-M    "P 1"
_symmetry_Int_Tables_number       1

loop_
  _symmetry_equiv_pos_as_xyz
  'x, y, z'

loop_
  _atom_site_type_symbol
  _atom_site_label
  _atom_site_symmetry_multiplicity
  _atom_site_fract_x
  _atom_site_fract_y
  _atom_site_fract_z
  _atom_site_occupancy
  _atom_site_charge
Mn  Mn1       1.0  0.65797  0.46703  0.25269  1.0000 1.0764684213
Mn  Mn2       1.0  0.34203  0.53297  0.74731  1.0000 1.0764684213
Mn  Mn3       1.0  0.32238  0.19107  0.37035  1.0000 1.1048852933
Mn  Mn4       1.0  0.67762  0.80893  0.62965  1.0000 1.1048852933
P   P1        1.0  0.57321  0.23023  0.59513  1.0000 1.5714027417
P   P2        1.0  0.42679  0.76977  0.40487  1.0000 1.5714027417
H   H1        1.0  0.77920  0.36010  0.60900  1.0000 0.3989039493
H   H2        1.0  0.22080  0.63990  0.39100  1.0000 0.3989039493
C   C1        1.0  0.98200  0.26110  0.26910  1.0000 0.4969342482
C   C2        1.0  0.01800  0.73890  0.73090  1.0000 0.4969342482
C   C3        1.0  0.02120  0.43010  0.30550  1.0000 0.4886201752
C   C4        1.0  0.97880  0.56990  0.69450  1.0000 0.4886201752
C   C5        1.0  0.43380  0.42730  0.04200  1.0000 0.507007612
C   C6        1.0  0.56620  0.57270  0.95800  1.0000 0.507007612
O   O1        1.0  0.52290  0.29590  0.44580  1.0000 -0.8065281677
O   O2        1.0  0.47710  0.70410  0.55420  1.0000 -0.8065281677
O   O3        1.0  0.46470  0.31390  0.70560  1.0000 -0.7646007406
O   O4        1.0  0.53530  0.68610  0.29440  1.0000 -0.7646007406
O   O5        1.0  0.56030  0.03980  0.64510  1.0000 -0.7514140176
O   O6        1.0  0.43970  0.96020  0.35490  1.0000 -0.7514140176
O   O7        1.0  0.77210  0.27600  0.57720  1.0000 -0.5928460228
O   O8        1.0  0.22790  0.72400  0.42280  1.0000 -0.5928460228
O   O9        1.0  0.84550  0.25670  0.22170  1.0000 -0.4502650368
O   O10       1.0  0.15450  0.74330  0.77830  1.0000 -0.4502650368
O   O11       1.0  0.08870  0.14030  0.29180  1.0000 -0.4562782364
O   O12       1.0  0.91130  0.85970  0.70820  1.0000 -0.4562782364
O   O13       1.0  0.91120  0.54790  0.28530  1.0000 -0.4336082804
O   O14       1.0  0.08880  0.45210  0.71470  1.0000 -0.4336082804
O   O15       1.0  0.16010  0.43570  0.35010  1.0000 -0.4758093822
O   O16       1.0  0.83990  0.56430  0.64990  1.0000 -0.4758093822
O   O17       1.0  0.46740  0.34730  0.16350  1.0000 -0.5055078434
O   O18       1.0  0.53260  0.65270  0.83650  1.0000 -0.5055078434
O   O19       1.0  0.31310  0.40170  0.98440  1.0000 -0.4073647129
O   O20       1.0  0.68690  0.59830  0.01560  1.0000 -0.4073647129
