# DDEC6 charges by PACMAN v1.1 (https://github.com/mtap-research/PACMAN-charge/)
data_2014[Zn][nan]3[ASR]4
_chemical_formula_sum              "Zn6 H92 C112 N16 O24"
_cell_length_a       9.4806
_cell_length_b       18.127
_cell_length_c       18.693
_cell_angle_alpha    61.88
_cell_angle_beta     83.98
_cell_angle_gamma    86.35

_symmetry_space_group_name_H-M    "P 1"
_symmetry_Int_Tables_number       1

loop_
  _symmetry_equiv_pos_as_xyz
  'x, y, z'

loop_
  _atom_site_type_symbol
  _atom_site_label
  _atom_site_symmetry_multiplicity
  _atom_site_fract_x
  _atom_site_fract_y
  _atom_site_fract_z
  _atom_site_occupancy
  _atom_site_charge
Zn  Zn1       1.0  0.35643  0.92813  0.87054  1.0000 0.8735344693
Zn  Zn2       1.0  0.64357  0.07187  0.12946  1.0000 0.8735344693
Zn  Zn3       1.0  0.65832  0.91931  0.35752  1.0000 0.8782643363
Zn  Zn4       1.0  0.34168  0.08069  0.64248  1.0000 0.8782643363
Zn  Zn5       1.0  0.48901  0.49966  0.25516  1.0000 0.8249355242
Zn  Zn6       1.0  0.51099  0.50034  0.74484  1.0000 0.8249355242
H   H1        1.0  0.19100  0.79510  0.78410  1.0000 0.1570969209
H   H2        1.0  0.80900  0.20490  0.21590  1.0000 0.1570969209
H   H3        1.0  0.13890  0.73260  0.87410  1.0000 0.1570969209
H   H4        1.0  0.86110  0.26740  0.12590  1.0000 0.1570969209
H   H5        1.0  0.27880  0.78240  0.85570  1.0000 0.169982087
H   H6        1.0  0.72120  0.21760  0.14430  1.0000 0.169982087
H   H7        1.0  0.11420  0.04460  0.89500  1.0000 0.1399307419
H   H8        1.0  0.88580  0.95540  0.10500  1.0000 0.1399307419
H   H9        1.0  0.89450  0.09980  0.90920  1.0000 0.1205431178
H   H10       1.0  0.10550  0.90020  0.09080  1.0000 0.1205431178
H   H11       1.0  0.69200  0.05280  0.88350  1.0000 0.1120781558
H   H12       1.0  0.30800  0.94720  0.11650  1.0000 0.1120781558
H   H13       1.0  0.70260  0.94430  0.85040  1.0000 0.1399307419
H   H14       1.0  0.29740  0.05570  0.14960  1.0000 0.1399307419
H   H15       1.0  0.91650  0.78600  0.79690  1.0000 0.1120781558
H   H16       1.0  0.08350  0.21400  0.20310  1.0000 0.1120781558
H   H17       1.0  0.78400  0.83710  0.80830  1.0000 0.1205431178
H   H18       1.0  0.21600  0.16290  0.19170  1.0000 0.1205431178
H   H19       1.0  0.79080  0.68670  0.90640  1.0000 0.1205431178
H   H20       1.0  0.20920  0.31330  0.09360  1.0000 0.1205431178
H   H21       1.0  0.90590  0.70950  0.94690  1.0000 0.1120781558
H   H22       1.0  0.09410  0.29050  0.05310  1.0000 0.1120781558
H   H23       1.0  0.73110  0.80830  0.95760  1.0000 0.1015573427
H   H24       1.0  0.26890  0.19170  0.04240  1.0000 0.1015573427
H   H25       1.0  0.62070  0.76030  0.93890  1.0000 0.1297989659
H   H26       1.0  0.37930  0.23970  0.06110  1.0000 0.1297989659
H   H27       1.0  0.98580  0.76850  0.17630  1.0000 0.1205431178
H   H28       1.0  0.01420  0.23150  0.82370  1.0000 0.1205431178
H   H29       1.0  0.90200  0.79100  0.05620  1.0000 0.1399307419
H   H30       1.0  0.09800  0.20900  0.94380  1.0000 0.1399307419
H   H31       1.0  0.73110  0.57100  0.30420  1.0000 0.1399307419
H   H32       1.0  0.26890  0.42900  0.69580  1.0000 0.1399307419
H   H33       1.0  0.89260  0.66200  0.30170  1.0000 0.1297989659
H   H34       1.0  0.10740  0.33800  0.69830  1.0000 0.1297989659
H   H35       1.0  0.43970  0.64960  0.01730  1.0000 0.169982087
H   H36       1.0  0.56030  0.35040  0.98270  1.0000 0.169982087
H   H37       1.0  0.45910  0.55460  0.07870  1.0000 0.169982087
H   H38       1.0  0.54090  0.44540  0.92130  1.0000 0.169982087
H   H39       1.0  0.56220  0.59670  0.99950  1.0000 0.169982087
H   H40       1.0  0.43780  0.40330  0.00050  1.0000 0.169982087
H   H41       1.0  0.53950  0.89460  0.08980  1.0000 0.1297989659
H   H42       1.0  0.46050  0.10540  0.91020  1.0000 0.1297989659
H   H43       1.0  0.47870  0.72850  0.32670  1.0000 0.1297989659
H   H44       1.0  0.52130  0.27150  0.67330  1.0000 0.1297989659
H   H45       1.0  0.32890  0.68360  0.15790  1.0000 0.1297989659
H   H46       1.0  0.67110  0.31640  0.84210  1.0000 0.1297989659
H   H47       1.0  0.64290  0.67880  0.64350  1.0000 0.1297989659
H   H48       1.0  0.35710  0.32120  0.35650  1.0000 0.1297989659
H   H49       1.0  0.54300  0.73750  0.82460  1.0000 0.1205431178
H   H50       1.0  0.45700  0.26250  0.17540  1.0000 0.1205431178
H   H51       1.0  0.50870  0.91190  0.59190  1.0000 0.1297989659
H   H52       1.0  0.49130  0.08810  0.40810  1.0000 0.1297989659
H   H53       1.0  0.53120  0.65640  0.50320  1.0000 0.169982087
H   H54       1.0  0.46880  0.34360  0.49680  1.0000 0.169982087
H   H55       1.0  0.43290  0.59310  0.49800  1.0000 0.169982087
H   H56       1.0  0.56710  0.40690  0.50200  1.0000 0.169982087
H   H57       1.0  0.54170  0.56080  0.56450  1.0000 0.169982087
H   H58       1.0  0.45830  0.43920  0.43550  1.0000 0.169982087
H   H59       1.0  0.25090  0.55780  0.82500  1.0000 0.1399307419
H   H60       1.0  0.74910  0.44220  0.17500  1.0000 0.1399307419
H   H61       1.0  0.03720  0.61610  0.84250  1.0000 0.1205431178
H   H62       1.0  0.96280  0.38390  0.15750  1.0000 0.1205431178
H   H63       1.0  0.90120  0.69210  0.73630  1.0000 0.1120781558
H   H64       1.0  0.09880  0.30790  0.26370  1.0000 0.1120781558
H   H65       1.0  0.98320  0.72300  0.60470  1.0000 0.1399307419
H   H66       1.0  0.01680  0.27700  0.39530  1.0000 0.1399307419
H   H67       1.0  0.10700  0.72250  0.48460  1.0000 0.1120781558
H   H68       1.0  0.89300  0.27750  0.51540  1.0000 0.1120781558
H   H69       1.0  0.23560  0.68400  0.45260  1.0000 0.1205431178
H   H70       1.0  0.76440  0.31600  0.54740  1.0000 0.1205431178
H   H71       1.0  0.30540  0.89740  0.32720  1.0000 0.1205431178
H   H72       1.0  0.69460  0.10260  0.67280  1.0000 0.1205431178
H   H73       1.0  0.22970  0.82200  0.32930  1.0000 0.1205431178
H   H74       1.0  0.77030  0.17800  0.67070  1.0000 0.1205431178
H   H75       1.0  0.38340  0.78890  0.43900  1.0000 0.1205431178
H   H76       1.0  0.61660  0.21110  0.56100  1.0000 0.1205431178
H   H77       1.0  0.26030  0.82560  0.47630  1.0000 0.1120781558
H   H78       1.0  0.73970  0.17440  0.52370  1.0000 0.1120781558
H   H79       1.0  0.86040  0.78170  0.35340  1.0000 0.1779721663
H   H80       1.0  0.13960  0.21830  0.64660  1.0000 0.1779721663
H   H81       1.0  0.02480  0.77080  0.33990  1.0000 0.1537411198
H   H82       1.0  0.97520  0.22920  0.66010  1.0000 0.1537411198
H   H83       1.0  0.93950  0.83370  0.26710  1.0000 0.1570969209
H   H84       1.0  0.06050  0.16630  0.73290  1.0000 0.1570969209
H   H85       1.0  0.77920  0.06090  0.38150  1.0000 0.1399307419
H   H86       1.0  0.22080  0.93910  0.61850  1.0000 0.1399307419
H   H87       1.0  0.93600  0.13980  0.40460  1.0000 0.1120781558
H   H88       1.0  0.06400  0.86020  0.59540  1.0000 0.1120781558
H   H89       1.0  0.17480  0.10650  0.41030  1.0000 0.1120781558
H   H90       1.0  0.82520  0.89350  0.58970  1.0000 0.1120781558
H   H91       1.0  0.26770  0.99640  0.39110  1.0000 0.1399307419
H   H92       1.0  0.73230  0.00360  0.60890  1.0000 0.1399307419
C   C1        1.0  0.18500  0.78480  0.83960  1.0000 -0.5386011088
C   C2        1.0  0.81500  0.21520  0.16040  1.0000 -0.5386011088
C   C3        1.0  0.10230  0.85320  0.84730  1.0000 0.3899401561
C   C4        1.0  0.89770  0.14680  0.15270  1.0000 0.3899401561
C   C5        1.0  0.04030  0.95950  0.86730  1.0000 0.1399307419
C   C6        1.0  0.95970  0.04050  0.13270  1.0000 0.1399307419
C   C7        1.0  0.03280  0.02430  0.88700  1.0000 -0.1624240126
C   C8        1.0  0.96720  0.97570  0.11300  1.0000 -0.1624240126
C   C9        1.0  0.90280  0.05730  0.89440  1.0000 -0.1117731776
C   C10       1.0  0.09720  0.94270  0.10560  1.0000 -0.1117731776
C   C11       1.0  0.77920  0.02770  0.87960  1.0000 -0.0811311841
C   C12       1.0  0.22080  0.97230  0.12040  1.0000 -0.0811311841
C   C13       1.0  0.78350  0.96370  0.85990  1.0000 -0.1807963093
C   C14       1.0  0.21650  0.03630  0.14010  1.0000 -0.1807963093
C   C15       1.0  0.91890  0.92980  0.85500  1.0000 0.0808573499
C   C16       1.0  0.08110  0.07020  0.14500  1.0000 0.0808573499
C   C17       1.0  0.86820  0.80610  0.83290  1.0000 -0.0924194465
C   C18       1.0  0.13180  0.19390  0.16710  1.0000 -0.0924194465
C   C19       1.0  0.82400  0.73090  0.91540  1.0000 -0.2173543364
C   C20       1.0  0.17600  0.26910  0.08460  1.0000 -0.2173543364
C   C21       1.0  0.70970  0.75440  0.96250  1.0000 -0.0924194465
C   C22       1.0  0.29030  0.24560  0.03750  1.0000 -0.0924194465
C   C23       1.0  0.91580  0.73420  0.17730  1.0000 -0.0924194465
C   C24       1.0  0.08420  0.26580  0.82270  1.0000 -0.0924194465
C   C25       1.0  0.86710  0.74770  0.10570  1.0000 -0.1807963093
C   C26       1.0  0.13290  0.25230  0.89430  1.0000 -0.1807963093
C   C27       1.0  0.76540  0.69550  0.10890  1.0000 0.0901689179
C   C28       1.0  0.23460  0.30450  0.89110  1.0000 0.0901689179
C   C29       1.0  0.76330  0.61580  0.25510  1.0000 -0.1624240126
C   C30       1.0  0.23670  0.38420  0.74490  1.0000 -0.1624240126
C   C31       1.0  0.86140  0.66870  0.25340  1.0000 -0.0924194465
C   C32       1.0  0.13860  0.33130  0.74660  1.0000 -0.0924194465
C   C33       1.0  0.71170  0.62950  0.18240  1.0000 0.1399307419
C   C34       1.0  0.28830  0.37050  0.81760  1.0000 0.1399307419
C   C35       1.0  0.60320  0.62730  0.08550  1.0000 0.3899401561
C   C36       1.0  0.39680  0.37270  0.91450  1.0000 0.3899401561
C   C37       1.0  0.50770  0.60510  0.04140  1.0000 -0.5386011088
C   C38       1.0  0.49230  0.39490  0.95860  1.0000 -0.5386011088
C   C39       1.0  0.39570  0.82550  0.02330  1.0000 0.52874109
C   C40       1.0  0.60430  0.17450  0.97670  1.0000 0.52874109
C   C41       1.0  0.42670  0.79480  0.11030  1.0000 -0.0190404212
C   C42       1.0  0.57330  0.20520  0.88970  1.0000 -0.0190404212
C   C43       1.0  0.50140  0.84470  0.13060  1.0000 -0.1335681319
C   C44       1.0  0.49860  0.15530  0.86940  1.0000 -0.1335681319
C   C45       1.0  0.51970  0.82040  0.21230  1.0000 -0.0397738336
C   C46       1.0  0.48030  0.17960  0.78770  1.0000 -0.0397738336
C   C47       1.0  0.58330  0.88000  0.23390  1.0000 0.5806662724
C   C48       1.0  0.41670  0.12000  0.76610  1.0000 0.5806662724
C   C49       1.0  0.46740  0.74470  0.27240  1.0000 -0.1218439942
C   C50       1.0  0.53260  0.25530  0.72760  1.0000 -0.1218439942
C   C51       1.0  0.39760  0.69200  0.25230  1.0000 -0.0337525635
C   C52       1.0  0.60240  0.30800  0.74770  1.0000 -0.0337525635
C   C53       1.0  0.37670  0.71790  0.17140  1.0000 -0.1218439942
C   C54       1.0  0.62330  0.28210  0.82860  1.0000 -0.1218439942
C   C55       1.0  0.34090  0.61030  0.31920  1.0000 0.5504150078
C   C56       1.0  0.65910  0.38970  0.68080  1.0000 0.5504150078
C   C57       1.0  0.63470  0.60580  0.80700  1.0000 0.5439412281
C   C58       1.0  0.36530  0.39420  0.19300  1.0000 0.5439412281
C   C59       1.0  0.61140  0.71790  0.66070  1.0000 -0.1218439942
C   C60       1.0  0.38860  0.28210  0.33930  1.0000 -0.1218439942
C   C61       1.0  0.59550  0.69460  0.74340  1.0000 -0.0337525635
C   C62       1.0  0.40450  0.30540  0.25660  1.0000 -0.0337525635
C   C63       1.0  0.55140  0.75310  0.76930  1.0000 -0.1218439942
C   C64       1.0  0.44860  0.24690  0.23070  1.0000 -0.1218439942
C   C65       1.0  0.51970  0.83480  0.71330  1.0000 -0.0397738336
C   C66       1.0  0.48030  0.16520  0.28670  1.0000 -0.0397738336
C   C67       1.0  0.53250  0.85770  0.62960  1.0000 -0.1364973277
C   C68       1.0  0.46750  0.14230  0.37040  1.0000 -0.1364973277
C   C69       1.0  0.58040  0.79990  0.60340  1.0000 -0.0190404212
C   C70       1.0  0.41960  0.20010  0.39660  1.0000 -0.0190404212
C   C71       1.0  0.60960  0.82610  0.51420  1.0000 0.52874109
C   C72       1.0  0.39040  0.17390  0.48580  1.0000 0.52874109
C   C73       1.0  0.47090  0.89770  0.74080  1.0000 0.5707218334
C   C74       1.0  0.52910  0.10230  0.25920  1.0000 0.5707218334
C   C75       1.0  0.47840  0.60590  0.53420  1.0000 -0.5386011088
C   C76       1.0  0.52160  0.39410  0.46580  1.0000 -0.5386011088
C   C77       1.0  0.36860  0.61760  0.59170  1.0000 0.3899401561
C   C78       1.0  0.63140  0.38240  0.40830  1.0000 0.3899401561
C   C79       1.0  0.25010  0.60950  0.70150  1.0000 0.1297989659
C   C80       1.0  0.74990  0.39050  0.29850  1.0000 0.1297989659
C   C81       1.0  0.19930  0.59140  0.78090  1.0000 -0.1624240126
C   C82       1.0  0.80070  0.40860  0.21910  1.0000 -0.1624240126
C   C83       1.0  0.07140  0.62510  0.79060  1.0000 -0.0924194465
C   C84       1.0  0.92860  0.37490  0.20940  1.0000 -0.0924194465
C   C85       1.0  0.99000  0.67240  0.72620  1.0000 -0.0924194465
C   C86       1.0  0.01000  0.32760  0.27380  1.0000 -0.0924194465
C   C87       1.0  0.03740  0.69070  0.64800  1.0000 -0.1807963093
C   C88       1.0  0.96260  0.30930  0.35200  1.0000 -0.1807963093
C   C89       1.0  0.17160  0.65850  0.63620  1.0000 0.0808573499
C   C90       1.0  0.82840  0.34150  0.36380  1.0000 0.0808573499
C   C91       1.0  0.20900  0.71380  0.48370  1.0000 -0.101429002
C   C92       1.0  0.79100  0.28620  0.51630  1.0000 -0.101429002
C   C93       1.0  0.23450  0.85490  0.35750  1.0000 -0.0924194465
C   C94       1.0  0.76550  0.14510  0.64250  1.0000 -0.0924194465
C   C95       1.0  0.28150  0.79790  0.44280  1.0000 -0.2118284568
C   C96       1.0  0.71850  0.20210  0.55720  1.0000 -0.2118284568
C   C97       1.0  0.94660  0.81000  0.32460  1.0000 -0.5386011088
C   C98       1.0  0.05340  0.19000  0.67540  1.0000 -0.5386011088
C   C99       1.0  0.96940  0.87630  0.34500  1.0000 0.377254276
C   C100      1.0  0.03060  0.12370  0.65500  1.0000 0.377254276
C   C101      1.0  0.93250  0.98390  0.36890  1.0000 0.1399307419
C   C102      1.0  0.06750  0.01610  0.63110  1.0000 0.1399307419
C   C103      1.0  0.87590  0.04860  0.38220  1.0000 -0.1624240126
C   C104      1.0  0.12410  0.95140  0.61780  1.0000 -0.1624240126
C   C105      1.0  0.97000  0.09460  0.39680  1.0000 -0.1117731776
C   C106      1.0  0.03000  0.90540  0.60320  1.0000 -0.1117731776
C   C107      1.0  0.11510  0.07440  0.40000  1.0000 -0.0924194465
C   C108      1.0  0.88490  0.92560  0.60000  1.0000 -0.0924194465
C   C109      1.0  0.17130  0.00960  0.38870  1.0000 -0.1694033757
C   C110      1.0  0.82870  0.99040  0.61130  1.0000 -0.1694033757
C   C111      1.0  0.07680  0.96390  0.37300  1.0000 0.0901689179
C   C112      1.0  0.92320  0.03610  0.62700  1.0000 0.0901689179
N   N1        1.0  0.61100  0.58810  0.16640  1.0000 -0.4496530607
N   N2        1.0  0.38900  0.41190  0.83360  1.0000 -0.4496530607
N   N3        1.0  0.69250  0.69280  0.04970  1.0000 -0.0689282482
N   N4        1.0  0.30750  0.30720  0.95030  1.0000 -0.0689282482
N   N5        1.0  0.96270  0.86250  0.84160  1.0000 -0.0689282482
N   N6        1.0  0.03730  0.13750  0.15840  1.0000 -0.0689282482
N   N7        1.0  0.15470  0.91130  0.86070  1.0000 -0.4290226117
N   N8        1.0  0.84530  0.08870  0.13930  1.0000 -0.4290226117
N   N9        1.0  0.86820  0.92820  0.35100  1.0000 -0.4290226117
N   N10       1.0  0.13180  0.07180  0.64900  1.0000 -0.4404664153
N   N11       1.0  0.09640  0.89610  0.35800  1.0000 -0.0649441123
N   N12       1.0  0.90360  0.10390  0.64200  1.0000 -0.0649441123
N   N13       1.0  0.24900  0.66350  0.56700  1.0000 -0.0689282482
N   N14       1.0  0.75100  0.33650  0.43300  1.0000 -0.0689282482
N   N15       1.0  0.37430  0.58420  0.67130  1.0000 -0.4404664153
N   N16       1.0  0.62570  0.41580  0.32870  1.0000 -0.4404664153
O   O1        1.0  0.35750  0.54550  0.31040  1.0000 -0.5386011088
O   O2        1.0  0.64250  0.45450  0.68960  1.0000 -0.5386011088
O   O3        1.0  0.27970  0.61020  0.38000  1.0000 -0.5386011088
O   O4        1.0  0.72030  0.38980  0.62000  1.0000 -0.5386011088
O   O5        1.0  0.33840  0.77940  0.00370  1.0000 -0.5321984842
O   O6        1.0  0.66160  0.22060  0.99630  1.0000 -0.5321984842
O   O7        1.0  0.42790  0.90070  0.97320  1.0000 -0.5321984842
O   O8        1.0  0.57210  0.09930  0.02680  1.0000 -0.5386011088
O   O9        1.0  0.62860  0.94810  0.17830  1.0000 -0.5588220969
O   O10       1.0  0.37140  0.05190  0.82170  1.0000 -0.5588220969
O   O11       1.0  0.58190  0.85840  0.30920  1.0000 -0.5489922876
O   O12       1.0  0.41810  0.14160  0.69080  1.0000 -0.5489922876
O   O13       1.0  0.64050  0.54930  0.78380  1.0000 -0.5588220969
O   O14       1.0  0.35950  0.45070  0.21620  1.0000 -0.5588220969
O   O15       1.0  0.66330  0.59550  0.87260  1.0000 -0.52143109
O   O16       1.0  0.33670  0.40450  0.12740  1.0000 -0.52143109
O   O17       1.0  0.57010  0.89970  0.46490  1.0000 -0.5321984842
O   O18       1.0  0.42990  0.10030  0.53510  1.0000 -0.5321984842
O   O19       1.0  0.66950  0.77890  0.49080  1.0000 -0.52143109
O   O20       1.0  0.33050  0.22110  0.50920  1.0000 -0.52143109
O   O21       1.0  0.41390  0.96290  0.69140  1.0000 -0.5489922876
O   O22       1.0  0.58610  0.03710  0.30860  1.0000 -0.5489922876
O   O23       1.0  0.48610  0.88040  0.81330  1.0000 -0.5489922876
O   O24       1.0  0.51390  0.11960  0.18670  1.0000 -0.5489922876
