# DDEC6 charges by PACMAN v1.1 (https://github.com/mtap-research/PACMAN-charge/)
data_2014[Er][vmd]3[ASR]2
_chemical_formula_sum              "Er8 H32 C32 O64"
_cell_length_a       14.639
_cell_length_b       12.852
_cell_length_c       12.8392
_cell_angle_alpha    90
_cell_angle_beta     104.29
_cell_angle_gamma    90

_symmetry_space_group_name_H-M    "P 1"
_symmetry_Int_Tables_number       1

loop_
  _symmetry_equiv_pos_as_xyz
  'x, y, z'

loop_
  _atom_site_type_symbol
  _atom_site_label
  _atom_site_symmetry_multiplicity
  _atom_site_fract_x
  _atom_site_fract_y
  _atom_site_fract_z
  _atom_site_occupancy
  _atom_site_charge
Er  Er1       1.0  0.23655  0.06463  0.31623  1.0000 2.0578605492
Er  Er2       1.0  0.76303  0.93592  0.68384  1.0000 2.0578605492
Er  Er3       1.0  0.76339  0.06305  0.18416  1.0000 2.0578605492
Er  Er4       1.0  0.23602  0.93538  0.81574  1.0000 2.0578605492
Er  Er5       1.0  0.73946  0.56244  0.31820  1.0000 2.0340679247
Er  Er6       1.0  0.26190  0.43706  0.68132  1.0000 2.0397787649
Er  Er7       1.0  0.26234  0.56246  0.18162  1.0000 2.0397787649
Er  Er8       1.0  0.73912  0.43577  0.81719  1.0000 2.0397787649
H   H1        1.0  0.29848  0.98207  0.09179  1.0000 0.0412907988
H   H2        1.0  0.70190  0.01785  0.90839  1.0000 0.0412907988
H   H3        1.0  0.70088  0.98387  0.40764  1.0000 0.0412907988
H   H4        1.0  0.29843  0.01773  0.59166  1.0000 0.0412907988
H   H5        1.0  0.80182  0.48333  0.09539  1.0000 0.0412907988
H   H6        1.0  0.20124  0.51877  0.90680  1.0000 0.0474700828
H   H7        1.0  0.20110  0.48097  0.40660  1.0000 0.0474700828
H   H8        1.0  0.79911  0.51976  0.59331  1.0000 0.0474700828
H   H9        1.0  0.00026  0.20696  0.24980  1.0000 0.0474700828
H   H10       1.0  0.00002  0.79278  0.75027  1.0000 0.0412907988
H   H11       1.0  0.50055  0.70737  0.25036  1.0000 0.0307690009
H   H12       1.0  0.50025  0.29230  0.75002  1.0000 0.0307690009
H   H13       1.0  0.33982  0.83408  0.24794  1.0000 0.01804787
H   H14       1.0  0.66078  0.16524  0.75356  1.0000 0.0307690009
H   H15       1.0  0.65874  0.83389  0.24780  1.0000 0.01804787
H   H16       1.0  0.33988  0.16551  0.74793  1.0000 0.01804787
H   H17       1.0  0.83911  0.33062  0.24706  1.0000 0.0307690009
H   H18       1.0  0.16211  0.66802  0.75419  1.0000 0.0307690009
H   H19       1.0  0.16219  0.33159  0.25415  1.0000 0.0307690009
H   H20       1.0  0.83753  0.66843  0.74515  1.0000 0.0307690009
H   H21       1.0  0.50126  0.97856  0.38610  1.0000 0.073846929
H   H22       1.0  0.49903  0.02062  0.61303  1.0000 0.073846929
H   H23       1.0  0.49929  0.97885  0.11361  1.0000 0.073846929
H   H24       1.0  0.50132  0.02117  0.88578  1.0000 0.073846929
H   H25       1.0  0.00441  0.47490  0.38029  1.0000 0.073846929
H   H26       1.0  0.99677  0.52343  0.61685  1.0000 0.073846929
H   H27       1.0  0.99714  0.47639  0.11650  1.0000 0.073846929
H   H28       1.0  0.00331  0.52310  0.88330  1.0000 0.0766039338
H   H29       1.0  0.66992  0.77978  0.40485  1.0000 0.01804787
H   H30       1.0  0.35619  0.23816  0.57657  1.0000 0.0307690009
H   H31       1.0  0.35783  0.76225  0.07665  1.0000 0.0307690009
H   H32       1.0  0.64668  0.28421  0.97132  1.0000 0.0474700828
C   C1        1.0  0.22528  0.01636  0.06037  1.0000 0.5874948402
C   C2        1.0  0.77448  0.98233  0.93929  1.0000 0.5874948402
C   C3        1.0  0.77440  0.01745  0.43898  1.0000 0.5822644534
C   C4        1.0  0.22529  0.98331  0.56024  1.0000 0.5874948402
C   C5        1.0  0.72709  0.51373  0.06375  1.0000 0.5822644534
C   C6        1.0  0.27381  0.48219  0.93762  1.0000 0.5822644534
C   C7        1.0  0.27377  0.51737  0.43747  1.0000 0.5822644534
C   C8        1.0  0.72617  0.48400  0.56234  1.0000 0.5874948402
C   C9        1.0  0.00015  0.11950  0.25008  1.0000 0.630875643
C   C10       1.0  0.99981  0.88029  0.74988  1.0000 0.630875643
C   C11       1.0  0.50071  0.61952  0.25027  1.0000 0.617145117
C   C12       1.0  0.50020  0.38017  0.74991  1.0000 0.617145117
C   C13       1.0  0.26936  0.81459  0.26492  1.0000 0.5874948402
C   C14       1.0  0.73011  0.18471  0.73396  1.0000 0.5874948402
C   C15       1.0  0.73012  0.81335  0.23314  1.0000 0.5874948402
C   C16       1.0  0.26954  0.18515  0.76508  1.0000 0.5874948402
C   C17       1.0  0.76952  0.31306  0.26638  1.0000 0.5874948402
C   C18       1.0  0.23050  0.68650  0.73243  1.0000 0.5964965184
C   C19       1.0  0.23069  0.31323  0.23250  1.0000 0.5964965184
C   C20       1.0  0.76881  0.68590  0.76655  1.0000 0.5964965184
C   C21       1.0  0.42989  0.01401  0.36701  1.0000 0.4843515515
C   C22       1.0  0.57054  0.98521  0.63293  1.0000 0.4860956181
C   C23       1.0  0.57056  0.01446  0.13360  1.0000 0.4843515515
C   C24       1.0  0.42998  0.98574  0.86714  1.0000 0.4843515515
C   C25       1.0  0.93260  0.50853  0.36355  1.0000 0.4843515515
C   C26       1.0  0.06873  0.48970  0.63542  1.0000 0.4860956181
C   C27       1.0  0.06898  0.51037  0.13512  1.0000 0.4843515515
C   C28       1.0  0.93139  0.48966  0.86526  1.0000 0.4843515515
C   C29       1.0  0.28379  0.24781  0.52146  1.0000 0.5874948402
C   C30       1.0  0.73081  0.75722  0.47401  1.0000 0.5822644534
C   C31       1.0  0.72316  0.26098  0.99094  1.0000 0.5822644534
C   C32       1.0  0.28563  0.75201  0.02180  1.0000 0.5822644534
O   O1        1.0  0.19453  0.98471  0.45979  1.0000 -0.5272119086
O   O2        1.0  0.80594  0.01512  0.53932  1.0000 -0.522550885
O   O3        1.0  0.80509  0.98329  0.03991  1.0000 -0.5272119086
O   O4        1.0  0.19457  0.01458  0.95983  1.0000 -0.5272119086
O   O5        1.0  0.69371  0.48749  0.46236  1.0000 -0.522550885
O   O6        1.0  0.30559  0.51502  0.53770  1.0000 -0.5272119086
O   O7        1.0  0.30560  0.48401  0.03774  1.0000 -0.5272119086
O   O8        1.0  0.69337  0.50160  0.96415  1.0000 -0.5489751638
O   O9        1.0  0.18709  0.05119  0.13082  1.0000 -0.5416728299
O   O10       1.0  0.81261  0.94709  0.86892  1.0000 -0.5489751638
O   O11       1.0  0.81278  0.05237  0.36858  1.0000 -0.5489751638
O   O12       1.0  0.18701  0.94863  0.63074  1.0000 -0.5416728299
O   O13       1.0  0.68990  0.55364  0.13235  1.0000 -0.5416728299
O   O14       1.0  0.31038  0.44569  0.86645  1.0000 -0.5489751638
O   O15       1.0  0.31040  0.55418  0.36662  1.0000 -0.5489751638
O   O16       1.0  0.68976  0.44651  0.63317  1.0000 -0.5489751638
O   O17       1.0  0.07947  0.07540  0.27859  1.0000 -0.5703248924
O   O18       1.0  0.92071  0.92467  0.72110  1.0000 -0.5703248924
O   O19       1.0  0.92082  0.07525  0.22190  1.0000 -0.5703248924
O   O20       1.0  0.07920  0.92434  0.77842  1.0000 -0.5703248924
O   O21       1.0  0.58025  0.57620  0.28165  1.0000 -0.5703248924
O   O22       1.0  0.42102  0.42397  0.71847  1.0000 -0.5703248924
O   O23       1.0  0.42143  0.57576  0.21878  1.0000 -0.5703248924
O   O24       1.0  0.57973  0.42357  0.78152  1.0000 -0.5703248924
O   O25       1.0  0.39519  0.03911  0.44536  1.0000 -0.5489751638
O   O26       1.0  0.60682  0.95902  0.55607  1.0000 -0.5489751638
O   O27       1.0  0.60575  0.04332  0.05689  1.0000 -0.5489751638
O   O28       1.0  0.39547  0.96118  0.94571  1.0000 -0.5489751638
O   O29       1.0  0.89623  0.53048  0.44137  1.0000 -0.5416728299
O   O30       1.0  0.10650  0.46654  0.55875  1.0000 -0.5489751638
O   O31       1.0  0.10661  0.53415  0.05848  1.0000 -0.5489751638
O   O32       1.0  0.89370  0.46864  0.94239  1.0000 -0.5416728299
O   O33       1.0  0.22692  0.88975  0.29440  1.0000 -0.562082255
O   O34       1.0  0.77313  0.10950  0.70587  1.0000 -0.5703248924
O   O35       1.0  0.77388  0.88906  0.20540  1.0000 -0.5703248924
O   O36       1.0  0.22697  0.11006  0.79449  1.0000 -0.562082255
O   O37       1.0  0.72749  0.38958  0.29491  1.0000 -0.5703248924
O   O38       1.0  0.27327  0.61053  0.70423  1.0000 -0.5703248924
O   O39       1.0  0.27338  0.38922  0.20433  1.0000 -0.5703248924
O   O40       1.0  0.72740  0.60947  0.79638  1.0000 -0.5788156593
O   O41       1.0  0.25601  0.21941  0.23892  1.0000 -0.562082255
O   O42       1.0  0.74171  0.77916  0.75853  1.0000 -0.562082255
O   O43       1.0  0.74223  0.22002  0.25706  1.0000 -0.5703248924
O   O44       1.0  0.25562  0.78040  0.73876  1.0000 -0.562082255
O   O45       1.0  0.75653  0.72085  0.24646  1.0000 -0.562082255
O   O46       1.0  0.24363  0.27864  0.75263  1.0000 -0.5703248924
O   O47       1.0  0.24338  0.72117  0.25215  1.0000 -0.5703248924
O   O48       1.0  0.75456  0.27901  0.74202  1.0000 -0.5703248924
O   O49       1.0  0.38236  0.02603  0.26932  1.0000 -0.5788156593
O   O50       1.0  0.61701  0.97433  0.73115  1.0000 -0.5788156593
O   O51       1.0  0.61812  0.02305  0.23164  1.0000 -0.5788156593
O   O52       1.0  0.38227  0.97327  0.76944  1.0000 -0.5788156593
O   O53       1.0  0.88390  0.52444  0.26653  1.0000 -0.5788156593
O   O54       1.0  0.11642  0.47517  0.73285  1.0000 -0.5788156593
O   O55       1.0  0.11664  0.52427  0.23270  1.0000 -0.5788156593
O   O56       1.0  0.88424  0.47313  0.76791  1.0000 -0.5788156593
O   O57       1.0  0.26198  0.18572  0.44348  1.0000 -0.5922028264
O   O58       1.0  0.74431  0.81311  0.55688  1.0000 -0.5922028264
O   O59       1.0  0.74297  0.18416  0.05413  1.0000 -0.597743098
O   O60       1.0  0.26344  0.81403  0.94369  1.0000 -0.5922028264
O   O61       1.0  0.77779  0.67869  0.46020  1.0000 -0.5703248924
O   O62       1.0  0.23155  0.31926  0.54153  1.0000 -0.5788156593
O   O63       1.0  0.23387  0.68020  0.04188  1.0000 -0.5788156593
O   O64       1.0  0.77908  0.31211  0.94982  1.0000 -0.5703248924
