# DDEC6 charges by PACMAN v1.1 (https://github.com/mtap-research/PACMAN-charge/)
data_2014[Cu][nan]3[ASR]14
_chemical_formula_sum              "Cu8 H140 C138 N20 O24"
_cell_length_a       9.2762
_cell_length_b       14.823
_cell_length_c       27.4058
_cell_angle_alpha    90
_cell_angle_beta     90
_cell_angle_gamma    90

_symmetry_space_group_name_H-M    "P 1"
_symmetry_Int_Tables_number       1

loop_
  _symmetry_equiv_pos_as_xyz
  'x, y, z'

loop_
  _atom_site_type_symbol
  _atom_site_label
  _atom_site_symmetry_multiplicity
  _atom_site_fract_x
  _atom_site_fract_y
  _atom_site_fract_z
  _atom_site_occupancy
  _atom_site_charge
Cu  Cu1       1.0  0.38713  0.05394  0.43951  1.0000 0.7171511771
Cu  Cu2       1.0  0.38713  0.94606  0.56049  1.0000 0.7171511771
Cu  Cu3       1.0  0.61287  0.55394  0.06049  1.0000 0.7171511771
Cu  Cu4       1.0  0.61287  0.44606  0.93951  1.0000 0.7171511771
Cu  Cu5       1.0  0.89039  0.03071  0.43664  1.0000 0.7931963326
Cu  Cu6       1.0  0.89039  0.96929  0.56336  1.0000 0.7931963326
Cu  Cu7       1.0  0.10961  0.53071  0.06336  1.0000 0.7931963326
Cu  Cu8       1.0  0.10961  0.46929  0.93664  1.0000 0.7931963326
H   H1        1.0  0.16840  0.97700  0.37210  1.0000 0.1114442734
H   H2        1.0  0.16840  0.02300  0.62790  1.0000 0.1114442734
H   H3        1.0  0.83160  0.47700  0.12790  1.0000 0.1114442734
H   H4        1.0  0.83160  0.52300  0.87210  1.0000 0.1114442734
H   H5        1.0  0.11480  0.84230  0.33360  1.0000 0.1326135282
H   H6        1.0  0.11480  0.15770  0.66640  1.0000 0.1326135282
H   H7        1.0  0.88520  0.34230  0.16640  1.0000 0.1326135282
H   H8        1.0  0.88520  0.65770  0.83360  1.0000 0.1326135282
H   H9        1.0  0.48350  0.73780  0.38670  1.0000 0.1397354223
H   H10       1.0  0.48350  0.26220  0.61330  1.0000 0.1397354223
H   H11       1.0  0.51650  0.23780  0.11330  1.0000 0.1397354223
H   H12       1.0  0.51650  0.76220  0.88670  1.0000 0.1397354223
H   H13       1.0  0.52920  0.87470  0.42500  1.0000 0.1114442734
H   H14       1.0  0.52920  0.12530  0.57500  1.0000 0.1114442734
H   H15       1.0  0.47080  0.37470  0.07500  1.0000 0.1114442734
H   H16       1.0  0.47080  0.62530  0.92500  1.0000 0.1114442734
H   H17       1.0  0.26590  0.63530  0.35810  1.0000 0.1201627769
H   H18       1.0  0.26590  0.36470  0.64190  1.0000 0.1201627769
H   H19       1.0  0.73410  0.13530  0.14190  1.0000 0.1201627769
H   H20       1.0  0.73410  0.86470  0.85810  1.0000 0.1201627769
H   H21       1.0  0.14990  0.68510  0.32460  1.0000 0.1201627769
H   H22       1.0  0.14990  0.31490  0.67540  1.0000 0.1201627769
H   H23       1.0  0.85010  0.18510  0.17540  1.0000 0.1201627769
H   H24       1.0  0.85010  0.81490  0.82460  1.0000 0.1201627769
H   H25       1.0  0.39680  0.60980  0.30140  1.0000 0.0912484101
H   H26       1.0  0.39680  0.39020  0.69860  1.0000 0.0912484101
H   H27       1.0  0.60320  0.10980  0.19860  1.0000 0.0912484101
H   H28       1.0  0.60320  0.89020  0.80140  1.0000 0.0912484101
H   H29       1.0  0.26450  0.63570  0.26800  1.0000 0.0999177057
H   H30       1.0  0.26450  0.36430  0.73200  1.0000 0.0999177057
H   H31       1.0  0.73550  0.13570  0.23200  1.0000 0.0999177057
H   H32       1.0  0.73550  0.86430  0.76800  1.0000 0.0999177057
H   H33       1.0  0.51110  0.72870  0.28280  1.0000 0.1114442734
H   H34       1.0  0.51110  0.27130  0.71720  1.0000 0.1114442734
H   H35       1.0  0.48890  0.22870  0.21720  1.0000 0.1114442734
H   H36       1.0  0.48890  0.77130  0.78280  1.0000 0.1114442734
H   H37       1.0  0.37350  0.77280  0.25760  1.0000 0.1201627769
H   H38       1.0  0.37350  0.22720  0.74240  1.0000 0.1201627769
H   H39       1.0  0.62650  0.27280  0.24240  1.0000 0.1201627769
H   H40       1.0  0.62650  0.72720  0.75760  1.0000 0.1201627769
H   H41       1.0  0.27610  0.64450  0.19060  1.0000 0.1506447391
H   H42       1.0  0.27610  0.35550  0.80940  1.0000 0.1506447391
H   H43       1.0  0.72390  0.14450  0.30940  1.0000 0.1506447391
H   H44       1.0  0.72390  0.85550  0.69060  1.0000 0.1506447391
H   H45       1.0  0.35060  0.58960  0.11600  1.0000 0.0999177057
H   H46       1.0  0.35060  0.41040  0.88400  1.0000 0.0999177057
H   H47       1.0  0.64940  0.08960  0.38400  1.0000 0.0999177057
H   H48       1.0  0.64940  0.91040  0.61600  1.0000 0.0999177057
H   H49       1.0  0.68870  0.70890  0.22070  1.0000 0.1397354223
H   H50       1.0  0.68870  0.29110  0.77930  1.0000 0.1397354223
H   H51       1.0  0.31130  0.20890  0.27930  1.0000 0.1397354223
H   H52       1.0  0.31130  0.79110  0.72070  1.0000 0.1397354223
H   H53       1.0  0.75560  0.65080  0.14560  1.0000 0.1201627769
H   H54       1.0  0.75560  0.34920  0.85440  1.0000 0.1201627769
H   H55       1.0  0.24440  0.15080  0.35440  1.0000 0.1201627769
H   H56       1.0  0.24440  0.84920  0.64560  1.0000 0.1201627769
H   H57       1.0  0.59700  0.19960  0.46470  1.0000 0.1201627769
H   H58       1.0  0.59700  0.80040  0.53530  1.0000 0.1201627769
H   H59       1.0  0.40300  0.69960  0.03530  1.0000 0.1201627769
H   H60       1.0  0.40300  0.30040  0.96470  1.0000 0.1201627769
H   H61       1.0  0.59790  0.34210  0.49920  1.0000 0.1397354223
H   H62       1.0  0.59790  0.65790  0.50080  1.0000 0.1397354223
H   H63       1.0  0.40210  0.84210  0.00080  1.0000 0.1397354223
H   H64       1.0  0.40210  0.15790  0.99920  1.0000 0.1397354223
H   H65       1.0  0.16760  0.32140  0.51930  1.0000 0.1397354223
H   H66       1.0  0.16760  0.67860  0.48070  1.0000 0.1397354223
H   H67       1.0  0.83240  0.82140  0.98070  1.0000 0.1397354223
H   H68       1.0  0.83240  0.17860  0.01930  1.0000 0.1397354223
H   H69       1.0  0.17540  0.18200  0.48160  1.0000 0.1201627769
H   H70       1.0  0.17540  0.81800  0.51840  1.0000 0.1201627769
H   H71       1.0  0.82460  0.68200  0.01840  1.0000 0.1201627769
H   H72       1.0  0.82460  0.31800  0.98160  1.0000 0.1201627769
H   H73       1.0  0.30790  0.44270  0.56590  1.0000 0.1201627769
H   H74       1.0  0.30790  0.55730  0.43410  1.0000 0.1201627769
H   H75       1.0  0.69210  0.94270  0.93410  1.0000 0.1201627769
H   H76       1.0  0.69210  0.05730  0.06590  1.0000 0.1201627769
H   H77       1.0  0.47140  0.46380  0.54940  1.0000 0.1201627769
H   H78       1.0  0.47140  0.53620  0.45060  1.0000 0.1201627769
H   H79       1.0  0.52860  0.96380  0.95060  1.0000 0.1201627769
H   H80       1.0  0.52860  0.03620  0.04940  1.0000 0.1201627769
H   H81       1.0  0.25840  0.54120  0.51790  1.0000 0.0999177057
H   H82       1.0  0.25840  0.45880  0.48210  1.0000 0.0999177057
H   H83       1.0  0.74160  0.04120  0.98210  1.0000 0.0999177057
H   H84       1.0  0.74160  0.95880  0.01790  1.0000 0.0999177057
H   H85       1.0  0.80650  0.94450  0.34330  1.0000 0.1114442734
H   H86       1.0  0.80650  0.05550  0.65670  1.0000 0.1114442734
H   H87       1.0  0.19350  0.44450  0.15670  1.0000 0.1114442734
H   H88       1.0  0.19350  0.55550  0.84330  1.0000 0.1114442734
H   H89       1.0  0.77840  0.80490  0.30910  1.0000 0.1397354223
H   H90       1.0  0.77840  0.19510  0.69090  1.0000 0.1397354223
H   H91       1.0  0.22160  0.30490  0.19090  1.0000 0.1397354223
H   H92       1.0  0.22160  0.69510  0.80910  1.0000 0.1397354223
H   H93       1.0  0.88300  0.69410  0.43920  1.0000 0.1326135282
H   H94       1.0  0.88300  0.30590  0.56080  1.0000 0.1326135282
H   H95       1.0  0.11700  0.19410  0.06080  1.0000 0.1326135282
H   H96       1.0  0.11700  0.80590  0.93920  1.0000 0.1326135282
H   H97       1.0  0.90790  0.83900  0.47130  1.0000 0.1114442734
H   H98       1.0  0.90790  0.16100  0.52870  1.0000 0.1114442734
H   H99       1.0  0.09210  0.33900  0.02870  1.0000 0.1114442734
H   H100      1.0  0.09210  0.66100  0.97130  1.0000 0.1114442734
H   H101      1.0  0.71940  0.63590  0.33030  1.0000 0.1201627769
H   H102      1.0  0.71940  0.36410  0.66970  1.0000 0.1201627769
H   H103      1.0  0.28060  0.13590  0.16970  1.0000 0.1201627769
H   H104      1.0  0.28060  0.86410  0.83030  1.0000 0.1201627769
H   H105      1.0  0.88600  0.64090  0.31660  1.0000 0.1201627769
H   H106      1.0  0.88600  0.35910  0.68340  1.0000 0.1201627769
H   H107      1.0  0.11400  0.14090  0.18340  1.0000 0.1201627769
H   H108      1.0  0.11400  0.85910  0.81660  1.0000 0.1201627769
H   H109      1.0  0.77300  0.55900  0.40020  1.0000 0.0999177057
H   H110      1.0  0.77300  0.44100  0.59980  1.0000 0.0999177057
H   H111      1.0  0.22700  0.05900  0.09980  1.0000 0.0999177057
H   H112      1.0  0.22700  0.94100  0.90020  1.0000 0.0999177057
H   H113      1.0  0.94120  0.56690  0.38860  1.0000 0.0999177057
H   H114      1.0  0.94120  0.43310  0.61140  1.0000 0.0999177057
H   H115      1.0  0.05880  0.06690  0.11140  1.0000 0.0999177057
H   H116      1.0  0.05880  0.93310  0.88860  1.0000 0.0999177057
H   H117      1.0  0.91410  0.47220  0.32000  1.0000 0.1201627769
H   H118      1.0  0.91410  0.52780  0.68000  1.0000 0.1201627769
H   H119      1.0  0.08590  0.97220  0.18000  1.0000 0.1201627769
H   H120      1.0  0.08590  0.02780  0.82000  1.0000 0.1201627769
H   H121      1.0  0.85960  0.42190  0.36820  1.0000 0.1397354223
H   H122      1.0  0.85960  0.57810  0.63180  1.0000 0.1397354223
H   H123      1.0  0.14040  0.92190  0.13180  1.0000 0.1397354223
H   H124      1.0  0.14040  0.07810  0.86820  1.0000 0.1397354223
H   H125      1.0  0.58190  0.41560  0.38220  1.0000 0.1326135282
H   H126      1.0  0.58190  0.58440  0.61780  1.0000 0.1326135282
H   H127      1.0  0.41810  0.91560  0.11780  1.0000 0.1326135282
H   H128      1.0  0.41810  0.08440  0.88220  1.0000 0.1326135282
H   H129      1.0  0.35860  0.39920  0.34330  1.0000 0.0999177057
H   H130      1.0  0.35860  0.60080  0.65670  1.0000 0.0999177057
H   H131      1.0  0.64140  0.89920  0.15670  1.0000 0.0999177057
H   H132      1.0  0.64140  0.10080  0.84330  1.0000 0.0999177057
H   H133      1.0  0.74720  0.48940  0.25250  1.0000 0.1397354223
H   H134      1.0  0.74720  0.51060  0.74750  1.0000 0.1397354223
H   H135      1.0  0.25280  0.98940  0.24750  1.0000 0.1397354223
H   H136      1.0  0.25280  0.01060  0.75250  1.0000 0.1397354223
H   H137      1.0  0.52580  0.46210  0.21900  1.0000 0.0999177057
H   H138      1.0  0.52580  0.53790  0.78100  1.0000 0.0999177057
H   H139      1.0  0.47420  0.96210  0.28100  1.0000 0.0999177057
H   H140      1.0  0.47420  0.03790  0.71900  1.0000 0.0999177057
C   C1        1.0  0.66740  0.00000  0.50000  1.0000 0.8090068222
C   C2        1.0  0.33260  0.50000  0.00000  1.0000 0.8090068222
C   C3        1.0  0.16910  0.00000  0.50000  1.0000 0.7963118078
C   C4        1.0  0.83090  0.50000  0.00000  1.0000 0.7963118078
C   C5        1.0  0.93390  0.16830  0.39355  1.0000 0.7574434004
C   C6        1.0  0.93390  0.83170  0.60645  1.0000 0.7574434004
C   C7        1.0  0.06610  0.66830  0.10645  1.0000 0.7574434004
C   C8        1.0  0.06610  0.33170  0.89355  1.0000 0.7545559527
C   C9        1.0  0.23200  0.92720  0.37572  1.0000 0.0701586209
C   C10       1.0  0.23200  0.07280  0.62428  1.0000 0.0701586209
C   C11       1.0  0.76800  0.42720  0.12428  1.0000 0.0701586209
C   C12       1.0  0.76800  0.57280  0.87572  1.0000 0.0701586209
C   C13       1.0  0.19960  0.84700  0.35287  1.0000 -0.2111286184
C   C14       1.0  0.19960  0.15300  0.64713  1.0000 -0.2111286184
C   C15       1.0  0.80040  0.34700  0.14713  1.0000 -0.2111286184
C   C16       1.0  0.80040  0.65300  0.85287  1.0000 -0.2111286184
C   C17       1.0  0.28990  0.77310  0.35780  1.0000 0.171030689
C   C18       1.0  0.28990  0.22690  0.64220  1.0000 0.171030689
C   C19       1.0  0.71010  0.27310  0.14220  1.0000 0.171030689
C   C20       1.0  0.71010  0.72690  0.85780  1.0000 0.171030689
C   C21       1.0  0.41570  0.78560  0.38410  1.0000 -0.2111286184
C   C22       1.0  0.41570  0.21440  0.61590  1.0000 -0.2111286184
C   C23       1.0  0.58430  0.28560  0.11590  1.0000 -0.2111286184
C   C24       1.0  0.58430  0.71440  0.88410  1.0000 -0.2111286184
C   C25       1.0  0.44310  0.86770  0.40663  1.0000 0.0912484101
C   C26       1.0  0.44310  0.13230  0.59337  1.0000 0.0912484101
C   C27       1.0  0.55690  0.36770  0.09337  1.0000 0.0912484101
C   C28       1.0  0.55690  0.63230  0.90663  1.0000 0.0912484101
C   C29       1.0  0.25310  0.68390  0.33370  1.0000 -0.2764162673
C   C30       1.0  0.25310  0.31610  0.66630  1.0000 -0.2764162673
C   C31       1.0  0.74690  0.18390  0.16630  1.0000 -0.2764162673
C   C32       1.0  0.74690  0.81610  0.83370  1.0000 -0.2764162673
C   C33       1.0  0.33550  0.66110  0.29120  1.0000 -0.1347527532
C   C34       1.0  0.33550  0.33890  0.70880  1.0000 -0.1347527532
C   C35       1.0  0.66450  0.16110  0.20880  1.0000 -0.1347527532
C   C36       1.0  0.66450  0.83890  0.79120  1.0000 -0.1347527532
C   C37       1.0  0.42430  0.71500  0.26310  1.0000 -0.258785884
C   C38       1.0  0.42430  0.28500  0.73690  1.0000 -0.258785884
C   C39       1.0  0.57570  0.21500  0.23690  1.0000 -0.258785884
C   C40       1.0  0.57570  0.78500  0.76310  1.0000 -0.258785884
C   C41       1.0  0.47430  0.68130  0.21450  1.0000 0.171030689
C   C42       1.0  0.47430  0.31870  0.78550  1.0000 0.171030689
C   C43       1.0  0.52570  0.18130  0.28550  1.0000 0.171030689
C   C44       1.0  0.52570  0.81870  0.71450  1.0000 0.171030689
C   C45       1.0  0.37540  0.64600  0.18223  1.0000 -0.1956257402
C   C46       1.0  0.37540  0.35400  0.81777  1.0000 -0.1956257402
C   C47       1.0  0.62460  0.14600  0.31777  1.0000 -0.1956257402
C   C48       1.0  0.62460  0.85400  0.68223  1.0000 -0.1956257402
C   C49       1.0  0.42050  0.61300  0.13790  1.0000 0.0793549911
C   C50       1.0  0.42050  0.38700  0.86210  1.0000 0.0793549911
C   C51       1.0  0.57950  0.11300  0.36210  1.0000 0.0793549911
C   C52       1.0  0.57950  0.88700  0.63790  1.0000 0.0793549911
C   C53       1.0  0.61770  0.68350  0.19985  1.0000 -0.2111286184
C   C54       1.0  0.61770  0.31650  0.80015  1.0000 -0.2111286184
C   C55       1.0  0.38230  0.18350  0.30015  1.0000 -0.2111286184
C   C56       1.0  0.38230  0.81650  0.69985  1.0000 -0.2111286184
C   C57       1.0  0.65710  0.64900  0.15506  1.0000 0.0701586209
C   C58       1.0  0.65710  0.35100  0.84494  1.0000 0.0701586209
C   C59       1.0  0.34290  0.14900  0.34494  1.0000 0.0701586209
C   C60       1.0  0.34290  0.85100  0.65506  1.0000 0.0701586209
C   C61       1.0  0.50880  0.22510  0.47566  1.0000 0.0701586209
C   C62       1.0  0.50880  0.77490  0.52434  1.0000 0.0701586209
C   C63       1.0  0.49120  0.72510  0.02434  1.0000 0.0701586209
C   C64       1.0  0.49120  0.27490  0.97566  1.0000 0.0701586209
C   C65       1.0  0.50970  0.31000  0.49630  1.0000 -0.2111286184
C   C66       1.0  0.50970  0.69000  0.50370  1.0000 -0.2111286184
C   C67       1.0  0.49030  0.81000  0.00370  1.0000 -0.2111286184
C   C68       1.0  0.49030  0.19000  0.99630  1.0000 -0.2111286184
C   C69       1.0  0.38450  0.34820  0.51250  1.0000 0.1765913562
C   C70       1.0  0.38450  0.65180  0.48750  1.0000 0.1765913562
C   C71       1.0  0.61550  0.84820  0.98750  1.0000 0.1765913562
C   C72       1.0  0.61550  0.15180  0.01250  1.0000 0.1765913562
C   C73       1.0  0.25660  0.29800  0.50770  1.0000 -0.2206394651
C   C74       1.0  0.25660  0.70200  0.49230  1.0000 -0.2206394651
C   C75       1.0  0.74340  0.79800  0.99230  1.0000 -0.2206394651
C   C76       1.0  0.74340  0.20200  0.00770  1.0000 -0.2206394651
C   C77       1.0  0.26260  0.21460  0.48600  1.0000 0.0912484101
C   C78       1.0  0.26260  0.78540  0.51400  1.0000 0.0912484101
C   C79       1.0  0.73740  0.71460  0.01400  1.0000 0.0912484101
C   C80       1.0  0.73740  0.28540  0.98600  1.0000 0.0912484101
C   C81       1.0  0.37500  0.44370  0.53790  1.0000 -0.2678701646
C   C82       1.0  0.37500  0.55630  0.46210  1.0000 -0.2678701646
C   C83       1.0  0.62500  0.94370  0.96210  1.0000 -0.2678701646
C   C84       1.0  0.62500  0.05630  0.03790  1.0000 -0.2678701646
C   C85       1.0  0.32400  0.50000  0.50000  1.0000 -0.1430084287
C   C86       1.0  0.67600  0.00000  0.00000  1.0000 -0.1430084287
C   C87       1.0  0.82330  0.89280  0.36293  1.0000 0.0590565077
C   C88       1.0  0.82330  0.10720  0.63707  1.0000 0.0590565077
C   C89       1.0  0.17670  0.39280  0.13707  1.0000 0.0590565077
C   C90       1.0  0.17670  0.60720  0.86293  1.0000 0.0590565077
C   C91       1.0  0.80610  0.80980  0.34230  1.0000 -0.2111286184
C   C92       1.0  0.80610  0.19020  0.65770  1.0000 -0.2111286184
C   C93       1.0  0.19390  0.30980  0.15770  1.0000 -0.2111286184
C   C94       1.0  0.19390  0.69020  0.84230  1.0000 -0.2111286184
C   C95       1.0  0.82840  0.73420  0.36930  1.0000 0.171030689
C   C96       1.0  0.82840  0.26580  0.63070  1.0000 0.171030689
C   C97       1.0  0.17160  0.23420  0.13070  1.0000 0.171030689
C   C98       1.0  0.17160  0.76580  0.86930  1.0000 0.171030689
C   C99       1.0  0.86750  0.74530  0.41900  1.0000 -0.2206394651
C   C100      1.0  0.86750  0.25470  0.58100  1.0000 -0.2206394651
C   C101      1.0  0.13250  0.24530  0.08100  1.0000 -0.2206394651
C   C102      1.0  0.13250  0.75470  0.91900  1.0000 -0.2206394651
C   C103      1.0  0.88290  0.83160  0.43800  1.0000 0.0793549911
C   C104      1.0  0.88290  0.16840  0.56200  1.0000 0.0793549911
C   C105      1.0  0.11710  0.33160  0.06200  1.0000 0.0793549911
C   C106      1.0  0.11710  0.66840  0.93800  1.0000 0.0793549911
C   C107      1.0  0.81750  0.64140  0.34420  1.0000 -0.2678701646
C   C108      1.0  0.81750  0.35860  0.65580  1.0000 -0.2678701646
C   C109      1.0  0.18250  0.14140  0.15580  1.0000 -0.2678701646
C   C110      1.0  0.18250  0.85860  0.84420  1.0000 -0.2678701646
C   C111      1.0  0.84470  0.56120  0.37350  1.0000 -0.1430084287
C   C112      1.0  0.84470  0.43880  0.62650  1.0000 -0.1430084287
C   C113      1.0  0.15530  0.06120  0.12650  1.0000 -0.1430084287
C   C114      1.0  0.15530  0.93880  0.87350  1.0000 -0.1430084287
C   C115      1.0  0.83840  0.47210  0.34550  1.0000 -0.2503420739
C   C116      1.0  0.83840  0.52790  0.65450  1.0000 -0.2503420739
C   C117      1.0  0.16160  0.97210  0.15450  1.0000 -0.2503420739
C   C118      1.0  0.16160  0.02790  0.84550  1.0000 -0.2503420739
C   C119      1.0  0.69470  0.45560  0.32180  1.0000 0.171030689
C   C120      1.0  0.69470  0.54440  0.67820  1.0000 0.171030689
C   C121      1.0  0.30530  0.95560  0.17820  1.0000 0.171030689
C   C122      1.0  0.30530  0.04440  0.82180  1.0000 0.171030689
C   C123      1.0  0.57400  0.42720  0.34820  1.0000 -0.2268095119
C   C124      1.0  0.57400  0.57280  0.65180  1.0000 -0.2268095119
C   C125      1.0  0.42600  0.92720  0.15180  1.0000 -0.2268095119
C   C126      1.0  0.42600  0.07280  0.84820  1.0000 -0.2268095119
C   C127      1.0  0.44000  0.41570  0.32430  1.0000 0.0590565077
C   C128      1.0  0.44000  0.58430  0.67570  1.0000 0.0590565077
C   C129      1.0  0.56000  0.91570  0.17570  1.0000 0.0590565077
C   C130      1.0  0.56000  0.08430  0.82430  1.0000 0.0590565077
C   C131      1.0  0.67090  0.46910  0.27280  1.0000 -0.2268095119
C   C132      1.0  0.67090  0.53090  0.72720  1.0000 -0.2268095119
C   C133      1.0  0.32910  0.96910  0.22720  1.0000 -0.2268095119
C   C134      1.0  0.32910  0.03090  0.77280  1.0000 -0.2268095119
C   C135      1.0  0.53600  0.45300  0.25310  1.0000 0.0590565077
C   C136      1.0  0.53600  0.54700  0.74690  1.0000 0.0590565077
C   C137      1.0  0.46400  0.95300  0.24690  1.0000 0.0590565077
C   C138      1.0  0.46400  0.04700  0.75310  1.0000 0.0590565077
N   N1        1.0  0.35220  0.93670  0.40321  1.0000 -0.2206394651
N   N2        1.0  0.35220  0.06330  0.59679  1.0000 -0.2206394651
N   N3        1.0  0.64780  0.43670  0.09679  1.0000 -0.2206394651
N   N4        1.0  0.64780  0.56330  0.90321  1.0000 -0.2206394651
N   N5        1.0  0.56000  0.61280  0.12445  1.0000 -0.2503420739
N   N6        1.0  0.56000  0.38720  0.87555  1.0000 -0.2503420739
N   N7        1.0  0.44000  0.11280  0.37555  1.0000 -0.2503420739
N   N8        1.0  0.44000  0.88720  0.62445  1.0000 -0.2503420739
N   N9        1.0  0.38590  0.17740  0.47076  1.0000 -0.2268095119
N   N10       1.0  0.38590  0.82260  0.52924  1.0000 -0.2268095119
N   N11       1.0  0.61410  0.67740  0.02924  1.0000 -0.2268095119
N   N12       1.0  0.61410  0.32260  0.97076  1.0000 -0.2268095119
N   N13       1.0  0.86300  0.90540  0.40987  1.0000 -0.258785884
N   N14       1.0  0.86300  0.09460  0.59013  1.0000 -0.258785884
N   N15       1.0  0.13700  0.40540  0.09013  1.0000 -0.258785884
N   N16       1.0  0.13700  0.59460  0.90987  1.0000 -0.258785884
N   N17       1.0  0.42190  0.42680  0.27670  1.0000 -0.292446184
N   N18       1.0  0.42190  0.57320  0.72330  1.0000 -0.292446184
N   N19       1.0  0.57810  0.92680  0.22330  1.0000 -0.292446184
N   N20       1.0  0.57810  0.07320  0.77670  1.0000 -0.292446184
O   O1        1.0  0.81060  0.00000  0.50000  1.0000 -0.6120230733
O   O2        1.0  0.18940  0.50000  0.00000  1.0000 -0.6120230733
O   O3        1.0  0.60730  0.01948  0.45993  1.0000 -0.6583239316
O   O4        1.0  0.60730  0.98052  0.54007  1.0000 -0.6583239316
O   O5        1.0  0.39270  0.51948  0.04007  1.0000 -0.6583239316
O   O6        1.0  0.39270  0.48052  0.95993  1.0000 -0.6583239316
O   O7        1.0  0.31330  0.00000  0.50000  1.0000 -0.5929096221
O   O8        1.0  0.68670  0.50000  0.00000  1.0000 -0.5929096221
O   O9        1.0  0.10900  0.03129  0.46236  1.0000 -0.6402113466
O   O10       1.0  0.10900  0.96871  0.53764  1.0000 -0.6402113466
O   O11       1.0  0.89100  0.53129  0.03764  1.0000 -0.6402113466
O   O12       1.0  0.89100  0.46871  0.96236  1.0000 -0.6402113466
O   O13       1.0  0.97190  0.23720  0.37054  1.0000 -0.6402113466
O   O14       1.0  0.97190  0.76280  0.62946  1.0000 -0.6402113466
O   O15       1.0  0.02810  0.73720  0.12946  1.0000 -0.6402113466
O   O16       1.0  0.02810  0.26280  0.87054  1.0000 -0.6402113466
O   O17       1.0  0.94220  0.08710  0.37473  1.0000 -0.6342228679
O   O18       1.0  0.94220  0.91290  0.62527  1.0000 -0.6342228679
O   O19       1.0  0.05780  0.58710  0.12527  1.0000 -0.6342228679
O   O20       1.0  0.05780  0.41290  0.87473  1.0000 -0.6342228679
O   O21       1.0  0.88450  0.16884  0.43740  1.0000 -0.6120230733
O   O22       1.0  0.88450  0.83116  0.56260  1.0000 -0.6168499469
O   O23       1.0  0.11550  0.66884  0.06260  1.0000 -0.6168499469
O   O24       1.0  0.11550  0.33116  0.93740  1.0000 -0.6120230733
