# DDEC6 charges by PACMAN v1.1 (https://github.com/mtap-research/PACMAN-charge/)
data_2014[Co][nan]3[ASR]2
_chemical_formula_sum              "Co18 H144 C216 N36 O80"
_cell_length_a       12.653
_cell_length_b       25.497
_cell_length_c       31.0377
_cell_angle_alpha    90
_cell_angle_beta     113.11
_cell_angle_gamma    90

_symmetry_space_group_name_H-M    "P 1"
_symmetry_Int_Tables_number       1

loop_
  _symmetry_equiv_pos_as_xyz
  'x, y, z'

loop_
  _atom_site_type_symbol
  _atom_site_label
  _atom_site_symmetry_multiplicity
  _atom_site_fract_x
  _atom_site_fract_y
  _atom_site_fract_z
  _atom_site_occupancy
  _atom_site_charge
Co  Co1       1.0  0.06825  0.99815  0.81303  1.0000 0.9022464101
Co  Co2       1.0  0.93175  0.99815  0.68697  1.0000 0.9022464101
Co  Co3       1.0  0.93175  0.00185  0.18697  1.0000 0.9022464101
Co  Co4       1.0  0.06825  0.00185  0.31303  1.0000 0.9022464101
Co  Co5       1.0  0.94134  0.49964  0.18707  1.0000 0.9022464101
Co  Co6       1.0  0.05866  0.49964  0.31293  1.0000 0.9022464101
Co  Co7       1.0  0.05866  0.50036  0.81293  1.0000 0.9022464101
Co  Co8       1.0  0.94134  0.50036  0.68707  1.0000 0.9022464101
Co  Co9       1.0  0.14551  0.75065  0.03238  1.0000 0.9195246741
Co  Co10      1.0  0.85449  0.75065  0.46762  1.0000 0.9195246741
Co  Co11      1.0  0.85449  0.24935  0.96762  1.0000 0.9195246741
Co  Co12      1.0  0.14551  0.24935  0.53238  1.0000 0.9195246741
Co  Co13      1.0  0.41970  0.74899  0.02427  1.0000 0.9022464101
Co  Co14      1.0  0.58030  0.74899  0.47573  1.0000 0.9022464101
Co  Co15      1.0  0.58030  0.25101  0.97573  1.0000 0.9022464101
Co  Co16      1.0  0.41970  0.25101  0.52427  1.0000 0.9022464101
Co  Co17      1.0  0.50000  0.74901  0.75000  1.0000 0.7340977534
Co  Co18      1.0  0.50000  0.25099  0.25000  1.0000 0.7340977534
H   H1        1.0  0.97830  0.94980  0.88200  1.0000 0.1166806862
H   H2        1.0  0.02170  0.94980  0.61800  1.0000 0.1166806862
H   H3        1.0  0.02170  0.05020  0.11800  1.0000 0.1166806862
H   H4        1.0  0.97830  0.05020  0.38200  1.0000 0.1166806862
H   H5        1.0  0.02140  0.88270  0.93670  1.0000 0.139517539
H   H6        1.0  0.97860  0.88270  0.56330  1.0000 0.139517539
H   H7        1.0  0.97860  0.11730  0.06330  1.0000 0.139517539
H   H8        1.0  0.02140  0.11730  0.43670  1.0000 0.139517539
H   H9        1.0  0.33530  0.87290  0.93180  1.0000 0.139517539
H   H10       1.0  0.66470  0.87290  0.56820  1.0000 0.139517539
H   H11       1.0  0.66470  0.12710  0.06820  1.0000 0.139517539
H   H12       1.0  0.33530  0.12710  0.43180  1.0000 0.139517539
H   H13       1.0  0.28540  0.94080  0.87820  1.0000 0.1006361614
H   H14       1.0  0.71460  0.94080  0.62180  1.0000 0.1006361614
H   H15       1.0  0.71460  0.05920  0.12180  1.0000 0.1006361614
H   H16       1.0  0.28540  0.05920  0.37820  1.0000 0.1006361614
H   H17       1.0  0.27870  0.04440  0.79670  1.0000 0.108754671
H   H18       1.0  0.72130  0.04440  0.70330  1.0000 0.108754671
H   H19       1.0  0.72130  0.95560  0.20330  1.0000 0.108754671
H   H20       1.0  0.27870  0.95560  0.29670  1.0000 0.108754671
H   H21       1.0  0.42850  0.10400  0.82920  1.0000 0.1302223351
H   H22       1.0  0.57150  0.10400  0.67080  1.0000 0.1302223351
H   H23       1.0  0.57150  0.89600  0.17080  1.0000 0.1302223351
H   H24       1.0  0.42850  0.89600  0.32920  1.0000 0.1302223351
H   H25       1.0  0.32950  0.12430  0.93680  1.0000 0.1302223351
H   H26       1.0  0.67050  0.12430  0.56320  1.0000 0.1302223351
H   H27       1.0  0.67050  0.87570  0.06320  1.0000 0.1302223351
H   H28       1.0  0.32950  0.87570  0.43680  1.0000 0.1302223351
H   H29       1.0  0.18650  0.06260  0.90270  1.0000 0.1006361614
H   H30       1.0  0.81350  0.06260  0.59730  1.0000 0.1006361614
H   H31       1.0  0.81350  0.93740  0.09730  1.0000 0.1006361614
H   H32       1.0  0.18650  0.93740  0.40270  1.0000 0.1006361614
H   H33       1.0  0.28200  0.55020  0.88140  1.0000 0.1166806862
H   H34       1.0  0.71800  0.55020  0.61860  1.0000 0.1166806862
H   H35       1.0  0.71800  0.44980  0.11860  1.0000 0.1166806862
H   H36       1.0  0.28200  0.44980  0.38140  1.0000 0.1166806862
H   H37       1.0  0.34170  0.61620  0.93610  1.0000 0.1302223351
H   H38       1.0  0.65830  0.61620  0.56390  1.0000 0.1302223351
H   H39       1.0  0.65830  0.38380  0.06390  1.0000 0.1302223351
H   H40       1.0  0.34170  0.38380  0.43610  1.0000 0.1302223351
H   H41       1.0  0.02180  0.62310  0.93450  1.0000 0.139517539
H   H42       1.0  0.97820  0.62310  0.56550  1.0000 0.139517539
H   H43       1.0  0.97820  0.37690  0.06550  1.0000 0.139517539
H   H44       1.0  0.02180  0.37690  0.43450  1.0000 0.139517539
H   H45       1.0  0.96940  0.55710  0.87950  1.0000 0.108754671
H   H46       1.0  0.03060  0.55710  0.62050  1.0000 0.108754671
H   H47       1.0  0.03060  0.44290  0.12050  1.0000 0.108754671
H   H48       1.0  0.96940  0.44290  0.37950  1.0000 0.108754671
H   H49       1.0  0.91840  0.55270  0.09620  1.0000 0.1006361614
H   H50       1.0  0.08160  0.55270  0.40380  1.0000 0.1006361614
H   H51       1.0  0.08160  0.44730  0.90380  1.0000 0.1006361614
H   H52       1.0  0.91840  0.44730  0.59620  1.0000 0.1006361614
H   H53       1.0  0.00350  0.61460  0.06520  1.0000 0.1302223351
H   H54       1.0  0.99650  0.61460  0.43480  1.0000 0.1302223351
H   H55       1.0  0.99650  0.38540  0.93480  1.0000 0.1302223351
H   H56       1.0  0.00350  0.38540  0.56520  1.0000 0.1302223351
H   H57       1.0  0.28620  0.60620  0.18390  1.0000 0.1302223351
H   H58       1.0  0.71380  0.60620  0.31610  1.0000 0.1302223351
H   H59       1.0  0.71380  0.39380  0.81610  1.0000 0.1302223351
H   H60       1.0  0.28620  0.39380  0.68390  1.0000 0.1302223351
H   H61       1.0  0.19240  0.54670  0.21360  1.0000 0.108754671
H   H62       1.0  0.80760  0.54670  0.28640  1.0000 0.108754671
H   H63       1.0  0.80760  0.45330  0.78640  1.0000 0.108754671
H   H64       1.0  0.19240  0.45330  0.71360  1.0000 0.108754671
H   H65       1.0  0.96370  0.14380  0.96650  1.0000 0.1006361614
H   H66       1.0  0.03630  0.14380  0.53350  1.0000 0.1006361614
H   H67       1.0  0.03630  0.85620  0.03350  1.0000 0.1006361614
H   H68       1.0  0.96370  0.85620  0.46650  1.0000 0.1006361614
H   H69       1.0  0.99030  0.08140  0.91750  1.0000 0.1302223351
H   H70       1.0  0.00970  0.08140  0.58250  1.0000 0.1302223351
H   H71       1.0  0.00970  0.91860  0.08250  1.0000 0.1302223351
H   H72       1.0  0.99030  0.91860  0.41750  1.0000 0.1302223351
H   H73       1.0  0.79280  0.17300  0.80760  1.0000 0.1302223351
H   H74       1.0  0.20720  0.17300  0.69240  1.0000 0.1302223351
H   H75       1.0  0.20720  0.82700  0.19240  1.0000 0.1302223351
H   H76       1.0  0.79280  0.82700  0.30760  1.0000 0.1302223351
H   H77       1.0  0.77140  0.23060  0.86170  1.0000 0.108754671
H   H78       1.0  0.22860  0.23060  0.63830  1.0000 0.108754671
H   H79       1.0  0.22860  0.76940  0.13830  1.0000 0.108754671
H   H80       1.0  0.77140  0.76940  0.36170  1.0000 0.108754671
H   H81       1.0  0.54580  0.64450  0.02650  1.0000 0.1006361614
H   H82       1.0  0.45420  0.64450  0.47350  1.0000 0.1006361614
H   H83       1.0  0.45420  0.35550  0.97350  1.0000 0.1006361614
H   H84       1.0  0.54580  0.35550  0.52650  1.0000 0.1006361614
H   H85       1.0  0.67880  0.58690  0.07760  1.0000 0.1302223351
H   H86       1.0  0.32120  0.58690  0.42240  1.0000 0.1302223351
H   H87       1.0  0.32120  0.41310  0.92240  1.0000 0.1302223351
H   H88       1.0  0.67880  0.41310  0.57760  1.0000 0.1302223351
H   H89       1.0  0.69490  0.68320  0.18400  1.0000 0.1302223351
H   H90       1.0  0.30510  0.68320  0.31600  1.0000 0.1302223351
H   H91       1.0  0.30510  0.31680  0.81600  1.0000 0.1302223351
H   H92       1.0  0.69490  0.31680  0.68400  1.0000 0.1302223351
H   H93       1.0  0.56740  0.73880  0.12890  1.0000 0.108754671
H   H94       1.0  0.43260  0.73880  0.37110  1.0000 0.108754671
H   H95       1.0  0.43260  0.26120  0.87110  1.0000 0.108754671
H   H96       1.0  0.56740  0.26120  0.62890  1.0000 0.108754671
H   H97       1.0  0.65720  0.75720  0.01560  1.0000 0.108754671
H   H98       1.0  0.34280  0.75720  0.48440  1.0000 0.108754671
H   H99       1.0  0.34280  0.24280  0.98440  1.0000 0.108754671
H   H100      1.0  0.65720  0.24280  0.51560  1.0000 0.108754671
H   H101      1.0  0.73230  0.75930  0.95800  1.0000 0.139517539
H   H102      1.0  0.26770  0.75930  0.54200  1.0000 0.139517539
H   H103      1.0  0.26770  0.24070  0.04200  1.0000 0.139517539
H   H104      1.0  0.73230  0.24070  0.45800  1.0000 0.139517539
H   H105      1.0  0.40900  0.73990  0.85970  1.0000 0.1302223351
H   H106      1.0  0.59100  0.73990  0.64030  1.0000 0.1302223351
H   H107      1.0  0.59100  0.26010  0.14030  1.0000 0.1302223351
H   H108      1.0  0.40900  0.26010  0.35970  1.0000 0.1302223351
H   H109      1.0  0.34280  0.74000  0.91970  1.0000 0.108754671
H   H110      1.0  0.65720  0.74000  0.58030  1.0000 0.108754671
H   H111      1.0  0.65720  0.26000  0.08030  1.0000 0.108754671
H   H112      1.0  0.34280  0.26000  0.41970  1.0000 0.108754671
H   H113      1.0  0.48160  0.65730  0.81160  1.0000 0.108754671
H   H114      1.0  0.51840  0.65730  0.68840  1.0000 0.108754671
H   H115      1.0  0.51840  0.34270  0.18840  1.0000 0.108754671
H   H116      1.0  0.48160  0.34270  0.31160  1.0000 0.108754671
H   H117      1.0  0.36080  0.59150  0.81490  1.0000 0.1302223351
H   H118      1.0  0.63920  0.59150  0.68510  1.0000 0.1302223351
H   H119      1.0  0.63920  0.40850  0.18510  1.0000 0.1302223351
H   H120      1.0  0.36080  0.40850  0.31490  1.0000 0.1302223351
H   H121      1.0  0.13490  0.63530  0.68620  1.0000 0.1302223351
H   H122      1.0  0.86510  0.63530  0.81380  1.0000 0.1302223351
H   H123      1.0  0.86510  0.36470  0.31380  1.0000 0.1302223351
H   H124      1.0  0.13490  0.36470  0.18620  1.0000 0.1302223351
H   H125      1.0  0.25940  0.70200  0.68720  1.0000 0.108754671
H   H126      1.0  0.74060  0.70200  0.81280  1.0000 0.108754671
H   H127      1.0  0.74060  0.29800  0.31280  1.0000 0.108754671
H   H128      1.0  0.25940  0.29800  0.18720  1.0000 0.108754671
H   H129      1.0  0.26190  0.79840  0.68460  1.0000 0.108754671
H   H130      1.0  0.73810  0.79840  0.81540  1.0000 0.108754671
H   H131      1.0  0.73810  0.20160  0.31540  1.0000 0.108754671
H   H132      1.0  0.26190  0.20160  0.18460  1.0000 0.108754671
H   H133      1.0  0.13820  0.86510  0.68290  1.0000 0.1302223351
H   H134      1.0  0.86180  0.86510  0.81710  1.0000 0.1302223351
H   H135      1.0  0.86180  0.13490  0.31710  1.0000 0.1302223351
H   H136      1.0  0.13820  0.13490  0.18290  1.0000 0.1302223351
H   H137      1.0  0.35490  0.90460  0.81380  1.0000 0.1302223351
H   H138      1.0  0.64510  0.90460  0.68620  1.0000 0.1302223351
H   H139      1.0  0.64510  0.09540  0.18620  1.0000 0.1302223351
H   H140      1.0  0.35490  0.09540  0.31380  1.0000 0.1302223351
H   H141      1.0  0.47570  0.83940  0.81120  1.0000 0.108754671
H   H142      1.0  0.52430  0.83940  0.68880  1.0000 0.108754671
H   H143      1.0  0.52430  0.16060  0.18880  1.0000 0.108754671
H   H144      1.0  0.47570  0.16060  0.31120  1.0000 0.108754671
C   C1        1.0  0.05186  0.93372  0.89236  1.0000 0.0806139924
C   C2        1.0  0.94814  0.93372  0.60764  1.0000 0.0806139924
C   C3        1.0  0.94814  0.06628  0.10764  1.0000 0.0806139924
C   C4        1.0  0.05186  0.06628  0.39236  1.0000 0.0806139924
C   C5        1.0  0.07646  0.89366  0.92476  1.0000 -0.1600026316
C   C6        1.0  0.92354  0.89366  0.57524  1.0000 -0.1600026316
C   C7        1.0  0.92354  0.10634  0.07524  1.0000 -0.1600026316
C   C8        1.0  0.07646  0.10634  0.42476  1.0000 -0.1600026316
C   C9        1.0  0.18479  0.86956  0.93969  1.0000 0.029924637
C   C10       1.0  0.81521  0.86956  0.56031  1.0000 0.029924637
C   C11       1.0  0.81521  0.13044  0.06031  1.0000 0.029924637
C   C12       1.0  0.18479  0.13044  0.43969  1.0000 0.029924637
C   C13       1.0  0.26095  0.88810  0.92195  1.0000 -0.1600026316
C   C14       1.0  0.73905  0.88810  0.57805  1.0000 -0.1600026316
C   C15       1.0  0.73905  0.11190  0.07805  1.0000 -0.1600026316
C   C16       1.0  0.26095  0.11190  0.42195  1.0000 -0.1600026316
C   C17       1.0  0.23078  0.92859  0.88988  1.0000 0.0806139924
C   C18       1.0  0.76922  0.92859  0.61012  1.0000 0.0806139924
C   C19       1.0  0.76922  0.07141  0.11012  1.0000 0.0806139924
C   C20       1.0  0.23078  0.07141  0.38988  1.0000 0.0806139924
C   C21       1.0  0.21357  0.82365  0.97287  1.0000 0.57870761
C   C22       1.0  0.78643  0.82365  0.52713  1.0000 0.57870761
C   C23       1.0  0.78643  0.17635  0.02713  1.0000 0.57870761
C   C24       1.0  0.21357  0.17635  0.47287  1.0000 0.57870761
C   C25       1.0  0.28777  0.06141  0.82517  1.0000 0.0806139924
C   C26       1.0  0.71223  0.06141  0.67483  1.0000 0.0806139924
C   C27       1.0  0.71223  0.93859  0.17483  1.0000 0.0806139924
C   C28       1.0  0.28777  0.93859  0.32517  1.0000 0.0806139924
C   C29       1.0  0.37834  0.09680  0.84454  1.0000 -0.1493631249
C   C30       1.0  0.62166  0.09680  0.65546  1.0000 -0.1493631249
C   C31       1.0  0.62166  0.90320  0.15546  1.0000 -0.1493631249
C   C32       1.0  0.37834  0.90320  0.34454  1.0000 -0.1493631249
C   C33       1.0  0.39403  0.12117  0.88643  1.0000 0.0191527401
C   C34       1.0  0.60597  0.12117  0.61357  1.0000 0.0191527401
C   C35       1.0  0.60597  0.87883  0.11357  1.0000 0.0191527401
C   C36       1.0  0.39403  0.87883  0.38643  1.0000 0.0191527401
C   C37       1.0  0.32074  0.10850  0.90784  1.0000 -0.1600026316
C   C38       1.0  0.67926  0.10850  0.59216  1.0000 -0.1600026316
C   C39       1.0  0.67926  0.89150  0.09216  1.0000 -0.1600026316
C   C40       1.0  0.32074  0.89150  0.40784  1.0000 -0.1600026316
C   C41       1.0  0.23370  0.07230  0.88660  1.0000 0.0707105475
C   C42       1.0  0.76630  0.07230  0.61340  1.0000 0.0707105475
C   C43       1.0  0.76630  0.92770  0.11340  1.0000 0.0707105475
C   C44       1.0  0.23370  0.92770  0.38660  1.0000 0.0707105475
C   C45       1.0  0.48571  0.16188  0.90691  1.0000 0.547294651
C   C46       1.0  0.51429  0.16188  0.59309  1.0000 0.547294651
C   C47       1.0  0.51429  0.83812  0.09309  1.0000 0.547294651
C   C48       1.0  0.48571  0.83812  0.40691  1.0000 0.547294651
C   C49       1.0  0.22796  0.56558  0.89196  1.0000 0.0872442401
C   C50       1.0  0.77204  0.56558  0.60804  1.0000 0.0872442401
C   C51       1.0  0.77204  0.43442  0.10804  1.0000 0.0872442401
C   C52       1.0  0.22796  0.43442  0.39196  1.0000 0.0872442401
C   C53       1.0  0.26407  0.60478  0.92457  1.0000 -0.1691255254
C   C54       1.0  0.73593  0.60478  0.57543  1.0000 -0.1691255254
C   C55       1.0  0.73593  0.39522  0.07543  1.0000 -0.1691255254
C   C56       1.0  0.26407  0.39522  0.42457  1.0000 -0.1691255254
C   C57       1.0  0.18789  0.62777  0.94069  1.0000 0.0353761062
C   C58       1.0  0.81211  0.62777  0.55931  1.0000 0.0353761062
C   C59       1.0  0.81211  0.37223  0.05931  1.0000 0.0353761062
C   C60       1.0  0.18789  0.37223  0.44069  1.0000 0.0353761062
C   C61       1.0  0.07647  0.60899  0.92367  1.0000 -0.1493631249
C   C62       1.0  0.92353  0.60899  0.57633  1.0000 -0.1493631249
C   C63       1.0  0.92353  0.39101  0.07633  1.0000 -0.1493631249
C   C64       1.0  0.07647  0.39101  0.42367  1.0000 -0.1493631249
C   C65       1.0  0.04613  0.56975  0.89103  1.0000 0.0707105475
C   C66       1.0  0.95387  0.56975  0.60897  1.0000 0.0707105475
C   C67       1.0  0.95387  0.43025  0.10897  1.0000 0.0707105475
C   C68       1.0  0.04613  0.43025  0.39103  1.0000 0.0707105475
C   C69       1.0  0.22399  0.67332  0.97489  1.0000 0.57870761
C   C70       1.0  0.77601  0.67332  0.52511  1.0000 0.57870761
C   C71       1.0  0.77601  0.32668  0.02511  1.0000 0.57870761
C   C72       1.0  0.22399  0.32668  0.47489  1.0000 0.57870761
C   C73       1.0  0.99310  0.56490  0.11540  1.0000 0.0707105475
C   C74       1.0  0.00690  0.56490  0.38460  1.0000 0.0707105475
C   C75       1.0  0.00690  0.43510  0.88460  1.0000 0.0707105475
C   C76       1.0  0.99310  0.43510  0.61540  1.0000 0.0707105475
C   C77       1.0  0.04380  0.60160  0.09610  1.0000 -0.1493631249
C   C78       1.0  0.95620  0.60160  0.40390  1.0000 -0.1493631249
C   C79       1.0  0.95620  0.39840  0.90390  1.0000 -0.1493631249
C   C80       1.0  0.04380  0.39840  0.59610  1.0000 -0.1493631249
C   C81       1.0  0.15214  0.61850  0.12244  1.0000 0.0191527401
C   C82       1.0  0.84786  0.61850  0.37756  1.0000 0.0191527401
C   C83       1.0  0.84786  0.38150  0.87756  1.0000 0.0191527401
C   C84       1.0  0.15214  0.38150  0.62244  1.0000 0.0191527401
C   C85       1.0  0.20870  0.59690  0.16580  1.0000 -0.1402697481
C   C86       1.0  0.79130  0.59690  0.33420  1.0000 -0.1402697481
C   C87       1.0  0.79130  0.40310  0.83420  1.0000 -0.1402697481
C   C88       1.0  0.20870  0.40310  0.66580  1.0000 -0.1402697481
C   C89       1.0  0.15200  0.56100  0.18330  1.0000 0.0872442401
C   C90       1.0  0.84800  0.56100  0.31670  1.0000 0.0872442401
C   C91       1.0  0.84800  0.43900  0.81670  1.0000 0.0872442401
C   C92       1.0  0.15200  0.43900  0.68330  1.0000 0.0872442401
C   C93       1.0  0.20350  0.66180  0.10400  1.0000 0.5596319183
C   C94       1.0  0.79650  0.66180  0.39600  1.0000 0.5596319183
C   C95       1.0  0.79650  0.33820  0.89600  1.0000 0.5596319183
C   C96       1.0  0.20350  0.33820  0.60400  1.0000 0.5596319183
C   C97       1.0  0.92890  0.14960  0.93370  1.0000 0.0806139924
C   C98       1.0  0.07110  0.14960  0.56630  1.0000 0.0806139924
C   C99       1.0  0.07110  0.85040  0.06630  1.0000 0.0806139924
C   C100      1.0  0.92890  0.85040  0.43370  1.0000 0.0806139924
C   C101      1.0  0.94630  0.11200  0.90500  1.0000 -0.1691255254
C   C102      1.0  0.05370  0.11200  0.59500  1.0000 -0.1691255254
C   C103      1.0  0.05370  0.88800  0.09500  1.0000 -0.1691255254
C   C104      1.0  0.94630  0.88800  0.40500  1.0000 -0.1691255254
C   C105      1.0  0.89620  0.12120  0.85670  1.0000 0.029924637
C   C106      1.0  0.10380  0.12120  0.64330  1.0000 0.029924637
C   C107      1.0  0.10380  0.87880  0.14330  1.0000 0.029924637
C   C108      1.0  0.89620  0.87880  0.35670  1.0000 0.029924637
C   C109      1.0  0.82920  0.16610  0.84020  1.0000 -0.1402697481
C   C110      1.0  0.17080  0.16610  0.65980  1.0000 -0.1402697481
C   C111      1.0  0.17080  0.83390  0.15980  1.0000 -0.1402697481
C   C112      1.0  0.82920  0.83390  0.34020  1.0000 -0.1402697481
C   C113      1.0  0.81770  0.20020  0.87290  1.0000 0.0872442401
C   C114      1.0  0.18230  0.20020  0.62710  1.0000 0.0872442401
C   C115      1.0  0.18230  0.79980  0.12710  1.0000 0.0872442401
C   C116      1.0  0.81770  0.79980  0.37290  1.0000 0.0872442401
C   C117      1.0  0.91840  0.08450  0.82360  1.0000 0.547294651
C   C118      1.0  0.08160  0.08450  0.67640  1.0000 0.547294651
C   C119      1.0  0.08160  0.91550  0.17640  1.0000 0.547294651
C   C120      1.0  0.91840  0.91550  0.32360  1.0000 0.547294651
C   C121      1.0  0.57700  0.65290  0.05890  1.0000 0.0806139924
C   C122      1.0  0.42300  0.65290  0.44110  1.0000 0.0806139924
C   C123      1.0  0.42300  0.34710  0.94110  1.0000 0.0806139924
C   C124      1.0  0.57700  0.34710  0.55890  1.0000 0.0806139924
C   C125      1.0  0.65537  0.61730  0.08917  1.0000 -0.1600026316
C   C126      1.0  0.34463  0.61730  0.41083  1.0000 -0.1600026316
C   C127      1.0  0.34463  0.38270  0.91083  1.0000 -0.1600026316
C   C128      1.0  0.65537  0.38270  0.58917  1.0000 -0.1600026316
C   C129      1.0  0.69720  0.62800  0.13610  1.0000 0.0191527401
C   C130      1.0  0.30280  0.62800  0.36390  1.0000 0.0191527401
C   C131      1.0  0.30280  0.37200  0.86390  1.0000 0.0191527401
C   C132      1.0  0.69720  0.37200  0.63610  1.0000 0.0191527401
C   C133      1.0  0.66520  0.67440  0.15160  1.0000 -0.1402697481
C   C134      1.0  0.33480  0.67440  0.34840  1.0000 -0.1402697481
C   C135      1.0  0.33480  0.32560  0.84840  1.0000 -0.1402697481
C   C136      1.0  0.66520  0.32560  0.65160  1.0000 -0.1402697481
C   C137      1.0  0.58900  0.70720  0.11840  1.0000 0.0707105475
C   C138      1.0  0.41100  0.70720  0.38160  1.0000 0.0707105475
C   C139      1.0  0.41100  0.29280  0.88160  1.0000 0.0707105475
C   C140      1.0  0.58900  0.29280  0.61840  1.0000 0.0707105475
C   C141      1.0  0.78136  0.59190  0.17096  1.0000 0.547294651
C   C142      1.0  0.21864  0.59190  0.32904  1.0000 0.547294651
C   C143      1.0  0.21864  0.40810  0.82904  1.0000 0.547294651
C   C144      1.0  0.78136  0.40810  0.67096  1.0000 0.547294651
C   C145      1.0  0.60660  0.75378  0.98360  1.0000 0.1006361614
C   C146      1.0  0.39340  0.75378  0.51640  1.0000 0.1006361614
C   C147      1.0  0.39340  0.24622  0.01640  1.0000 0.1006361614
C   C148      1.0  0.60660  0.24622  0.48360  1.0000 0.1006361614
C   C149      1.0  0.65200  0.75480  0.94930  1.0000 -0.1600026316
C   C150      1.0  0.34800  0.75480  0.55070  1.0000 -0.1600026316
C   C151      1.0  0.34800  0.24520  0.05070  1.0000 -0.1600026316
C   C152      1.0  0.65200  0.24520  0.44930  1.0000 -0.1600026316
C   C153      1.0  0.57990  0.74930  0.90250  1.0000 0.029924637
C   C154      1.0  0.42010  0.74930  0.59750  1.0000 0.029924637
C   C155      1.0  0.42010  0.25070  0.09750  1.0000 0.029924637
C   C156      1.0  0.57990  0.25070  0.40250  1.0000 0.029924637
C   C157      1.0  0.46140  0.74361  0.89140  1.0000 -0.1691255254
C   C158      1.0  0.53860  0.74361  0.60860  1.0000 -0.1691255254
C   C159      1.0  0.53860  0.25639  0.10860  1.0000 -0.1691255254
C   C160      1.0  0.46140  0.25639  0.39140  1.0000 -0.1691255254
C   C161      1.0  0.42282  0.74347  0.92712  1.0000 0.0617279082
C   C162      1.0  0.57718  0.74347  0.57288  1.0000 0.0617279082
C   C163      1.0  0.57718  0.25653  0.07288  1.0000 0.0617279082
C   C164      1.0  0.42282  0.25653  0.42712  1.0000 0.0617279082
C   C165      1.0  0.62730  0.74903  0.86440  1.0000 0.5385203704
C   C166      1.0  0.37270  0.74903  0.63560  1.0000 0.5385203704
C   C167      1.0  0.37270  0.25097  0.13560  1.0000 0.5385203704
C   C168      1.0  0.62730  0.25097  0.36440  1.0000 0.5385203704
C   C169      1.0  0.40955  0.65312  0.78605  1.0000 0.0707105475
C   C170      1.0  0.59045  0.65312  0.71395  1.0000 0.0707105475
C   C171      1.0  0.59045  0.34688  0.21395  1.0000 0.0707105475
C   C172      1.0  0.40955  0.34688  0.28605  1.0000 0.0707105475
C   C173      1.0  0.33841  0.61369  0.78821  1.0000 -0.1691255254
C   C174      1.0  0.66159  0.61369  0.71179  1.0000 -0.1691255254
C   C175      1.0  0.66159  0.38631  0.21179  1.0000 -0.1691255254
C   C176      1.0  0.33841  0.38631  0.28821  1.0000 -0.1691255254
C   C177      1.0  0.23168  0.60625  0.75058  1.0000 0.029924637
C   C178      1.0  0.76832  0.60625  0.74942  1.0000 0.029924637
C   C179      1.0  0.76832  0.39375  0.24942  1.0000 0.029924637
C   C180      1.0  0.23168  0.39375  0.25058  1.0000 0.029924637
C   C181      1.0  0.20510  0.63956  0.71270  1.0000 -0.1600026316
C   C182      1.0  0.79490  0.63956  0.78730  1.0000 -0.1600026316
C   C183      1.0  0.79490  0.36044  0.28730  1.0000 -0.1600026316
C   C184      1.0  0.20510  0.36044  0.21270  1.0000 -0.1600026316
C   C185      1.0  0.28046  0.67898  0.71336  1.0000 0.0707105475
C   C186      1.0  0.71954  0.67898  0.78664  1.0000 0.0707105475
C   C187      1.0  0.71954  0.32102  0.28664  1.0000 0.0707105475
C   C188      1.0  0.28046  0.32102  0.21336  1.0000 0.0707105475
C   C189      1.0  0.15129  0.56312  0.75189  1.0000 0.5596319183
C   C190      1.0  0.84871  0.56312  0.74811  1.0000 0.5596319183
C   C191      1.0  0.84871  0.43688  0.24811  1.0000 0.5596319183
C   C192      1.0  0.15129  0.43688  0.25189  1.0000 0.5596319183
C   C193      1.0  0.28106  0.82041  0.71126  1.0000 0.0617279082
C   C194      1.0  0.71894  0.82041  0.78874  1.0000 0.0617279082
C   C195      1.0  0.71894  0.17959  0.28874  1.0000 0.0617279082
C   C196      1.0  0.28106  0.17959  0.21126  1.0000 0.0617279082
C   C197      1.0  0.20635  0.85988  0.71015  1.0000 -0.1493631249
C   C198      1.0  0.79365  0.85988  0.78985  1.0000 -0.1493631249
C   C199      1.0  0.79365  0.14012  0.28985  1.0000 -0.1493631249
C   C200      1.0  0.20635  0.14012  0.21015  1.0000 -0.1493631249
C   C201      1.0  0.23065  0.89223  0.74895  1.0000 0.029924637
C   C202      1.0  0.76935  0.89223  0.75105  1.0000 0.029924637
C   C203      1.0  0.76935  0.10777  0.25105  1.0000 0.029924637
C   C204      1.0  0.23065  0.10777  0.24895  1.0000 0.029924637
C   C205      1.0  0.33382  0.88320  0.78662  1.0000 -0.1600026316
C   C206      1.0  0.66618  0.88320  0.71338  1.0000 -0.1600026316
C   C207      1.0  0.66618  0.11680  0.21338  1.0000 -0.1600026316
C   C208      1.0  0.33382  0.11680  0.28662  1.0000 -0.1600026316
C   C209      1.0  0.40496  0.84400  0.78506  1.0000 0.0707105475
C   C210      1.0  0.59504  0.84400  0.71494  1.0000 0.0707105475
C   C211      1.0  0.59504  0.15600  0.21494  1.0000 0.0707105475
C   C212      1.0  0.40496  0.15600  0.28506  1.0000 0.0707105475
C   C213      1.0  0.14945  0.93465  0.74935  1.0000 0.5718627319
C   C214      1.0  0.85055  0.93465  0.75065  1.0000 0.5718627319
C   C215      1.0  0.85055  0.06535  0.25065  1.0000 0.5718627319
C   C216      1.0  0.14945  0.06535  0.24935  1.0000 0.5718627319
N   N1        1.0  0.12733  0.95113  0.87473  1.0000 -0.2369736686
N   N2        1.0  0.87267  0.95113  0.62527  1.0000 -0.2369736686
N   N3        1.0  0.87267  0.04887  0.12527  1.0000 -0.2369736686
N   N4        1.0  0.12733  0.04887  0.37473  1.0000 -0.2369736686
N   N5        1.0  0.21195  0.05003  0.84505  1.0000 -0.249153889
N   N6        1.0  0.78805  0.05003  0.65495  1.0000 -0.249153889
N   N7        1.0  0.78805  0.94997  0.15495  1.0000 -0.249153889
N   N8        1.0  0.21195  0.94997  0.34505  1.0000 -0.249153889
N   N9        1.0  0.11997  0.54808  0.87437  1.0000 -0.2302405306
N   N10       1.0  0.88003  0.54808  0.62563  1.0000 -0.2302405306
N   N11       1.0  0.88003  0.45192  0.12563  1.0000 -0.2302405306
N   N12       1.0  0.11997  0.45192  0.37437  1.0000 -0.2302405306
N   N13       1.0  0.04164  0.54572  0.15884  1.0000 -0.2555809126
N   N14       1.0  0.95836  0.54572  0.34116  1.0000 -0.2555809126
N   N15       1.0  0.95836  0.45428  0.84116  1.0000 -0.2555809126
N   N16       1.0  0.04164  0.45428  0.65884  1.0000 -0.2555809126
N   N17       1.0  0.86833  0.19271  0.91933  1.0000 -0.249153889
N   N18       1.0  0.13167  0.19271  0.58067  1.0000 -0.249153889
N   N19       1.0  0.13167  0.80729  0.08067  1.0000 -0.249153889
N   N20       1.0  0.86833  0.80729  0.41933  1.0000 -0.249153889
N   N21       1.0  0.54261  0.69699  0.07131  1.0000 -0.249153889
N   N22       1.0  0.45739  0.69699  0.42869  1.0000 -0.249153889
N   N23       1.0  0.45739  0.30301  0.92869  1.0000 -0.249153889
N   N24       1.0  0.54261  0.30301  0.57131  1.0000 -0.249153889
N   N25       1.0  0.49652  0.74824  0.97302  1.0000 -0.2302405306
N   N26       1.0  0.50348  0.74824  0.52698  1.0000 -0.2302405306
N   N27       1.0  0.50348  0.25176  0.02698  1.0000 -0.2302405306
N   N28       1.0  0.49652  0.25176  0.47302  1.0000 -0.2302405306
N   N29       1.0  0.38262  0.68642  0.74942  1.0000 -0.2302405306
N   N30       1.0  0.61738  0.68642  0.75058  1.0000 -0.2302405306
N   N31       1.0  0.61738  0.31358  0.25058  1.0000 -0.2302405306
N   N32       1.0  0.38262  0.31358  0.24942  1.0000 -0.2302405306
N   N33       1.0  0.38046  0.81130  0.74846  1.0000 -0.2302405306
N   N34       1.0  0.61954  0.81130  0.75154  1.0000 -0.2302405306
N   N35       1.0  0.61954  0.18870  0.25154  1.0000 -0.2302405306
N   N36       1.0  0.38046  0.18870  0.24846  1.0000 -0.2302405306
O   O1        1.0  0.00000  0.04243  0.75000  1.0000 -0.2178002999
O   O2        1.0  0.00000  0.95757  0.25000  1.0000 -0.2178002999
O   O3        1.0  0.00000  0.54577  0.25000  1.0000 -0.1691255254
O   O4        1.0  0.00000  0.45423  0.75000  1.0000 -0.1691255254
O   O5        1.0  0.32893  0.74959  0.07063  1.0000 -0.1691255254
O   O6        1.0  0.67107  0.74959  0.42937  1.0000 -0.1691255254
O   O7        1.0  0.67107  0.25041  0.92937  1.0000 -0.1691255254
O   O8        1.0  0.32893  0.25041  0.57063  1.0000 -0.1691255254
O   O9        1.0  0.14407  0.81250  0.99027  1.0000 -0.536337021
O   O10       1.0  0.85593  0.81250  0.50973  1.0000 -0.536337021
O   O11       1.0  0.85593  0.18750  0.00973  1.0000 -0.536337021
O   O12       1.0  0.14407  0.18750  0.49027  1.0000 -0.536337021
O   O13       1.0  0.30639  0.80072  0.97909  1.0000 -0.5496021465
O   O14       1.0  0.69361  0.80072  0.52091  1.0000 -0.5496021465
O   O15       1.0  0.69361  0.19928  0.02091  1.0000 -0.5496021465
O   O16       1.0  0.30639  0.19928  0.47909  1.0000 -0.5496021465
O   O17       1.0  0.48021  0.18868  0.94041  1.0000 -0.5658043876
O   O18       1.0  0.51979  0.18868  0.55959  1.0000 -0.5658043876
O   O19       1.0  0.51979  0.81132  0.05959  1.0000 -0.5658043876
O   O20       1.0  0.48021  0.81132  0.44041  1.0000 -0.5658043876
O   O21       1.0  0.55492  0.16943  0.88802  1.0000 -0.4919170507
O   O22       1.0  0.44508  0.16943  0.61198  1.0000 -0.4919170507
O   O23       1.0  0.44508  0.83057  0.11198  1.0000 -0.4919170507
O   O24       1.0  0.55492  0.83057  0.38802  1.0000 -0.4919170507
O   O25       1.0  0.33035  0.68362  0.99125  1.0000 -0.5609284382
O   O26       1.0  0.66965  0.68362  0.50875  1.0000 -0.5609284382
O   O27       1.0  0.66965  0.31638  0.00875  1.0000 -0.5609284382
O   O28       1.0  0.33035  0.31638  0.49125  1.0000 -0.5609284382
O   O29       1.0  0.14889  0.69559  0.98369  1.0000 -0.5204402313
O   O30       1.0  0.85111  0.69559  0.51631  1.0000 -0.5204402313
O   O31       1.0  0.85111  0.30441  0.01631  1.0000 -0.5204402313
O   O32       1.0  0.14889  0.30441  0.48369  1.0000 -0.5204402313
O   O33       1.0  0.13152  0.68954  0.07332  1.0000 -0.5496021465
O   O34       1.0  0.86848  0.68954  0.42668  1.0000 -0.5496021465
O   O35       1.0  0.86848  0.31046  0.92668  1.0000 -0.5496021465
O   O36       1.0  0.13152  0.31046  0.57332  1.0000 -0.5496021465
O   O37       1.0  0.31090  0.66861  0.12090  1.0000 -0.4919170507
O   O38       1.0  0.68910  0.66861  0.37910  1.0000 -0.4919170507
O   O39       1.0  0.68910  0.33139  0.87910  1.0000 -0.4919170507
O   O40       1.0  0.31090  0.33139  0.62090  1.0000 -0.4919170507
O   O41       1.0  0.97608  0.04423  0.84118  1.0000 -0.5609284382
O   O42       1.0  0.02392  0.04423  0.65882  1.0000 -0.5609284382
O   O43       1.0  0.02392  0.95577  0.15882  1.0000 -0.5609284382
O   O44       1.0  0.97608  0.95577  0.34118  1.0000 -0.5658043876
O   O45       1.0  0.87883  0.09680  0.78113  1.0000 -0.4761394814
O   O46       1.0  0.12117  0.09680  0.71887  1.0000 -0.4761394814
O   O47       1.0  0.12117  0.90320  0.21887  1.0000 -0.4761394814
O   O48       1.0  0.87883  0.90320  0.28113  1.0000 -0.4761394814
O   O49       1.0  0.80767  0.55094  0.15417  1.0000 -0.5658043876
O   O50       1.0  0.19233  0.55094  0.34583  1.0000 -0.5658043876
O   O51       1.0  0.19233  0.44906  0.84583  1.0000 -0.5658043876
O   O52       1.0  0.80767  0.44906  0.65417  1.0000 -0.5658043876
O   O53       1.0  0.82224  0.60433  0.21334  1.0000 -0.4761394814
O   O54       1.0  0.17776  0.60433  0.28666  1.0000 -0.4761394814
O   O55       1.0  0.17776  0.39567  0.78666  1.0000 -0.4761394814
O   O56       1.0  0.82224  0.39567  0.71334  1.0000 -0.4761394814
O   O57       1.0  0.55219  0.74911  0.82239  1.0000 -0.5904990688
O   O58       1.0  0.44781  0.74911  0.67761  1.0000 -0.5904990688
O   O59       1.0  0.44781  0.25089  0.17761  1.0000 -0.5904990688
O   O60       1.0  0.55219  0.25089  0.32239  1.0000 -0.5904990688
O   O61       1.0  0.73167  0.74799  0.87687  1.0000 -0.536337021
O   O62       1.0  0.26833  0.74799  0.62313  1.0000 -0.536337021
O   O63       1.0  0.26833  0.25201  0.12313  1.0000 -0.536337021
O   O64       1.0  0.73167  0.25201  0.37687  1.0000 -0.536337021
O   O65       1.0  0.07169  0.55370  0.71309  1.0000 -0.5496021465
O   O66       1.0  0.92831  0.55370  0.78691  1.0000 -0.5496021465
O   O67       1.0  0.92831  0.44630  0.28691  1.0000 -0.5496021465
O   O68       1.0  0.07169  0.44630  0.21309  1.0000 -0.5496021465
O   O69       1.0  0.16921  0.54213  0.79001  1.0000 -0.5204402313
O   O70       1.0  0.83079  0.54213  0.70999  1.0000 -0.5204402313
O   O71       1.0  0.83079  0.45787  0.20999  1.0000 -0.5204402313
O   O72       1.0  0.16921  0.45787  0.29001  1.0000 -0.5204402313
O   O73       1.0  0.17197  0.95650  0.78837  1.0000 -0.5496021465
O   O74       1.0  0.82803  0.95650  0.71163  1.0000 -0.5496021465
O   O75       1.0  0.82803  0.04350  0.21163  1.0000 -0.5496021465
O   O76       1.0  0.17197  0.04350  0.28837  1.0000 -0.5496021465
O   O77       1.0  0.06556  0.94367  0.71216  1.0000 -0.531002368
O   O78       1.0  0.93444  0.94367  0.78784  1.0000 -0.531002368
O   O79       1.0  0.93444  0.05633  0.28784  1.0000 -0.531002368
O   O80       1.0  0.06556  0.05633  0.21216  1.0000 -0.531002368
