# DDEC6 charges by PACMAN v1.1 (https://github.com/mtap-research/PACMAN-charge/)
data_2014[Zn][nan]3[ASR]38
_chemical_formula_sum              "Zn4 H56 C88 N12 O16"
_cell_length_a       14.9438
_cell_length_b       14.9438
_cell_length_c       10.129
_cell_angle_alpha    90
_cell_angle_beta     90
_cell_angle_gamma    90

_symmetry_space_group_name_H-M    "P 1"
_symmetry_Int_Tables_number       1

loop_
  _symmetry_equiv_pos_as_xyz
  'x, y, z'

loop_
  _atom_site_type_symbol
  _atom_site_label
  _atom_site_symmetry_multiplicity
  _atom_site_fract_x
  _atom_site_fract_y
  _atom_site_fract_z
  _atom_site_occupancy
  _atom_site_charge
Zn  Zn1       1.0  0.56429  0.15462  0.00000  1.0000 0.7520008116
Zn  Zn2       1.0  0.43571  0.84538  0.00000  1.0000 0.7520008116
Zn  Zn3       1.0  0.84538  0.56429  0.50000  1.0000 0.7520008116
Zn  Zn4       1.0  0.15462  0.43571  0.50000  1.0000 0.7520008116
H   H1        1.0  0.38623  0.05242  0.00000  1.0000 0.1286992211
H   H2        1.0  0.61377  0.94758  0.00000  1.0000 0.1286992211
H   H3        1.0  0.94758  0.38623  0.50000  1.0000 0.1286992211
H   H4        1.0  0.05242  0.61377  0.50000  1.0000 0.1286992211
H   H5        1.0  0.24735  0.30156  0.00000  1.0000 0.1286992211
H   H6        1.0  0.75265  0.69844  0.00000  1.0000 0.1286992211
H   H7        1.0  0.69844  0.24735  0.50000  1.0000 0.1286992211
H   H8        1.0  0.30156  0.75265  0.50000  1.0000 0.1286992211
H   H9        1.0  0.43147  0.33055  0.00000  1.0000 0.1286992211
H   H10       1.0  0.56853  0.66945  0.00000  1.0000 0.1286992211
H   H11       1.0  0.66945  0.43147  0.50000  1.0000 0.1286992211
H   H12       1.0  0.33055  0.56853  0.50000  1.0000 0.1286992211
H   H13       1.0  0.26795  0.98353  0.00000  1.0000 0.1176705364
H   H14       1.0  0.73205  0.01647  0.00000  1.0000 0.1176705364
H   H15       1.0  0.01647  0.26795  0.50000  1.0000 0.1176705364
H   H16       1.0  0.98353  0.73205  0.50000  1.0000 0.1176705364
H   H17       1.0  0.12636  0.90447  0.00000  1.0000 0.0920405864
H   H18       1.0  0.87364  0.09553  0.00000  1.0000 0.0920405864
H   H19       1.0  0.09553  0.12636  0.50000  1.0000 0.0920405864
H   H20       1.0  0.90447  0.87364  0.50000  1.0000 0.0920405864
H   H21       1.0  0.98537  0.15765  0.00000  1.0000 0.1002275445
H   H22       1.0  0.01463  0.84235  0.00000  1.0000 0.1002275445
H   H23       1.0  0.84235  0.98537  0.50000  1.0000 0.1002275445
H   H24       1.0  0.15765  0.01463  0.50000  1.0000 0.1002275445
H   H25       1.0  0.12689  0.23658  0.00000  1.0000 0.1094593434
H   H26       1.0  0.87311  0.76342  0.00000  1.0000 0.1094593434
H   H27       1.0  0.76342  0.12689  0.50000  1.0000 0.1094593434
H   H28       1.0  0.23658  0.87311  0.50000  1.0000 0.1094593434
H   H29       1.0  0.64145  0.94643  0.71403  1.0000 0.1094593434
H   H30       1.0  0.35855  0.05357  0.28597  1.0000 0.1094593434
H   H31       1.0  0.35855  0.05357  0.71403  1.0000 0.1094593434
H   H32       1.0  0.64145  0.94643  0.28597  1.0000 0.1094593434
H   H33       1.0  0.05357  0.64145  0.21403  1.0000 0.1094593434
H   H34       1.0  0.94643  0.35855  0.78597  1.0000 0.1094593434
H   H35       1.0  0.94643  0.35855  0.21403  1.0000 0.1094593434
H   H36       1.0  0.05357  0.64145  0.78597  1.0000 0.1094593434
H   H37       1.0  0.55008  0.17652  0.50000  1.0000 0.1176705364
H   H38       1.0  0.44992  0.82348  0.50000  1.0000 0.1176705364
H   H39       1.0  0.82348  0.55008  0.00000  1.0000 0.1176705364
H   H40       1.0  0.17652  0.44992  0.00000  1.0000 0.1176705364
H   H41       1.0  0.85558  0.25530  0.78686  1.0000 0.1176705364
H   H42       1.0  0.14442  0.74470  0.21314  1.0000 0.1176705364
H   H43       1.0  0.14442  0.74470  0.78686  1.0000 0.1176705364
H   H44       1.0  0.85558  0.25530  0.21314  1.0000 0.1176705364
H   H45       1.0  0.74470  0.85558  0.28686  1.0000 0.1176705364
H   H46       1.0  0.25530  0.14442  0.71314  1.0000 0.1176705364
H   H47       1.0  0.25530  0.14442  0.28686  1.0000 0.1176705364
H   H48       1.0  0.74470  0.85558  0.71314  1.0000 0.1176705364
H   H49       1.0  0.70214  0.19254  0.79531  1.0000 0.0842109054
H   H50       1.0  0.29786  0.80746  0.20469  1.0000 0.0842109054
H   H51       1.0  0.29786  0.80746  0.79531  1.0000 0.0842109054
H   H52       1.0  0.70214  0.19254  0.20469  1.0000 0.0842109054
H   H53       1.0  0.80746  0.70214  0.29531  1.0000 0.0842109054
H   H54       1.0  0.19254  0.29786  0.70469  1.0000 0.0842109054
H   H55       1.0  0.19254  0.29786  0.29531  1.0000 0.0842109054
H   H56       1.0  0.80746  0.70214  0.70469  1.0000 0.0842109054
C   C1        1.0  0.37417  0.12424  0.00000  1.0000 0.1176705364
C   C2        1.0  0.62583  0.87576  0.00000  1.0000 0.1176705364
C   C3        1.0  0.87576  0.37417  0.50000  1.0000 0.1176705364
C   C4        1.0  0.12424  0.62583  0.50000  1.0000 0.1176705364
C   C5        1.0  0.30374  0.25598  0.00000  1.0000 -0.1042035097
C   C6        1.0  0.69626  0.74402  0.00000  1.0000 -0.1042035097
C   C7        1.0  0.74402  0.30374  0.50000  1.0000 -0.1042035097
C   C8        1.0  0.25598  0.69626  0.50000  1.0000 -0.1042035097
C   C9        1.0  0.39410  0.26935  0.00000  1.0000 -0.014295813
C   C10       1.0  0.60590  0.73065  0.00000  1.0000 -0.014295813
C   C11       1.0  0.73065  0.39410  0.50000  1.0000 -0.014295813
C   C12       1.0  0.26935  0.60590  0.50000  1.0000 -0.014295813
C   C13       1.0  0.20729  0.11539  0.00000  1.0000 0.1560586571
C   C14       1.0  0.79271  0.88461  0.00000  1.0000 0.1560586571
C   C15       1.0  0.88461  0.20729  0.50000  1.0000 0.1560586571
C   C16       1.0  0.11539  0.79271  0.50000  1.0000 0.1560586571
C   C17       1.0  0.20644  0.02162  0.00000  1.0000 -0.1701216268
C   C18       1.0  0.79356  0.97838  0.00000  1.0000 -0.1701216268
C   C19       1.0  0.97838  0.20644  0.50000  1.0000 -0.1701216268
C   C20       1.0  0.02162  0.79356  0.50000  1.0000 -0.1701216268
C   C21       1.0  0.12529  0.97721  0.00000  1.0000 -0.1042035097
C   C22       1.0  0.87471  0.02279  0.00000  1.0000 -0.1042035097
C   C23       1.0  0.02279  0.12529  0.50000  1.0000 -0.1042035097
C   C24       1.0  0.97721  0.87471  0.50000  1.0000 -0.1042035097
C   C25       1.0  0.04342  0.02410  0.00000  1.0000 0.071857867
C   C26       1.0  0.95658  0.97590  0.00000  1.0000 0.071857867
C   C27       1.0  0.97590  0.04342  0.50000  1.0000 0.071857867
C   C28       1.0  0.02410  0.95658  0.50000  1.0000 0.071857867
C   C29       1.0  0.04665  0.11838  0.00000  1.0000 -0.1042035097
C   C30       1.0  0.95335  0.88162  0.00000  1.0000 -0.1042035097
C   C31       1.0  0.88162  0.04665  0.50000  1.0000 -0.1042035097
C   C32       1.0  0.11838  0.95335  0.50000  1.0000 -0.1042035097
C   C33       1.0  0.12720  0.16400  0.00000  1.0000 -0.1701216268
C   C34       1.0  0.87280  0.83600  0.00000  1.0000 -0.1701216268
C   C35       1.0  0.83600  0.12720  0.50000  1.0000 -0.1701216268
C   C36       1.0  0.16400  0.87280  0.50000  1.0000 -0.1701216268
C   C37       1.0  0.59327  0.06445  0.61985  1.0000 -0.030841072
C   C38       1.0  0.40673  0.93555  0.38015  1.0000 -0.030841072
C   C39       1.0  0.40673  0.93555  0.61985  1.0000 -0.030841072
C   C40       1.0  0.59327  0.06445  0.38015  1.0000 -0.030841072
C   C41       1.0  0.93555  0.59327  0.11985  1.0000 -0.030841072
C   C42       1.0  0.06445  0.40673  0.88015  1.0000 -0.030841072
C   C43       1.0  0.06445  0.40673  0.11985  1.0000 -0.030841072
C   C44       1.0  0.93555  0.59327  0.88015  1.0000 -0.030841072
C   C45       1.0  0.57353  0.11087  0.74781  1.0000 0.540960434
C   C46       1.0  0.42647  0.88913  0.25219  1.0000 0.540960434
C   C47       1.0  0.42647  0.88913  0.74781  1.0000 0.540960434
C   C48       1.0  0.57353  0.11087  0.25219  1.0000 0.540960434
C   C49       1.0  0.88913  0.57353  0.24781  1.0000 0.540960434
C   C50       1.0  0.11087  0.42647  0.75219  1.0000 0.540960434
C   C51       1.0  0.11087  0.42647  0.24781  1.0000 0.540960434
C   C52       1.0  0.88913  0.57353  0.75219  1.0000 0.540960434
C   C53       1.0  0.65795  0.93897  0.50000  1.0000 0.0456933967
C   C54       1.0  0.34205  0.06103  0.50000  1.0000 0.0456933967
C   C55       1.0  0.06103  0.65795  0.00000  1.0000 0.0456933967
C   C56       1.0  0.93897  0.34205  0.00000  1.0000 0.0456933967
C   C57       1.0  0.63266  0.97976  0.61964  1.0000 -0.1114343793
C   C58       1.0  0.36734  0.02024  0.38036  1.0000 -0.1114343793
C   C59       1.0  0.36734  0.02024  0.61964  1.0000 -0.1114343793
C   C60       1.0  0.63266  0.97976  0.38036  1.0000 -0.1114343793
C   C61       1.0  0.02024  0.63266  0.11964  1.0000 -0.1114343793
C   C62       1.0  0.97976  0.36734  0.88036  1.0000 -0.1114343793
C   C63       1.0  0.97976  0.36734  0.11964  1.0000 -0.1114343793
C   C64       1.0  0.02024  0.63266  0.88036  1.0000 -0.1114343793
C   C65       1.0  0.57695  0.10809  0.50000  1.0000 -0.1042035097
C   C66       1.0  0.42305  0.89191  0.50000  1.0000 -0.1114343793
C   C67       1.0  0.89191  0.57695  0.00000  1.0000 -0.1042035097
C   C68       1.0  0.10809  0.42305  0.00000  1.0000 -0.1114343793
C   C69       1.0  0.85765  0.28787  0.00000  1.0000 0.1176705364
C   C70       1.0  0.14235  0.71213  0.00000  1.0000 0.1176705364
C   C71       1.0  0.71213  0.85765  0.50000  1.0000 0.1176705364
C   C72       1.0  0.28787  0.14235  0.50000  1.0000 0.1176705364
C   C73       1.0  0.81837  0.25661  0.88090  1.0000 -0.1701216268
C   C74       1.0  0.18163  0.74339  0.11910  1.0000 -0.1701216268
C   C75       1.0  0.18163  0.74339  0.88090  1.0000 -0.1701216268
C   C76       1.0  0.81837  0.25661  0.11910  1.0000 -0.1701216268
C   C77       1.0  0.74339  0.81837  0.38090  1.0000 -0.1701216268
C   C78       1.0  0.25661  0.18163  0.61910  1.0000 -0.1701216268
C   C79       1.0  0.25661  0.18163  0.38090  1.0000 -0.1701216268
C   C80       1.0  0.74339  0.81837  0.61910  1.0000 -0.1701216268
C   C81       1.0  0.73422  0.21833  0.88458  1.0000 0.1002275445
C   C82       1.0  0.26578  0.78167  0.11542  1.0000 0.1002275445
C   C83       1.0  0.26578  0.78167  0.88458  1.0000 0.1002275445
C   C84       1.0  0.73422  0.21833  0.11542  1.0000 0.1002275445
C   C85       1.0  0.78167  0.73422  0.38458  1.0000 0.1002275445
C   C86       1.0  0.21833  0.26578  0.61542  1.0000 0.1002275445
C   C87       1.0  0.21833  0.26578  0.38458  1.0000 0.1002275445
C   C88       1.0  0.78167  0.73422  0.61542  1.0000 0.1002275445
N   N1        1.0  0.68914  0.20733  0.00000  1.0000 -0.223351811
N   N2        1.0  0.31086  0.79267  0.00000  1.0000 -0.223351811
N   N3        1.0  0.79267  0.68914  0.50000  1.0000 -0.223351811
N   N4        1.0  0.20733  0.31086  0.50000  1.0000 -0.223351811
N   N5        1.0  0.43702  0.18765  0.00000  1.0000 -0.2658487529
N   N6        1.0  0.56298  0.81235  0.00000  1.0000 -0.2658487529
N   N7        1.0  0.81235  0.43702  0.50000  1.0000 -0.2658487529
N   N8        1.0  0.18765  0.56298  0.50000  1.0000 -0.2658487529
N   N9        1.0  0.29077  0.16263  0.00000  1.0000 0.0028323583
N   N10       1.0  0.70923  0.83737  0.00000  1.0000 0.0028323583
N   N11       1.0  0.83737  0.29077  0.50000  1.0000 0.0028323583
N   N12       1.0  0.16263  0.70923  0.50000  1.0000 0.0028323583
O   O1        1.0  0.59167  0.06475  0.85322  1.0000 -0.5507611603
O   O2        1.0  0.40833  0.93525  0.14678  1.0000 -0.5507611603
O   O3        1.0  0.40833  0.93525  0.85322  1.0000 -0.5507611603
O   O4        1.0  0.59167  0.06475  0.14678  1.0000 -0.5507611603
O   O5        1.0  0.93525  0.59167  0.35322  1.0000 -0.5507611603
O   O6        1.0  0.06475  0.40833  0.64678  1.0000 -0.5507611603
O   O7        1.0  0.06475  0.40833  0.35322  1.0000 -0.5507611603
O   O8        1.0  0.93525  0.59167  0.64678  1.0000 -0.5507611603
O   O9        1.0  0.54626  0.19111  0.74535  1.0000 -0.5507611603
O   O10       1.0  0.45374  0.80889  0.25465  1.0000 -0.5507611603
O   O11       1.0  0.45374  0.80889  0.74535  1.0000 -0.5507611603
O   O12       1.0  0.54626  0.19111  0.25465  1.0000 -0.5507611603
O   O13       1.0  0.80889  0.54626  0.24535  1.0000 -0.5507611603
O   O14       1.0  0.19111  0.45374  0.75465  1.0000 -0.5507611603
O   O15       1.0  0.19111  0.45374  0.24535  1.0000 -0.5507611603
O   O16       1.0  0.80889  0.54626  0.75465  1.0000 -0.5507611603
