# DDEC6 charges by PACMAN v1.1 (https://github.com/mtap-research/PACMAN-charge/)
data_2014[Cu][nan]3[ASR]7
_chemical_formula_sum              "Cu24 H120 C168 N24 O120"
_cell_length_a       24.1703
_cell_length_b       24.1703
_cell_length_c       24.1703
_cell_angle_alpha    60
_cell_angle_beta     60
_cell_angle_gamma    60

_symmetry_space_group_name_H-M    "P 1"
_symmetry_Int_Tables_number       1

loop_
  _symmetry_equiv_pos_as_xyz
  'x, y, z'

loop_
  _atom_site_type_symbol
  _atom_site_label
  _atom_site_symmetry_multiplicity
  _atom_site_fract_x
  _atom_site_fract_y
  _atom_site_fract_z
  _atom_site_occupancy
  _atom_site_charge
Cu  Cu1       1.0  0.54572  0.54572  0.95428  1.0000 0.8306452138
Cu  Cu2       1.0  0.95428  0.95428  0.54572  1.0000 0.8306452138
Cu  Cu3       1.0  0.95428  0.54572  0.54572  1.0000 0.8306452138
Cu  Cu4       1.0  0.54572  0.95428  0.54572  1.0000 0.8306452138
Cu  Cu5       1.0  0.54572  0.95428  0.95428  1.0000 0.8306452138
Cu  Cu6       1.0  0.95428  0.54572  0.95428  1.0000 0.8306452138
Cu  Cu7       1.0  0.28911  0.71089  0.71089  1.0000 0.8306452138
Cu  Cu8       1.0  0.71089  0.28911  0.28911  1.0000 0.8306452138
Cu  Cu9       1.0  0.71089  0.28911  0.71089  1.0000 0.8306452138
Cu  Cu10      1.0  0.71089  0.71089  0.28911  1.0000 0.8306452138
Cu  Cu11      1.0  0.28911  0.71089  0.28911  1.0000 0.8306452138
Cu  Cu12      1.0  0.28911  0.28911  0.71089  1.0000 0.8306452138
Cu  Cu13      1.0  0.46843  0.46843  0.03157  1.0000 0.8383640898
Cu  Cu14      1.0  0.03157  0.03157  0.46843  1.0000 0.8383640898
Cu  Cu15      1.0  0.03157  0.46843  0.46843  1.0000 0.8383640898
Cu  Cu16      1.0  0.46843  0.03157  0.46843  1.0000 0.8383640898
Cu  Cu17      1.0  0.46843  0.03157  0.03157  1.0000 0.8383640898
Cu  Cu18      1.0  0.03157  0.46843  0.03157  1.0000 0.8383640898
Cu  Cu19      1.0  0.21099  0.78901  0.78901  1.0000 0.8383640898
Cu  Cu20      1.0  0.78901  0.21099  0.21099  1.0000 0.8383640898
Cu  Cu21      1.0  0.78901  0.21099  0.78901  1.0000 0.8383640898
Cu  Cu22      1.0  0.78901  0.78901  0.21099  1.0000 0.8383640898
Cu  Cu23      1.0  0.21099  0.78901  0.21099  1.0000 0.8383640898
Cu  Cu24      1.0  0.21099  0.21099  0.78901  1.0000 0.8383640898
H   H1        1.0  0.64370  0.50170  0.68390  1.0000 0.1305400992
H   H2        1.0  0.50170  0.64370  0.17070  1.0000 0.1305400992
H   H3        1.0  0.17070  0.68390  0.50170  1.0000 0.1305400992
H   H4        1.0  0.68390  0.17070  0.64370  1.0000 0.1305400992
H   H5        1.0  0.68390  0.64370  0.50170  1.0000 0.1305400992
H   H6        1.0  0.50170  0.68390  0.64370  1.0000 0.1305400992
H   H7        1.0  0.64370  0.68390  0.17070  1.0000 0.1305400992
H   H8        1.0  0.64370  0.17070  0.50170  1.0000 0.1305400992
H   H9        1.0  0.17070  0.50170  0.64370  1.0000 0.1305400992
H   H10       1.0  0.68390  0.50170  0.17070  1.0000 0.1305400992
H   H11       1.0  0.50170  0.17070  0.68390  1.0000 0.1305400992
H   H12       1.0  0.17070  0.64370  0.68390  1.0000 0.1305400992
H   H13       1.0  0.38710  0.58650  0.15710  1.0000 0.1702389421
H   H14       1.0  0.58650  0.38710  0.86930  1.0000 0.1702389421
H   H15       1.0  0.86930  0.15710  0.58650  1.0000 0.1702389421
H   H16       1.0  0.15710  0.86930  0.38710  1.0000 0.1702389421
H   H17       1.0  0.15710  0.38710  0.58650  1.0000 0.1702389421
H   H18       1.0  0.58650  0.15710  0.38710  1.0000 0.1702389421
H   H19       1.0  0.38710  0.15710  0.86930  1.0000 0.1702389421
H   H20       1.0  0.38710  0.86930  0.58650  1.0000 0.1702389421
H   H21       1.0  0.86930  0.58650  0.38710  1.0000 0.1702389421
H   H22       1.0  0.15710  0.58650  0.86930  1.0000 0.1702389421
H   H23       1.0  0.58650  0.86930  0.15710  1.0000 0.1702389421
H   H24       1.0  0.86930  0.38710  0.15710  1.0000 0.1702389421
H   H25       1.0  0.42550  0.63910  0.11490  1.0000 0.1532827314
H   H26       1.0  0.63910  0.42550  0.82050  1.0000 0.1532827314
H   H27       1.0  0.82050  0.11490  0.63910  1.0000 0.1532827314
H   H28       1.0  0.11490  0.82050  0.42550  1.0000 0.1532827314
H   H29       1.0  0.11490  0.42550  0.63910  1.0000 0.1532827314
H   H30       1.0  0.63910  0.11490  0.42550  1.0000 0.1532827314
H   H31       1.0  0.42550  0.11490  0.82050  1.0000 0.1532827314
H   H32       1.0  0.42550  0.82050  0.63910  1.0000 0.1532827314
H   H33       1.0  0.82050  0.63910  0.42550  1.0000 0.1532827314
H   H34       1.0  0.11490  0.63910  0.82050  1.0000 0.1532827314
H   H35       1.0  0.63910  0.82050  0.11490  1.0000 0.1532827314
H   H36       1.0  0.82050  0.42550  0.11490  1.0000 0.1532827314
H   H37       1.0  0.38000  0.74260  0.02860  1.0000 0.276771872
H   H38       1.0  0.74260  0.38000  0.84880  1.0000 0.276771872
H   H39       1.0  0.84880  0.02860  0.74260  1.0000 0.276771872
H   H40       1.0  0.02860  0.84880  0.38000  1.0000 0.276771872
H   H41       1.0  0.02860  0.38000  0.74260  1.0000 0.276771872
H   H42       1.0  0.74260  0.02860  0.38000  1.0000 0.276771872
H   H43       1.0  0.38000  0.02860  0.84880  1.0000 0.276771872
H   H44       1.0  0.38000  0.84880  0.74260  1.0000 0.276771872
H   H45       1.0  0.84880  0.74260  0.38000  1.0000 0.276771872
H   H46       1.0  0.02860  0.74260  0.84880  1.0000 0.276771872
H   H47       1.0  0.74260  0.84880  0.02860  1.0000 0.276771872
H   H48       1.0  0.84880  0.38000  0.02860  1.0000 0.276771872
H   H49       1.0  0.31710  0.65210  0.08850  1.0000 0.1122602118
H   H50       1.0  0.65210  0.31710  0.94230  1.0000 0.1122602118
H   H51       1.0  0.94230  0.08850  0.65210  1.0000 0.1122602118
H   H52       1.0  0.08850  0.94230  0.31710  1.0000 0.1122602118
H   H53       1.0  0.08850  0.31710  0.65210  1.0000 0.1122602118
H   H54       1.0  0.65210  0.08850  0.31710  1.0000 0.1122602118
H   H55       1.0  0.31710  0.08850  0.94230  1.0000 0.1122602118
H   H56       1.0  0.31710  0.94230  0.65210  1.0000 0.1122602118
H   H57       1.0  0.94230  0.65210  0.31710  1.0000 0.1122602118
H   H58       1.0  0.08850  0.65210  0.94230  1.0000 0.1122602118
H   H59       1.0  0.65210  0.94230  0.08850  1.0000 0.1122602118
H   H60       1.0  0.94230  0.31710  0.08850  1.0000 0.1122602118
H   H61       1.0  0.33030  0.85650  0.99850  1.0000 0.1305400992
H   H62       1.0  0.85650  0.33030  0.81470  1.0000 0.1305400992
H   H63       1.0  0.81470  0.99850  0.85650  1.0000 0.1305400992
H   H64       1.0  0.99850  0.81470  0.33030  1.0000 0.1305400992
H   H65       1.0  0.99850  0.33030  0.85650  1.0000 0.1305400992
H   H66       1.0  0.85650  0.99850  0.33030  1.0000 0.1305400992
H   H67       1.0  0.33030  0.99850  0.81470  1.0000 0.1305400992
H   H68       1.0  0.33030  0.81470  0.85650  1.0000 0.1305400992
H   H69       1.0  0.81470  0.85650  0.33030  1.0000 0.1305400992
H   H70       1.0  0.99850  0.85650  0.81470  1.0000 0.1305400992
H   H71       1.0  0.85650  0.81470  0.99850  1.0000 0.1305400992
H   H72       1.0  0.81470  0.33030  0.99850  1.0000 0.1305400992
H   H73       1.0  0.47370  0.65090  0.75830  1.0000 0.2747386995
H   H74       1.0  0.65090  0.47370  0.11710  1.0000 0.276771872
H   H75       1.0  0.11710  0.75830  0.65090  1.0000 0.276771872
H   H76       1.0  0.75830  0.11710  0.47370  1.0000 0.276771872
H   H77       1.0  0.75830  0.47370  0.65090  1.0000 0.276771872
H   H78       1.0  0.65090  0.75830  0.47370  1.0000 0.2747386995
H   H79       1.0  0.47370  0.75830  0.11710  1.0000 0.2747386995
H   H80       1.0  0.47370  0.11710  0.65090  1.0000 0.276771872
H   H81       1.0  0.11710  0.65090  0.47370  1.0000 0.2747386995
H   H82       1.0  0.75830  0.65090  0.11710  1.0000 0.276771872
H   H83       1.0  0.65090  0.11710  0.75830  1.0000 0.276771872
H   H84       1.0  0.11710  0.47370  0.75830  1.0000 0.276771872
H   H85       1.0  0.38550  0.68070  0.85930  1.0000 0.1532827314
H   H86       1.0  0.68070  0.38550  0.07450  1.0000 0.1532827314
H   H87       1.0  0.07450  0.85930  0.68070  1.0000 0.1532827314
H   H88       1.0  0.85930  0.07450  0.38550  1.0000 0.1532827314
H   H89       1.0  0.85930  0.38550  0.68070  1.0000 0.1532827314
H   H90       1.0  0.68070  0.85930  0.38550  1.0000 0.1532827314
H   H91       1.0  0.38550  0.85930  0.07450  1.0000 0.1532827314
H   H92       1.0  0.38550  0.07450  0.68070  1.0000 0.1532827314
H   H93       1.0  0.07450  0.68070  0.38550  1.0000 0.1532827314
H   H94       1.0  0.85930  0.68070  0.07450  1.0000 0.1532827314
H   H95       1.0  0.68070  0.07450  0.85930  1.0000 0.1532827314
H   H96       1.0  0.07450  0.38550  0.85930  1.0000 0.1532827314
H   H97       1.0  0.34290  0.63250  0.91350  1.0000 0.1702389421
H   H98       1.0  0.63250  0.34290  0.11110  1.0000 0.1702389421
H   H99       1.0  0.11110  0.91350  0.63250  1.0000 0.1702389421
H   H100      1.0  0.91350  0.11110  0.34290  1.0000 0.1702389421
H   H101      1.0  0.91350  0.34290  0.63250  1.0000 0.1702389421
H   H102      1.0  0.63250  0.91350  0.34290  1.0000 0.1702389421
H   H103      1.0  0.34290  0.91350  0.11110  1.0000 0.1702389421
H   H104      1.0  0.34290  0.11110  0.63250  1.0000 0.1702389421
H   H105      1.0  0.11110  0.63250  0.34290  1.0000 0.1702389421
H   H106      1.0  0.91350  0.63250  0.11110  1.0000 0.1702389421
H   H107      1.0  0.63250  0.11110  0.91350  1.0000 0.1702389421
H   H108      1.0  0.11110  0.34290  0.91350  1.0000 0.1702389421
H   H109      1.0  0.41240  0.55660  0.84800  1.0000 0.1122602118
H   H110      1.0  0.55660  0.41240  0.18300  1.0000 0.1122602118
H   H111      1.0  0.18300  0.84800  0.55660  1.0000 0.1122602118
H   H112      1.0  0.84800  0.18300  0.41240  1.0000 0.1122602118
H   H113      1.0  0.84800  0.41240  0.55660  1.0000 0.1122602118
H   H114      1.0  0.55660  0.84800  0.41240  1.0000 0.1122602118
H   H115      1.0  0.41240  0.84800  0.18300  1.0000 0.1122602118
H   H116      1.0  0.41240  0.18300  0.55660  1.0000 0.1122602118
H   H117      1.0  0.18300  0.55660  0.41240  1.0000 0.1122602118
H   H118      1.0  0.84800  0.55660  0.18300  1.0000 0.1122602118
H   H119      1.0  0.55660  0.18300  0.84800  1.0000 0.1122602118
H   H120      1.0  0.18300  0.41240  0.84800  1.0000 0.1122602118
C   C1        1.0  0.63040  0.54520  0.65420  1.0000 -0.1201777294
C   C2        1.0  0.54520  0.63040  0.17020  1.0000 -0.1201777294
C   C3        1.0  0.17020  0.65420  0.54520  1.0000 -0.1201777294
C   C4        1.0  0.65420  0.17020  0.63040  1.0000 -0.1201777294
C   C5        1.0  0.65420  0.63040  0.54520  1.0000 -0.1201777294
C   C6        1.0  0.54520  0.65420  0.63040  1.0000 -0.1201777294
C   C7        1.0  0.63040  0.65420  0.17020  1.0000 -0.1201777294
C   C8        1.0  0.63040  0.17020  0.54520  1.0000 -0.1201777294
C   C9        1.0  0.17020  0.54520  0.63040  1.0000 -0.1201777294
C   C10       1.0  0.65420  0.54520  0.17020  1.0000 -0.1201777294
C   C11       1.0  0.54520  0.17020  0.65420  1.0000 -0.1201777294
C   C12       1.0  0.17020  0.63040  0.65420  1.0000 -0.1201777294
C   C13       1.0  0.38190  0.63390  0.13150  1.0000 -0.361699982
C   C14       1.0  0.63390  0.38190  0.85270  1.0000 -0.361699982
C   C15       1.0  0.85270  0.13150  0.63390  1.0000 -0.361699982
C   C16       1.0  0.13150  0.85270  0.38190  1.0000 -0.361699982
C   C17       1.0  0.13150  0.38190  0.63390  1.0000 -0.361699982
C   C18       1.0  0.63390  0.13150  0.38190  1.0000 -0.361699982
C   C19       1.0  0.38190  0.13150  0.85270  1.0000 -0.361699982
C   C20       1.0  0.38190  0.85270  0.63390  1.0000 -0.361699982
C   C21       1.0  0.85270  0.63390  0.38190  1.0000 -0.361699982
C   C22       1.0  0.13150  0.63390  0.85270  1.0000 -0.361699982
C   C23       1.0  0.63390  0.85270  0.13150  1.0000 -0.361699982
C   C24       1.0  0.85270  0.38190  0.13150  1.0000 -0.361699982
C   C25       1.0  0.56510  0.59010  0.67510  1.0000 -0.013243129
C   C26       1.0  0.59010  0.56510  0.16970  1.0000 -0.013243129
C   C27       1.0  0.16970  0.67510  0.59010  1.0000 -0.013243129
C   C28       1.0  0.67510  0.16970  0.56510  1.0000 -0.013243129
C   C29       1.0  0.67510  0.56510  0.59010  1.0000 -0.013243129
C   C30       1.0  0.59010  0.67510  0.56510  1.0000 -0.013243129
C   C31       1.0  0.56510  0.67510  0.16970  1.0000 -0.013243129
C   C32       1.0  0.56510  0.16970  0.59010  1.0000 -0.013243129
C   C33       1.0  0.16970  0.59010  0.56510  1.0000 -0.013243129
C   C34       1.0  0.67510  0.59010  0.16970  1.0000 -0.013243129
C   C35       1.0  0.59010  0.16970  0.67510  1.0000 -0.013243129
C   C36       1.0  0.16970  0.56510  0.67510  1.0000 -0.013243129
C   C37       1.0  0.32950  0.82450  0.93490  1.0000 -0.013243129
C   C38       1.0  0.82450  0.32950  0.91110  1.0000 -0.013243129
C   C39       1.0  0.91110  0.93490  0.82450  1.0000 -0.0152062957
C   C40       1.0  0.93490  0.91110  0.32950  1.0000 -0.013243129
C   C41       1.0  0.93490  0.32950  0.82450  1.0000 -0.013243129
C   C42       1.0  0.82450  0.93490  0.32950  1.0000 -0.013243129
C   C43       1.0  0.32950  0.93490  0.91110  1.0000 -0.013243129
C   C44       1.0  0.32950  0.91110  0.82450  1.0000 -0.013243129
C   C45       1.0  0.91110  0.82450  0.32950  1.0000 -0.013243129
C   C46       1.0  0.93490  0.82450  0.91110  1.0000 -0.013243129
C   C47       1.0  0.82450  0.91110  0.93490  1.0000 -0.013243129
C   C48       1.0  0.91110  0.32950  0.93490  1.0000 -0.0152062957
C   C49       1.0  0.32790  0.75490  0.98170  1.0000 0.4577882627
C   C50       1.0  0.75490  0.32790  0.93550  1.0000 0.4577882627
C   C51       1.0  0.93550  0.98170  0.75490  1.0000 0.4577882627
C   C52       1.0  0.98170  0.93550  0.32790  1.0000 0.4577882627
C   C53       1.0  0.98170  0.32790  0.75490  1.0000 0.4577882627
C   C54       1.0  0.75490  0.98170  0.32790  1.0000 0.4577882627
C   C55       1.0  0.32790  0.98170  0.93550  1.0000 0.4577882627
C   C56       1.0  0.32790  0.93550  0.75490  1.0000 0.4577882627
C   C57       1.0  0.93550  0.75490  0.32790  1.0000 0.4577882627
C   C58       1.0  0.98170  0.75490  0.93550  1.0000 0.4577882627
C   C59       1.0  0.75490  0.93550  0.98170  1.0000 0.4577882627
C   C60       1.0  0.93550  0.32790  0.98170  1.0000 0.4577882627
C   C61       1.0  0.36230  0.65470  0.07130  1.0000 0.0429478259
C   C62       1.0  0.65470  0.36230  0.91170  1.0000 0.0429478259
C   C63       1.0  0.91170  0.07130  0.65470  1.0000 0.0429478259
C   C64       1.0  0.07130  0.91170  0.36230  1.0000 0.0429478259
C   C65       1.0  0.07130  0.36230  0.65470  1.0000 0.0429478259
C   C66       1.0  0.65470  0.07130  0.36230  1.0000 0.0429478259
C   C67       1.0  0.36230  0.07130  0.91170  1.0000 0.0429478259
C   C68       1.0  0.36230  0.91170  0.65470  1.0000 0.0429478259
C   C69       1.0  0.91170  0.65470  0.36230  1.0000 0.0429478259
C   C70       1.0  0.07130  0.65470  0.91170  1.0000 0.0429478259
C   C71       1.0  0.65470  0.91170  0.07130  1.0000 0.0429478259
C   C72       1.0  0.91170  0.36230  0.07130  1.0000 0.0429478259
C   C73       1.0  0.36850  0.64630  0.86610  1.0000 -0.3665883538
C   C74       1.0  0.64630  0.36850  0.11910  1.0000 -0.3665883538
C   C75       1.0  0.11910  0.86610  0.64630  1.0000 -0.3665883538
C   C76       1.0  0.86610  0.11910  0.36850  1.0000 -0.3665883538
C   C77       1.0  0.86610  0.36850  0.64630  1.0000 -0.3665883538
C   C78       1.0  0.64630  0.86610  0.36850  1.0000 -0.3665883538
C   C79       1.0  0.36850  0.86610  0.11910  1.0000 -0.3665883538
C   C80       1.0  0.36850  0.11910  0.64630  1.0000 -0.3665883538
C   C81       1.0  0.11910  0.64630  0.36850  1.0000 -0.3665883538
C   C82       1.0  0.86610  0.64630  0.11910  1.0000 -0.3665883538
C   C83       1.0  0.64630  0.11910  0.86610  1.0000 -0.3665883538
C   C84       1.0  0.11910  0.36850  0.86610  1.0000 -0.3665883538
C   C85       1.0  0.32990  0.87030  0.95510  1.0000 -0.1325655615
C   C86       1.0  0.87030  0.32990  0.84470  1.0000 -0.1325655615
C   C87       1.0  0.84470  0.95510  0.87030  1.0000 -0.1325655615
C   C88       1.0  0.95510  0.84470  0.32990  1.0000 -0.1325655615
C   C89       1.0  0.95510  0.32990  0.87030  1.0000 -0.1325655615
C   C90       1.0  0.87030  0.95510  0.32990  1.0000 -0.1325655615
C   C91       1.0  0.32990  0.95510  0.84470  1.0000 -0.1325655615
C   C92       1.0  0.32990  0.84470  0.87030  1.0000 -0.1325655615
C   C93       1.0  0.84470  0.87030  0.32990  1.0000 -0.1325655615
C   C94       1.0  0.95510  0.87030  0.84470  1.0000 -0.1325655615
C   C95       1.0  0.87030  0.84470  0.95510  1.0000 -0.1325655615
C   C96       1.0  0.84470  0.32990  0.95510  1.0000 -0.1325655615
C   C97       1.0  0.41280  0.60140  0.03640  1.0000 0.5757529657
C   C98       1.0  0.60140  0.41280  0.94940  1.0000 0.5757529657
C   C99       1.0  0.94940  0.03640  0.60140  1.0000 0.5757529657
C   C100      1.0  0.03640  0.94940  0.41280  1.0000 0.5757529657
C   C101      1.0  0.03640  0.41280  0.60140  1.0000 0.5743158668
C   C102      1.0  0.60140  0.03640  0.41280  1.0000 0.5757529657
C   C103      1.0  0.41280  0.03640  0.94940  1.0000 0.5757529657
C   C104      1.0  0.41280  0.94940  0.60140  1.0000 0.5757529657
C   C105      1.0  0.94940  0.60140  0.41280  1.0000 0.5757529657
C   C106      1.0  0.03640  0.60140  0.94940  1.0000 0.5757529657
C   C107      1.0  0.60140  0.94940  0.03640  1.0000 0.5757529657
C   C108      1.0  0.94940  0.41280  0.03640  1.0000 0.5757529657
C   C109      1.0  0.46410  0.54990  0.89930  1.0000 0.5743158668
C   C110      1.0  0.54990  0.46410  0.08670  1.0000 0.5743158668
C   C111      1.0  0.08670  0.89930  0.54990  1.0000 0.5743158668
C   C112      1.0  0.89930  0.08670  0.46410  1.0000 0.5743158668
C   C113      1.0  0.89930  0.46410  0.54990  1.0000 0.5743158668
C   C114      1.0  0.54990  0.89930  0.46410  1.0000 0.5743158668
C   C115      1.0  0.46410  0.89930  0.08670  1.0000 0.5743158668
C   C116      1.0  0.46410  0.08670  0.54990  1.0000 0.5743158668
C   C117      1.0  0.08670  0.54990  0.46410  1.0000 0.5743158668
C   C118      1.0  0.89930  0.54990  0.08670  1.0000 0.5743158668
C   C119      1.0  0.54990  0.08670  0.89930  1.0000 0.5743158668
C   C120      1.0  0.08670  0.46410  0.89930  1.0000 0.5743158668
C   C121      1.0  0.32210  0.68390  0.82530  1.0000 0.6565685275
C   C122      1.0  0.68390  0.32210  0.16870  1.0000 0.6565685275
C   C123      1.0  0.16870  0.82530  0.68390  1.0000 0.6565685275
C   C124      1.0  0.82530  0.16870  0.32210  1.0000 0.6565685275
C   C125      1.0  0.82530  0.32210  0.68390  1.0000 0.6565685275
C   C126      1.0  0.68390  0.82530  0.32210  1.0000 0.6565685275
C   C127      1.0  0.32210  0.82530  0.16870  1.0000 0.6565685275
C   C128      1.0  0.32210  0.16870  0.68390  1.0000 0.6565685275
C   C129      1.0  0.16870  0.68390  0.32210  1.0000 0.6565685275
C   C130      1.0  0.82530  0.68390  0.16870  1.0000 0.6565685275
C   C131      1.0  0.68390  0.16870  0.82530  1.0000 0.6565685275
C   C132      1.0  0.16870  0.32210  0.82530  1.0000 0.6565685275
C   C133      1.0  0.51810  0.56490  0.74490  1.0000 0.4577882627
C   C134      1.0  0.56490  0.51810  0.17210  1.0000 0.4577882627
C   C135      1.0  0.17210  0.74490  0.56490  1.0000 0.4577882627
C   C136      1.0  0.74490  0.17210  0.51810  1.0000 0.4577882627
C   C137      1.0  0.74490  0.51810  0.56490  1.0000 0.4577882627
C   C138      1.0  0.56490  0.74490  0.51810  1.0000 0.4577882627
C   C139      1.0  0.51810  0.74490  0.17210  1.0000 0.4577882627
C   C140      1.0  0.51810  0.17210  0.56490  1.0000 0.4577882627
C   C141      1.0  0.17210  0.56490  0.51810  1.0000 0.4577882627
C   C142      1.0  0.74490  0.56490  0.17210  1.0000 0.4577882627
C   C143      1.0  0.56490  0.17210  0.74490  1.0000 0.4577882627
C   C144      1.0  0.17210  0.51810  0.74490  1.0000 0.4577882627
C   C145      1.0  0.33080  0.67480  0.17820  1.0000 0.6528498781
C   C146      1.0  0.67480  0.33080  0.81620  1.0000 0.6528498781
C   C147      1.0  0.81620  0.17820  0.67480  1.0000 0.6528498781
C   C148      1.0  0.17820  0.81620  0.33080  1.0000 0.6528498781
C   C149      1.0  0.17820  0.33080  0.67480  1.0000 0.6528498781
C   C150      1.0  0.67480  0.17820  0.33080  1.0000 0.6528498781
C   C151      1.0  0.33080  0.17820  0.81620  1.0000 0.6528498781
C   C152      1.0  0.33080  0.81620  0.67480  1.0000 0.6528498781
C   C153      1.0  0.81620  0.67480  0.33080  1.0000 0.6528498781
C   C154      1.0  0.17820  0.67480  0.81620  1.0000 0.6528498781
C   C155      1.0  0.67480  0.81620  0.17820  1.0000 0.6528498781
C   C156      1.0  0.81620  0.33080  0.17820  1.0000 0.6528498781
C   C157      1.0  0.42810  0.58730  0.84550  1.0000 0.0533111514
C   C158      1.0  0.58730  0.42810  0.13910  1.0000 0.0533111514
C   C159      1.0  0.13910  0.84550  0.58730  1.0000 0.0533111514
C   C160      1.0  0.84550  0.13910  0.42810  1.0000 0.0533111514
C   C161      1.0  0.84550  0.42810  0.58730  1.0000 0.0533111514
C   C162      1.0  0.58730  0.84550  0.42810  1.0000 0.0533111514
C   C163      1.0  0.42810  0.84550  0.13910  1.0000 0.0533111514
C   C164      1.0  0.42810  0.13910  0.58730  1.0000 0.0533111514
C   C165      1.0  0.13910  0.58730  0.42810  1.0000 0.0533111514
C   C166      1.0  0.84550  0.58730  0.13910  1.0000 0.0533111514
C   C167      1.0  0.58730  0.13910  0.84550  1.0000 0.0533111514
C   C168      1.0  0.13910  0.42810  0.84550  1.0000 0.0533111514
N   N1        1.0  0.47280  0.60980  0.77800  1.0000 -0.3824790229
N   N2        1.0  0.60980  0.47280  0.13940  1.0000 -0.3824790229
N   N3        1.0  0.13940  0.77800  0.60980  1.0000 -0.3824790229
N   N4        1.0  0.77800  0.13940  0.47280  1.0000 -0.3824790229
N   N5        1.0  0.77800  0.47280  0.60980  1.0000 -0.3824790229
N   N6        1.0  0.60980  0.77800  0.47280  1.0000 -0.3824790229
N   N7        1.0  0.47280  0.77800  0.13940  1.0000 -0.385878734
N   N8        1.0  0.47280  0.13940  0.60980  1.0000 -0.385878734
N   N9        1.0  0.13940  0.60980  0.47280  1.0000 -0.3824790229
N   N10       1.0  0.77800  0.60980  0.13940  1.0000 -0.3824790229
N   N11       1.0  0.60980  0.13940  0.77800  1.0000 -0.385878734
N   N12       1.0  0.13940  0.47280  0.77800  1.0000 -0.385878734
N   N13       1.0  0.36030  0.72270  0.02650  1.0000 -0.361699982
N   N14       1.0  0.72270  0.36030  0.89050  1.0000 -0.361699982
N   N15       1.0  0.89050  0.02650  0.72270  1.0000 -0.361699982
N   N16       1.0  0.02650  0.89050  0.36030  1.0000 -0.361699982
N   N17       1.0  0.02650  0.36030  0.72270  1.0000 -0.361699982
N   N18       1.0  0.72270  0.02650  0.36030  1.0000 -0.361699982
N   N19       1.0  0.36030  0.02650  0.89050  1.0000 -0.361699982
N   N20       1.0  0.36030  0.89050  0.72270  1.0000 -0.361699982
N   N21       1.0  0.89050  0.72270  0.36030  1.0000 -0.361699982
N   N22       1.0  0.02650  0.72270  0.89050  1.0000 -0.361699982
N   N23       1.0  0.72270  0.89050  0.02650  1.0000 -0.361699982
N   N24       1.0  0.89050  0.36030  0.02650  1.0000 -0.361699982
O   O1        1.0  0.29620  0.72920  0.97880  1.0000 -0.4670433982
O   O2        1.0  0.72920  0.29620  0.99580  1.0000 -0.4670433982
O   O3        1.0  0.99580  0.97880  0.72920  1.0000 -0.4670433982
O   O4        1.0  0.97880  0.99580  0.29620  1.0000 -0.4670433982
O   O5        1.0  0.97880  0.29620  0.72920  1.0000 -0.4670433982
O   O6        1.0  0.72920  0.97880  0.29620  1.0000 -0.4670433982
O   O7        1.0  0.29620  0.97880  0.99580  1.0000 -0.4670433982
O   O8        1.0  0.29620  0.99580  0.72920  1.0000 -0.4670433982
O   O9        1.0  0.99580  0.72920  0.29620  1.0000 -0.4670433982
O   O10       1.0  0.97880  0.72920  0.99580  1.0000 -0.4670433982
O   O11       1.0  0.72920  0.99580  0.97880  1.0000 -0.4670433982
O   O12       1.0  0.99580  0.29620  0.97880  1.0000 -0.4670433982
O   O13       1.0  0.40320  0.54560  0.06480  1.0000 -0.5107356928
O   O14       1.0  0.54560  0.40320  0.98640  1.0000 -0.5107356928
O   O15       1.0  0.98640  0.06480  0.54560  1.0000 -0.5107356928
O   O16       1.0  0.06480  0.98640  0.40320  1.0000 -0.5107356928
O   O17       1.0  0.06480  0.40320  0.54560  1.0000 -0.5107356928
O   O18       1.0  0.54560  0.06480  0.40320  1.0000 -0.5107356928
O   O19       1.0  0.40320  0.06480  0.98640  1.0000 -0.5107356928
O   O20       1.0  0.40320  0.98640  0.54560  1.0000 -0.5107356928
O   O21       1.0  0.98640  0.54560  0.40320  1.0000 -0.5107356928
O   O22       1.0  0.06480  0.54560  0.98640  1.0000 -0.5107356928
O   O23       1.0  0.54560  0.98640  0.06480  1.0000 -0.5107356928
O   O24       1.0  0.98640  0.40320  0.06480  1.0000 -0.5107356928
O   O25       1.0  0.27790  0.73970  0.83310  1.0000 -0.5223338925
O   O26       1.0  0.73970  0.27790  0.14930  1.0000 -0.5223338925
O   O27       1.0  0.14930  0.83310  0.73970  1.0000 -0.5223338925
O   O28       1.0  0.83310  0.14930  0.27790  1.0000 -0.5223338925
O   O29       1.0  0.83310  0.27790  0.73970  1.0000 -0.5223338925
O   O30       1.0  0.73970  0.83310  0.27790  1.0000 -0.5223338925
O   O31       1.0  0.27790  0.83310  0.14930  1.0000 -0.5223338925
O   O32       1.0  0.27790  0.14930  0.73970  1.0000 -0.5223338925
O   O33       1.0  0.14930  0.73970  0.27790  1.0000 -0.5250264702
O   O34       1.0  0.83310  0.73970  0.14930  1.0000 -0.5223338925
O   O35       1.0  0.73970  0.14930  0.83310  1.0000 -0.5223338925
O   O36       1.0  0.14930  0.27790  0.83310  1.0000 -0.5223338925
O   O37       1.0  0.43620  0.51280  0.95460  1.0000 -0.4992877838
O   O38       1.0  0.51280  0.43620  0.09640  1.0000 -0.4992877838
O   O39       1.0  0.09640  0.95460  0.51280  1.0000 -0.4992877838
O   O40       1.0  0.95460  0.09640  0.43620  1.0000 -0.4992877838
O   O41       1.0  0.95460  0.43620  0.51280  1.0000 -0.4992877838
O   O42       1.0  0.51280  0.95460  0.43620  1.0000 -0.4992877838
O   O43       1.0  0.43620  0.95460  0.09640  1.0000 -0.4992877838
O   O44       1.0  0.43620  0.09640  0.51280  1.0000 -0.4992877838
O   O45       1.0  0.09640  0.51280  0.43620  1.0000 -0.4992877838
O   O46       1.0  0.95460  0.51280  0.09640  1.0000 -0.4992877838
O   O47       1.0  0.51280  0.09640  0.95460  1.0000 -0.4992877838
O   O48       1.0  0.09640  0.43620  0.95460  1.0000 -0.4992877838
O   O49       1.0  0.52050  0.50470  0.77090  1.0000 -0.4670433982
O   O50       1.0  0.50470  0.52050  0.20390  1.0000 -0.4670433982
O   O51       1.0  0.20390  0.77090  0.50470  1.0000 -0.4670433982
O   O52       1.0  0.77090  0.20390  0.52050  1.0000 -0.4670433982
O   O53       1.0  0.77090  0.52050  0.50470  1.0000 -0.4670433982
O   O54       1.0  0.50470  0.77090  0.52050  1.0000 -0.4670433982
O   O55       1.0  0.52050  0.77090  0.20390  1.0000 -0.464795768
O   O56       1.0  0.52050  0.20390  0.50470  1.0000 -0.4670433982
O   O57       1.0  0.20390  0.50470  0.52050  1.0000 -0.4670433982
O   O58       1.0  0.77090  0.50470  0.20390  1.0000 -0.4670433982
O   O59       1.0  0.50470  0.20390  0.77090  1.0000 -0.4670433982
O   O60       1.0  0.20390  0.52050  0.77090  1.0000 -0.4670433982
O   O61       1.0  0.51455  0.56345  0.88395  1.0000 -0.4992877838
O   O62       1.0  0.56345  0.51455  0.03805  1.0000 -0.4992877838
O   O63       1.0  0.03805  0.88395  0.56345  1.0000 -0.4992877838
O   O64       1.0  0.88395  0.03805  0.51455  1.0000 -0.4992877838
O   O65       1.0  0.88395  0.51455  0.56345  1.0000 -0.4992877838
O   O66       1.0  0.56345  0.88395  0.51455  1.0000 -0.4992877838
O   O67       1.0  0.51455  0.88395  0.03805  1.0000 -0.4992877838
O   O68       1.0  0.51455  0.03805  0.56345  1.0000 -0.4992877838
O   O69       1.0  0.03805  0.56345  0.51455  1.0000 -0.4992877838
O   O70       1.0  0.88395  0.56345  0.03805  1.0000 -0.4992877838
O   O71       1.0  0.56345  0.03805  0.88395  1.0000 -0.4992877838
O   O72       1.0  0.03805  0.51455  0.88395  1.0000 -0.4992877838
O   O73       1.0  0.35110  0.66667  0.22150  1.0000 -0.5223338925
O   O74       1.0  0.66667  0.35110  0.76070  1.0000 -0.5223338925
O   O75       1.0  0.76070  0.22150  0.66667  1.0000 -0.5223338925
O   O76       1.0  0.22150  0.76070  0.35110  1.0000 -0.5223338925
O   O77       1.0  0.22150  0.35110  0.66667  1.0000 -0.5223338925
O   O78       1.0  0.66667  0.22150  0.35110  1.0000 -0.5223338925
O   O79       1.0  0.35110  0.22150  0.76070  1.0000 -0.5223338925
O   O80       1.0  0.35110  0.76070  0.66667  1.0000 -0.5223338925
O   O81       1.0  0.76070  0.66667  0.35110  1.0000 -0.5223338925
O   O82       1.0  0.22150  0.66667  0.76070  1.0000 -0.5223338925
O   O83       1.0  0.66667  0.76070  0.22150  1.0000 -0.5223338925
O   O84       1.0  0.76070  0.35110  0.22150  1.0000 -0.5223338925
O   O85       1.0  0.46250  0.61610  0.98530  1.0000 -0.5107356928
O   O86       1.0  0.61610  0.46250  0.93610  1.0000 -0.5107356928
O   O87       1.0  0.93610  0.98530  0.61610  1.0000 -0.5107356928
O   O88       1.0  0.98530  0.93610  0.46250  1.0000 -0.5107356928
O   O89       1.0  0.98530  0.46250  0.61610  1.0000 -0.5107356928
O   O90       1.0  0.61610  0.98530  0.46250  1.0000 -0.5107356928
O   O91       1.0  0.46250  0.98530  0.93610  1.0000 -0.5107356928
O   O92       1.0  0.46250  0.93610  0.61610  1.0000 -0.5107356928
O   O93       1.0  0.93610  0.61610  0.46250  1.0000 -0.5107356928
O   O94       1.0  0.98530  0.61610  0.93610  1.0000 -0.5107356928
O   O95       1.0  0.61610  0.93610  0.98530  1.0000 -0.5107356928
O   O96       1.0  0.93610  0.46250  0.98530  1.0000 -0.5107356928
O   O97       1.0  0.32760  0.65760  0.78800  1.0000 -0.5368631703
O   O98       1.0  0.65760  0.32760  0.22680  1.0000 -0.5368631703
O   O99       1.0  0.22680  0.78800  0.65760  1.0000 -0.5368631703
O   O100      1.0  0.78800  0.22680  0.32760  1.0000 -0.5368631703
O   O101      1.0  0.78800  0.32760  0.65760  1.0000 -0.5368631703
O   O102      1.0  0.65760  0.78800  0.32760  1.0000 -0.5368631703
O   O103      1.0  0.32760  0.78800  0.22680  1.0000 -0.5368631703
O   O104      1.0  0.32760  0.22680  0.65760  1.0000 -0.5368631703
O   O105      1.0  0.22680  0.65760  0.32760  1.0000 -0.5368631703
O   O106      1.0  0.78800  0.65760  0.22680  1.0000 -0.5368631703
O   O107      1.0  0.65760  0.22680  0.78800  1.0000 -0.5368631703
O   O108      1.0  0.22680  0.32760  0.78800  1.0000 -0.5368631703
O   O109      1.0  0.27320  0.71200  0.17180  1.0000 -0.5368631703
O   O110      1.0  0.71200  0.27320  0.84300  1.0000 -0.5368631703
O   O111      1.0  0.84300  0.17180  0.71200  1.0000 -0.5368631703
O   O112      1.0  0.17180  0.84300  0.27320  1.0000 -0.5368631703
O   O113      1.0  0.17180  0.27320  0.71200  1.0000 -0.5368631703
O   O114      1.0  0.71200  0.17180  0.27320  1.0000 -0.5368631703
O   O115      1.0  0.27320  0.17180  0.84300  1.0000 -0.5368631703
O   O116      1.0  0.27320  0.84300  0.71200  1.0000 -0.5368631703
O   O117      1.0  0.84300  0.71200  0.27320  1.0000 -0.5368631703
O   O118      1.0  0.17180  0.71200  0.84300  1.0000 -0.5368631703
O   O119      1.0  0.71200  0.84300  0.17180  1.0000 -0.5368631703
O   O120      1.0  0.84300  0.27320  0.17180  1.0000 -0.5368631703
