# DDEC6 charges by PACMAN v1.1 (https://github.com/mtap-research/PACMAN-charge/)
data_2014[Eu][nan]3[ASR]7
_chemical_formula_sum              "Eu8 H48 C144 O64"
_cell_length_a       14.558
_cell_length_b       18.271
_cell_length_c       21.899
_cell_angle_alpha    90
_cell_angle_beta     112.12
_cell_angle_gamma    90

_symmetry_space_group_name_H-M    "P 1"
_symmetry_Int_Tables_number       1

loop_
  _symmetry_equiv_pos_as_xyz
  'x, y, z'

loop_
  _atom_site_type_symbol
  _atom_site_label
  _atom_site_symmetry_multiplicity
  _atom_site_fract_x
  _atom_site_fract_y
  _atom_site_fract_z
  _atom_site_occupancy
  _atom_site_charge
Eu  Eu1       1.0  0.39156  0.75382  0.18235  1.0000 2.0209566448
Eu  Eu2       1.0  0.60844  0.25382  0.31765  1.0000 2.0209566448
Eu  Eu3       1.0  0.60844  0.24618  0.81765  1.0000 2.0209566448
Eu  Eu4       1.0  0.39156  0.74618  0.68235  1.0000 2.0209566448
Eu  Eu5       1.0  0.30273  0.21772  0.07774  1.0000 2.089008281
Eu  Eu6       1.0  0.69727  0.71772  0.42226  1.0000 2.089008281
Eu  Eu7       1.0  0.69727  0.78228  0.92226  1.0000 2.089008281
Eu  Eu8       1.0  0.30273  0.28228  0.57774  1.0000 2.089008281
H   H1        1.0  0.13880  0.58890  0.20420  1.0000 0.1395795296
H   H2        1.0  0.86120  0.08890  0.29580  1.0000 0.1395795296
H   H3        1.0  0.86120  0.41110  0.79580  1.0000 0.1395795296
H   H4        1.0  0.13880  0.91110  0.70420  1.0000 0.1395795296
H   H5        1.0  0.30970  0.48710  0.12330  1.0000 0.1472030087
H   H6        1.0  0.69030  0.98710  0.37670  1.0000 0.1472030087
H   H7        1.0  0.69030  0.51290  0.87670  1.0000 0.1472030087
H   H8        1.0  0.30970  0.01290  0.62330  1.0000 0.1472030087
H   H9        1.0  0.09660  0.37500  0.15840  1.0000 0.1395795296
H   H10       1.0  0.90340  0.87500  0.34160  1.0000 0.1395795296
H   H11       1.0  0.90340  0.62500  0.84160  1.0000 0.1395795296
H   H12       1.0  0.09660  0.12500  0.65840  1.0000 0.1395795296
H   H13       1.0  0.98090  0.58500  0.32840  1.0000 0.1285931032
H   H14       1.0  0.01910  0.08500  0.17160  1.0000 0.1285931032
H   H15       1.0  0.01910  0.41500  0.67160  1.0000 0.1285931032
H   H16       1.0  0.98090  0.91500  0.82840  1.0000 0.1285931032
H   H17       1.0  0.76410  0.51050  0.38330  1.0000 0.1395795296
H   H18       1.0  0.23590  0.01050  0.11670  1.0000 0.1395795296
H   H19       1.0  0.23590  0.48950  0.61670  1.0000 0.1395795296
H   H20       1.0  0.76410  0.98950  0.88330  1.0000 0.1395795296
H   H21       1.0  0.84300  0.39520  0.25590  1.0000 0.1395795296
H   H22       1.0  0.15700  0.89520  0.24410  1.0000 0.1395795296
H   H23       1.0  0.15700  0.60480  0.74410  1.0000 0.1395795296
H   H24       1.0  0.84300  0.10480  0.75590  1.0000 0.1395795296
H   H25       1.0  0.24500  0.73000  0.28740  1.0000 0.1395795296
H   H26       1.0  0.75500  0.23000  0.21260  1.0000 0.1395795296
H   H27       1.0  0.75500  0.27000  0.71260  1.0000 0.1395795296
H   H28       1.0  0.24500  0.77000  0.78740  1.0000 0.1395795296
H   H29       1.0  0.45420  0.73550  0.47110  1.0000 0.1472030087
H   H30       1.0  0.54580  0.23550  0.02890  1.0000 0.1472030087
H   H31       1.0  0.54580  0.26450  0.52890  1.0000 0.1472030087
H   H32       1.0  0.45420  0.76450  0.97110  1.0000 0.1472030087
H   H33       1.0  0.16640  0.74370  0.44500  1.0000 0.1472030087
H   H34       1.0  0.83360  0.24370  0.05500  1.0000 0.1472030087
H   H35       1.0  0.83360  0.25630  0.55500  1.0000 0.1472030087
H   H36       1.0  0.16640  0.75630  0.94500  1.0000 0.1472030087
H   H37       1.0  0.91850  0.74810  0.15500  1.0000 0.1395795296
H   H38       1.0  0.08150  0.24810  0.34500  1.0000 0.1395795296
H   H39       1.0  0.08150  0.25190  0.84500  1.0000 0.1395795296
H   H40       1.0  0.91850  0.75190  0.65500  1.0000 0.1395795296
H   H41       1.0  0.63030  0.72790  0.12690  1.0000 0.1472030087
H   H42       1.0  0.36970  0.22790  0.37310  1.0000 0.1472030087
H   H43       1.0  0.36970  0.27210  0.87310  1.0000 0.1472030087
H   H44       1.0  0.63030  0.77210  0.62690  1.0000 0.1472030087
H   H45       1.0  0.83750  0.72620  0.31040  1.0000 0.1285931032
H   H46       1.0  0.16250  0.22620  0.18960  1.0000 0.1285931032
H   H47       1.0  0.16250  0.27380  0.68960  1.0000 0.1285931032
H   H48       1.0  0.83750  0.77380  0.81040  1.0000 0.1285931032
C   C1        1.0  0.10910  0.48110  0.18870  1.0000 0.1285931032
C   C2        1.0  0.89090  0.98110  0.31130  1.0000 0.1285931032
C   C3        1.0  0.89090  0.51890  0.81130  1.0000 0.1285931032
C   C4        1.0  0.10910  0.01890  0.68870  1.0000 0.1285931032
C   C5        1.0  0.15690  0.54650  0.18800  1.0000 -0.1212493945
C   C6        1.0  0.84310  0.04650  0.31200  1.0000 -0.1295604141
C   C7        1.0  0.84310  0.45350  0.81200  1.0000 -0.1212493945
C   C8        1.0  0.15690  0.95350  0.68800  1.0000 -0.1212493945
C   C9        1.0  0.23300  0.54920  0.16290  1.0000 -0.0021435831
C   C10       1.0  0.76700  0.04920  0.33710  1.0000 -0.0021435831
C   C11       1.0  0.76700  0.45080  0.83710  1.0000 -0.0021435831
C   C12       1.0  0.23300  0.95080  0.66290  1.0000 -0.0021435831
C   C13       1.0  0.25810  0.48600  0.13850  1.0000 -0.0718216356
C   C14       1.0  0.74190  0.98600  0.36150  1.0000 -0.0718216356
C   C15       1.0  0.74190  0.51400  0.86150  1.0000 -0.0718216356
C   C16       1.0  0.25810  0.01400  0.63850  1.0000 -0.0718216356
C   C17       1.0  0.20810  0.42070  0.13610  1.0000 0.0004404823
C   C18       1.0  0.79190  0.92070  0.36390  1.0000 0.0004404823
C   C19       1.0  0.79190  0.57930  0.86390  1.0000 0.0004404823
C   C20       1.0  0.20810  0.07930  0.63610  1.0000 0.0004404823
C   C21       1.0  0.13170  0.41810  0.16070  1.0000 -0.1212493945
C   C22       1.0  0.86830  0.91810  0.33930  1.0000 -0.1212493945
C   C23       1.0  0.86830  0.58190  0.83930  1.0000 -0.1212493945
C   C24       1.0  0.13170  0.08190  0.66070  1.0000 -0.1212493945
C   C25       1.0  0.03730  0.47910  0.21870  1.0000 -0.0718216356
C   C26       1.0  0.96270  0.97910  0.28130  1.0000 -0.0718216356
C   C27       1.0  0.96270  0.52090  0.78130  1.0000 -0.0718216356
C   C28       1.0  0.03730  0.02090  0.71870  1.0000 -0.0718216356
C   C29       1.0  0.98260  0.48270  0.24780  1.0000 -0.0718216356
C   C30       1.0  0.01740  0.98270  0.25220  1.0000 -0.0718216356
C   C31       1.0  0.01740  0.51730  0.75220  1.0000 -0.0718216356
C   C32       1.0  0.98260  0.01730  0.74780  1.0000 -0.0718216356
C   C33       1.0  0.92080  0.48950  0.28500  1.0000 0.1243724209
C   C34       1.0  0.07920  0.98950  0.21500  1.0000 0.1243724209
C   C35       1.0  0.07920  0.51050  0.71500  1.0000 0.1243724209
C   C36       1.0  0.92080  0.01050  0.78500  1.0000 0.1243724209
C   C37       1.0  0.93380  0.54970  0.32640  1.0000 -0.1295604141
C   C38       1.0  0.06620  0.04970  0.17360  1.0000 -0.1295604141
C   C39       1.0  0.06620  0.45030  0.67360  1.0000 -0.1295604141
C   C40       1.0  0.93380  0.95030  0.82640  1.0000 -0.1295604141
C   C41       1.0  0.87640  0.55770  0.36500  1.0000 0.0004404823
C   C42       1.0  0.12360  0.05770  0.13500  1.0000 -0.0021435831
C   C43       1.0  0.12360  0.44230  0.63500  1.0000 0.0004404823
C   C44       1.0  0.87640  0.94230  0.86500  1.0000 -0.0021435831
C   C45       1.0  0.80510  0.50450  0.35990  1.0000 -0.0813875726
C   C46       1.0  0.19490  0.00450  0.14010  1.0000 -0.0813875726
C   C47       1.0  0.19490  0.49550  0.64010  1.0000 -0.0813875726
C   C48       1.0  0.80510  0.99550  0.85990  1.0000 -0.0813875726
C   C49       1.0  0.79400  0.44350  0.32100  1.0000 0.0078835873
C   C50       1.0  0.20600  0.94350  0.17900  1.0000 0.0078835873
C   C51       1.0  0.20600  0.55650  0.67900  1.0000 0.0078835873
C   C52       1.0  0.79400  0.05650  0.82100  1.0000 0.0078835873
C   C53       1.0  0.85110  0.43590  0.28280  1.0000 -0.1295604141
C   C54       1.0  0.14890  0.93590  0.21720  1.0000 -0.1295604141
C   C55       1.0  0.14890  0.56410  0.71720  1.0000 -0.1212493945
C   C56       1.0  0.85110  0.06410  0.78280  1.0000 -0.1295604141
C   C57       1.0  0.28360  0.62030  0.16440  1.0000 0.5674845471
C   C58       1.0  0.71640  0.12030  0.33560  1.0000 0.5674845471
C   C59       1.0  0.71640  0.37970  0.83560  1.0000 0.5674845471
C   C60       1.0  0.28360  0.87970  0.66440  1.0000 0.5674845471
C   C61       1.0  0.23520  0.35320  0.10900  1.0000 0.5674845471
C   C62       1.0  0.76480  0.85320  0.39100  1.0000 0.5627399299
C   C63       1.0  0.76480  0.64680  0.89100  1.0000 0.5674845471
C   C64       1.0  0.23520  0.14680  0.60900  1.0000 0.5674845471
C   C65       1.0  0.89440  0.62190  0.41090  1.0000 0.5989971701
C   C66       1.0  0.10560  0.12190  0.08910  1.0000 0.5989971701
C   C67       1.0  0.10560  0.37810  0.58910  1.0000 0.5989971701
C   C68       1.0  0.89440  0.87810  0.91090  1.0000 0.5989971701
C   C69       1.0  0.72230  0.38270  0.31910  1.0000 0.5674845471
C   C70       1.0  0.27770  0.88270  0.18090  1.0000 0.5674845471
C   C71       1.0  0.27770  0.61730  0.68090  1.0000 0.5674845471
C   C72       1.0  0.72230  0.11730  0.81910  1.0000 0.5674845471
C   C73       1.0  0.18800  0.73520  0.35970  1.0000 0.1285931032
C   C74       1.0  0.81200  0.23520  0.14030  1.0000 0.1285931032
C   C75       1.0  0.81200  0.26480  0.64030  1.0000 0.1285931032
C   C76       1.0  0.18800  0.76480  0.85970  1.0000 0.1285931032
C   C77       1.0  0.26210  0.73200  0.33280  1.0000 -0.108871974
C   C78       1.0  0.73790  0.23200  0.16720  1.0000 -0.108871974
C   C79       1.0  0.73790  0.26800  0.66720  1.0000 -0.108871974
C   C80       1.0  0.26210  0.76800  0.83280  1.0000 -0.108871974
C   C81       1.0  0.36140  0.73170  0.37530  1.0000 -0.0171788111
C   C82       1.0  0.63860  0.23170  0.12470  1.0000 -0.0171788111
C   C83       1.0  0.63860  0.26830  0.62470  1.0000 -0.0171788111
C   C84       1.0  0.36140  0.76830  0.87530  1.0000 -0.0171788111
C   C85       1.0  0.38760  0.73540  0.44340  1.0000 -0.0878406837
C   C86       1.0  0.61240  0.23540  0.05660  1.0000 -0.0878406837
C   C87       1.0  0.61240  0.26460  0.55660  1.0000 -0.0878406837
C   C88       1.0  0.38760  0.76460  0.94340  1.0000 -0.0878406837
C   C89       1.0  0.31480  0.73890  0.47020  1.0000 -0.0104870454
C   C90       1.0  0.68520  0.23890  0.02980  1.0000 -0.0021435831
C   C91       1.0  0.68520  0.26110  0.52980  1.0000 -0.0104870454
C   C92       1.0  0.31480  0.76110  0.97020  1.0000 -0.0104870454
C   C93       1.0  0.21540  0.73990  0.42760  1.0000 -0.108871974
C   C94       1.0  0.78460  0.23990  0.07240  1.0000 -0.108871974
C   C95       1.0  0.78460  0.26010  0.57240  1.0000 -0.108871974
C   C96       1.0  0.21540  0.76010  0.92760  1.0000 -0.108871974
C   C97       1.0  0.08590  0.73670  0.31670  1.0000 -0.0813875726
C   C98       1.0  0.91410  0.23670  0.18330  1.0000 -0.0813875726
C   C99       1.0  0.91410  0.26330  0.68330  1.0000 -0.0813875726
C   C100      1.0  0.08590  0.76330  0.81670  1.0000 -0.0813875726
C   C101      1.0  0.99920  0.73670  0.28200  1.0000 -0.0813875726
C   C102      1.0  0.00080  0.23670  0.21800  1.0000 -0.0813875726
C   C103      1.0  0.00080  0.26330  0.71800  1.0000 -0.0813875726
C   C104      1.0  0.99920  0.76330  0.78200  1.0000 -0.0813875726
C   C105      1.0  0.89730  0.73370  0.23920  1.0000 0.1285931032
C   C106      1.0  0.10270  0.23370  0.26080  1.0000 0.1285931032
C   C107      1.0  0.10270  0.26630  0.76080  1.0000 0.1285931032
C   C108      1.0  0.89730  0.76630  0.73920  1.0000 0.1285931032
C   C109      1.0  0.86980  0.74100  0.17230  1.0000 -0.1295604141
C   C110      1.0  0.13020  0.24100  0.32770  1.0000 -0.1295604141
C   C111      1.0  0.13020  0.25900  0.82770  1.0000 -0.1295604141
C   C112      1.0  0.86980  0.75900  0.67230  1.0000 -0.1295604141
C   C113      1.0  0.77090  0.73800  0.12970  1.0000 0.0078835873
C   C114      1.0  0.22910  0.23800  0.37030  1.0000 0.0078835873
C   C115      1.0  0.22910  0.26200  0.87030  1.0000 0.0078835873
C   C116      1.0  0.77090  0.76200  0.62970  1.0000 0.0078835873
C   C117      1.0  0.69660  0.72960  0.15510  1.0000 -0.0878406837
C   C118      1.0  0.30340  0.22960  0.34490  1.0000 -0.0878406837
C   C119      1.0  0.30340  0.27040  0.84490  1.0000 -0.0878406837
C   C120      1.0  0.69660  0.77040  0.65510  1.0000 -0.0878406837
C   C121      1.0  0.72250  0.72390  0.22280  1.0000 -0.0104870454
C   C122      1.0  0.27750  0.22390  0.27720  1.0000 -0.0104870454
C   C123      1.0  0.27750  0.27610  0.77720  1.0000 -0.0104870454
C   C124      1.0  0.72250  0.77610  0.72280  1.0000 -0.0104870454
C   C125      1.0  0.82100  0.72770  0.26510  1.0000 -0.1023505367
C   C126      1.0  0.17900  0.22770  0.23490  1.0000 -0.1023505367
C   C127      1.0  0.17900  0.27230  0.73490  1.0000 -0.1023505367
C   C128      1.0  0.82100  0.77230  0.76510  1.0000 -0.1023505367
C   C129      1.0  0.44210  0.72550  0.34830  1.0000 0.6740860288
C   C130      1.0  0.55790  0.22550  0.15170  1.0000 0.6740860288
C   C131      1.0  0.55790  0.27450  0.65170  1.0000 0.6740860288
C   C132      1.0  0.44210  0.77450  0.84830  1.0000 0.6740860288
C   C133      1.0  0.34070  0.74100  0.54270  1.0000 0.5674845471
C   C134      1.0  0.65930  0.24100  0.95730  1.0000 0.5674845471
C   C135      1.0  0.65930  0.25900  0.45730  1.0000 0.5674845471
C   C136      1.0  0.34070  0.75900  0.04270  1.0000 0.5674845471
C   C137      1.0  0.74450  0.74460  0.05700  1.0000 0.5627399299
C   C138      1.0  0.25550  0.24460  0.44300  1.0000 0.5627399299
C   C139      1.0  0.25550  0.25540  0.94300  1.0000 0.5627399299
C   C140      1.0  0.74450  0.75540  0.55700  1.0000 0.5627399299
C   C141      1.0  0.64170  0.71310  0.25010  1.0000 0.6515433583
C   C142      1.0  0.35830  0.21310  0.24990  1.0000 0.6515433583
C   C143      1.0  0.35830  0.28690  0.74990  1.0000 0.6515433583
C   C144      1.0  0.64170  0.78690  0.75010  1.0000 0.6515433583
O   O1        1.0  0.24580  0.67820  0.17410  1.0000 -0.5694853295
O   O2        1.0  0.75420  0.17820  0.32590  1.0000 -0.5813049879
O   O3        1.0  0.75420  0.32180  0.82590  1.0000 -0.5813049879
O   O4        1.0  0.24580  0.82180  0.67410  1.0000 -0.5694853295
O   O5        1.0  0.36680  0.62040  0.15760  1.0000 -0.5813049879
O   O6        1.0  0.63320  0.12040  0.34240  1.0000 -0.5813049879
O   O7        1.0  0.63320  0.37960  0.84240  1.0000 -0.5813049879
O   O8        1.0  0.36680  0.87960  0.65760  1.0000 -0.5813049879
O   O9        1.0  0.17480  0.30120  0.09010  1.0000 -0.5909294459
O   O10       1.0  0.82520  0.80120  0.40990  1.0000 -0.5909294459
O   O11       1.0  0.82520  0.69880  0.90990  1.0000 -0.5909294459
O   O12       1.0  0.17480  0.19880  0.59010  1.0000 -0.5909294459
O   O13       1.0  0.31990  0.34910  0.10570  1.0000 -0.5978712517
O   O14       1.0  0.68010  0.84910  0.39430  1.0000 -0.5978712517
O   O15       1.0  0.68010  0.65090  0.89430  1.0000 -0.5978712517
O   O16       1.0  0.31990  0.15090  0.60570  1.0000 -0.5978712517
O   O17       1.0  0.82430  0.63740  0.43010  1.0000 -0.6798101272
O   O18       1.0  0.17570  0.13740  0.06990  1.0000 -0.6798101272
O   O19       1.0  0.17570  0.36260  0.56990  1.0000 -0.6798101272
O   O20       1.0  0.82430  0.86260  0.93010  1.0000 -0.6798101272
O   O21       1.0  0.97440  0.65350  0.42690  1.0000 -0.4346704688
O   O22       1.0  0.02560  0.15350  0.07310  1.0000 -0.4371341473
O   O23       1.0  0.02560  0.34650  0.57310  1.0000 -0.4371341473
O   O24       1.0  0.97440  0.84650  0.92690  1.0000 -0.4371341473
O   O25       1.0  0.71510  0.33010  0.28280  1.0000 -0.5694853295
O   O26       1.0  0.28490  0.83010  0.21720  1.0000 -0.5694853295
O   O27       1.0  0.28490  0.66990  0.71720  1.0000 -0.5694853295
O   O28       1.0  0.71510  0.16990  0.78280  1.0000 -0.5694853295
O   O29       1.0  0.67450  0.38530  0.35610  1.0000 -0.5694853295
O   O30       1.0  0.32550  0.88530  0.14390  1.0000 -0.5590710666
O   O31       1.0  0.32550  0.61470  0.64390  1.0000 -0.5694853295
O   O32       1.0  0.67450  0.11470  0.85610  1.0000 -0.5694853295
O   O33       1.0  0.41860  0.71100  0.28900  1.0000 -0.6324365046
O   O34       1.0  0.58140  0.21100  0.21100  1.0000 -0.6324365046
O   O35       1.0  0.58140  0.28900  0.71100  1.0000 -0.6324365046
O   O36       1.0  0.41860  0.78900  0.78900  1.0000 -0.6324365046
O   O37       1.0  0.53040  0.73400  0.38810  1.0000 -0.6712565329
O   O38       1.0  0.46960  0.23400  0.11190  1.0000 -0.6712565329
O   O39       1.0  0.46960  0.26600  0.61190  1.0000 -0.6712565329
O   O40       1.0  0.53040  0.76600  0.88810  1.0000 -0.6712565329
O   O41       1.0  0.42960  0.73130  0.58160  1.0000 -0.5909294459
O   O42       1.0  0.57040  0.23130  0.91840  1.0000 -0.5909294459
O   O43       1.0  0.57040  0.26870  0.41840  1.0000 -0.5909294459
O   O44       1.0  0.42960  0.76870  0.08160  1.0000 -0.5909294459
O   O45       1.0  0.27280  0.75100  0.56430  1.0000 -0.5694853295
O   O46       1.0  0.72720  0.25100  0.93570  1.0000 -0.5694853295
O   O47       1.0  0.72720  0.24900  0.43570  1.0000 -0.5694853295
O   O48       1.0  0.27280  0.74900  0.06430  1.0000 -0.5694853295
O   O49       1.0  0.81220  0.75800  0.03590  1.0000 -0.5978712517
O   O50       1.0  0.18780  0.25800  0.46410  1.0000 -0.5909294459
O   O51       1.0  0.18780  0.24200  0.96410  1.0000 -0.5978712517
O   O52       1.0  0.81220  0.74200  0.53590  1.0000 -0.5978712517
O   O53       1.0  0.65670  0.73750  0.01840  1.0000 -0.5590710666
O   O54       1.0  0.34330  0.23750  0.48160  1.0000 -0.5590710666
O   O55       1.0  0.34330  0.26250  0.98160  1.0000 -0.5590710666
O   O56       1.0  0.65670  0.76250  0.51840  1.0000 -0.5590710666
O   O57       1.0  0.55750  0.70790  0.21070  1.0000 -0.5529514756
O   O58       1.0  0.44250  0.20790  0.28930  1.0000 -0.5529514756
O   O59       1.0  0.44250  0.29210  0.78930  1.0000 -0.5529514756
O   O60       1.0  0.55750  0.79210  0.71070  1.0000 -0.5529514756
O   O61       1.0  0.66780  0.70880  0.31120  1.0000 -0.6798101272
O   O62       1.0  0.33220  0.20880  0.18880  1.0000 -0.6798101272
O   O63       1.0  0.33220  0.29120  0.68880  1.0000 -0.6798101272
O   O64       1.0  0.66780  0.79120  0.81120  1.0000 -0.6798101272
