# DDEC6 charges by PACMAN v1.1 (https://github.com/mtap-research/PACMAN-charge/)
data_2014[Fe][nan]3[ASR]8
_chemical_formula_sum              "Fe12 H216 C264 O60"
_cell_length_a       25.085
_cell_length_b       18.549
_cell_length_c       35.494
_cell_angle_alpha    90
_cell_angle_beta     91.607
_cell_angle_gamma    90

_symmetry_space_group_name_H-M    "P 1"
_symmetry_Int_Tables_number       1

loop_
  _symmetry_equiv_pos_as_xyz
  'x, y, z'

loop_
  _atom_site_type_symbol
  _atom_site_label
  _atom_site_symmetry_multiplicity
  _atom_site_fract_x
  _atom_site_fract_y
  _atom_site_fract_z
  _atom_site_occupancy
  _atom_site_charge
Fe  Fe1       1.0  0.70424  0.72265  0.62651  1.0000 1.175970857
Fe  Fe2       1.0  0.29576  0.22265  0.87349  1.0000 1.1742579387
Fe  Fe3       1.0  0.29576  0.27735  0.37349  1.0000 1.1742579387
Fe  Fe4       1.0  0.70424  0.77735  0.12651  1.0000 1.175970857
Fe  Fe5       1.0  0.82241  0.64851  0.61515  1.0000 1.2314354227
Fe  Fe6       1.0  0.17759  0.14851  0.88485  1.0000 1.2314354227
Fe  Fe7       1.0  0.17759  0.35149  0.38485  1.0000 1.2314354227
Fe  Fe8       1.0  0.82241  0.85149  0.11515  1.0000 1.2314354227
Fe  Fe9       1.0  0.74331  0.58854  0.68063  1.0000 1.2024186896
Fe  Fe10      1.0  0.25669  0.08854  0.81937  1.0000 1.2024186896
Fe  Fe11      1.0  0.25669  0.41146  0.31937  1.0000 1.2024186896
Fe  Fe12      1.0  0.74331  0.91146  0.18063  1.0000 1.2024186896
H   H1        1.0  0.90710  0.84820  0.61430  1.0000 0.1283202241
H   H2        1.0  0.09290  0.34820  0.88570  1.0000 0.1283202241
H   H3        1.0  0.09290  0.15180  0.38570  1.0000 0.1283202241
H   H4        1.0  0.90710  0.65180  0.11430  1.0000 0.1283202241
H   H5        1.0  0.94750  0.95930  0.62790  1.0000 0.1190845533
H   H6        1.0  0.05250  0.45930  0.87210  1.0000 0.1190845533
H   H7        1.0  0.05250  0.04070  0.37210  1.0000 0.1190845533
H   H8        1.0  0.94750  0.54070  0.12790  1.0000 0.1190845533
H   H9        1.0  0.80330  0.04370  0.65190  1.0000 0.1283202241
H   H10       1.0  0.19670  0.54370  0.84810  1.0000 0.1283202241
H   H11       1.0  0.19670  0.95630  0.34810  1.0000 0.1283202241
H   H12       1.0  0.80330  0.45630  0.15190  1.0000 0.1190845533
H   H13       1.0  0.76300  0.93260  0.63830  1.0000 0.1283202241
H   H14       1.0  0.23700  0.43260  0.86170  1.0000 0.1283202241
H   H15       1.0  0.23700  0.06740  0.36170  1.0000 0.1283202241
H   H16       1.0  0.76300  0.56740  0.13830  1.0000 0.1283202241
H   H17       1.0  0.96350  0.03530  0.68570  1.0000 0.1190845533
H   H18       1.0  0.03650  0.53530  0.81430  1.0000 0.1190845533
H   H19       1.0  0.03650  0.96470  0.31430  1.0000 0.1190845533
H   H20       1.0  0.96350  0.46470  0.18570  1.0000 0.1190845533
H   H21       1.0  0.96450  0.25370  0.68930  1.0000 0.1190845533
H   H22       1.0  0.03550  0.75370  0.81070  1.0000 0.1190845533
H   H23       1.0  0.03550  0.74630  0.31070  1.0000 0.1190845533
H   H24       1.0  0.96450  0.24630  0.18930  1.0000 0.1190845533
H   H25       1.0  0.76590  0.36760  0.65620  1.0000 0.1283202241
H   H26       1.0  0.23410  0.86760  0.84380  1.0000 0.1283202241
H   H27       1.0  0.23410  0.63240  0.34380  1.0000 0.1283202241
H   H28       1.0  0.76590  0.13240  0.15620  1.0000 0.1283202241
H   H29       1.0  0.80510  0.25400  0.66460  1.0000 0.1283202241
H   H30       1.0  0.19490  0.75400  0.83540  1.0000 0.1283202241
H   H31       1.0  0.19490  0.74600  0.33540  1.0000 0.1283202241
H   H32       1.0  0.80510  0.24600  0.16460  1.0000 0.1283202241
H   H33       1.0  0.94450  0.33180  0.62630  1.0000 0.1190845533
H   H34       1.0  0.05550  0.83180  0.87370  1.0000 0.1190845533
H   H35       1.0  0.05550  0.66820  0.37370  1.0000 0.1190845533
H   H36       1.0  0.94450  0.16820  0.12630  1.0000 0.1190845533
H   H37       1.0  0.90530  0.44540  0.61800  1.0000 0.1283202241
H   H38       1.0  0.09470  0.94540  0.88200  1.0000 0.1283202241
H   H39       1.0  0.09470  0.55460  0.38200  1.0000 0.1283202241
H   H40       1.0  0.90530  0.05460  0.11800  1.0000 0.1283202241
H   H41       1.0  0.05150  0.20690  0.80280  1.0000 0.1283202241
H   H42       1.0  0.94850  0.70690  0.69720  1.0000 0.1283202241
H   H43       1.0  0.94850  0.79310  0.19720  1.0000 0.1283202241
H   H44       1.0  0.05150  0.29310  0.30280  1.0000 0.1283202241
H   H45       1.0  0.98330  0.21340  0.75670  1.0000 0.1190845533
H   H46       1.0  0.01670  0.71340  0.74330  1.0000 0.1190845533
H   H47       1.0  0.01670  0.78660  0.24330  1.0000 0.1190845533
H   H48       1.0  0.98330  0.28660  0.25670  1.0000 0.1190845533
H   H49       1.0  0.06130  0.06830  0.69310  1.0000 0.1190845533
H   H50       1.0  0.93870  0.56830  0.80690  1.0000 0.1190845533
H   H51       1.0  0.93870  0.93170  0.30690  1.0000 0.1190845533
H   H52       1.0  0.06130  0.43170  0.19310  1.0000 0.1190845533
H   H53       1.0  0.12960  0.06170  0.73930  1.0000 0.1283202241
H   H54       1.0  0.87040  0.56170  0.76070  1.0000 0.1283202241
H   H55       1.0  0.87040  0.93830  0.26070  1.0000 0.1283202241
H   H56       1.0  0.12960  0.43830  0.23930  1.0000 0.1283202241
H   H57       1.0  0.78540  0.59490  0.49510  1.0000 0.1190845533
H   H58       1.0  0.21460  0.09490  0.00490  1.0000 0.1190845533
H   H59       1.0  0.21460  0.40510  0.50490  1.0000 0.1190845533
H   H60       1.0  0.78540  0.90510  0.99510  1.0000 0.1190845533
H   H61       1.0  0.74790  0.56320  0.43640  1.0000 0.1089627065
H   H62       1.0  0.25210  0.06320  0.06360  1.0000 0.1089627065
H   H63       1.0  0.25210  0.43680  0.56360  1.0000 0.1089627065
H   H64       1.0  0.74790  0.93680  0.93640  1.0000 0.1089627065
H   H65       1.0  0.60490  0.64080  0.46810  1.0000 0.1190845533
H   H66       1.0  0.39510  0.14080  0.03190  1.0000 0.1190845533
H   H67       1.0  0.39510  0.35920  0.53190  1.0000 0.1190845533
H   H68       1.0  0.60490  0.85920  0.96810  1.0000 0.1190845533
H   H69       1.0  0.64250  0.67260  0.52690  1.0000 0.1283202241
H   H70       1.0  0.35750  0.17260  0.97310  1.0000 0.1283202241
H   H71       1.0  0.35750  0.32740  0.47310  1.0000 0.1283202241
H   H72       1.0  0.64250  0.82740  0.02690  1.0000 0.1283202241
H   H73       1.0  0.58460  0.52490  0.42750  1.0000 0.1190845533
H   H74       1.0  0.41540  0.02490  0.07250  1.0000 0.1190845533
H   H75       1.0  0.41540  0.47510  0.57250  1.0000 0.1190845533
H   H76       1.0  0.58460  0.97510  0.92750  1.0000 0.1190845533
H   H77       1.0  0.57700  0.56570  0.31530  1.0000 0.1089627065
H   H78       1.0  0.42300  0.06570  0.18470  1.0000 0.1089627065
H   H79       1.0  0.42300  0.43430  0.68470  1.0000 0.1089627065
H   H80       1.0  0.57700  0.93430  0.81530  1.0000 0.1089627065
H   H81       1.0  0.70300  0.80940  0.28350  1.0000 0.1283202241
H   H82       1.0  0.29700  0.30940  0.21650  1.0000 0.1283202241
H   H83       1.0  0.29700  0.19060  0.71650  1.0000 0.1283202241
H   H84       1.0  0.70300  0.69060  0.78350  1.0000 0.1283202241
H   H85       1.0  0.68090  0.74180  0.33650  1.0000 0.1190845533
H   H86       1.0  0.31910  0.24180  0.16350  1.0000 0.1190845533
H   H87       1.0  0.31910  0.25820  0.66350  1.0000 0.1190845533
H   H88       1.0  0.68090  0.75820  0.83650  1.0000 0.1190845533
H   H89       1.0  0.64580  0.57050  0.26950  1.0000 0.1190845533
H   H90       1.0  0.35420  0.07050  0.23050  1.0000 0.1190845533
H   H91       1.0  0.35420  0.42950  0.73050  1.0000 0.1190845533
H   H92       1.0  0.64580  0.92950  0.76950  1.0000 0.1190845533
H   H93       1.0  0.66780  0.63800  0.21650  1.0000 0.1283202241
H   H94       1.0  0.33220  0.13800  0.28350  1.0000 0.1283202241
H   H95       1.0  0.33220  0.36200  0.78350  1.0000 0.1283202241
H   H96       1.0  0.66780  0.86200  0.71650  1.0000 0.1283202241
H   H97       1.0  0.40390  0.52030  0.32470  1.0000 0.1283202241
H   H98       1.0  0.59610  0.02030  0.17530  1.0000 0.1283202241
H   H99       1.0  0.59610  0.47970  0.67530  1.0000 0.1283202241
H   H100      1.0  0.40390  0.97970  0.82470  1.0000 0.1283202241
H   H101      1.0  0.48790  0.57470  0.33030  1.0000 0.1190845533
H   H102      1.0  0.51210  0.07470  0.16970  1.0000 0.1190845533
H   H103      1.0  0.51210  0.42530  0.66970  1.0000 0.1190845533
H   H104      1.0  0.48790  0.92530  0.83030  1.0000 0.1190845533
H   H105      1.0  0.53630  0.41920  0.40380  1.0000 0.1190845533
H   H106      1.0  0.46370  0.91920  0.09620  1.0000 0.1190845533
H   H107      1.0  0.46370  0.58080  0.59620  1.0000 0.1190845533
H   H108      1.0  0.53630  0.08080  0.90380  1.0000 0.1190845533
H   H109      1.0  0.45230  0.36470  0.39830  1.0000 0.1283202241
H   H110      1.0  0.54770  0.86470  0.10170  1.0000 0.1283202241
H   H111      1.0  0.54770  0.63530  0.60170  1.0000 0.1283202241
H   H112      1.0  0.45230  0.13530  0.89830  1.0000 0.1283202241
H   H113      1.0  0.88000  0.10400  0.56070  1.0000 0.1089627065
H   H114      1.0  0.12000  0.60400  0.93930  1.0000 0.1089627065
H   H115      1.0  0.12000  0.89600  0.43930  1.0000 0.1089627065
H   H116      1.0  0.88000  0.39600  0.06070  1.0000 0.1089627065
H   H117      1.0  0.90600  0.18180  0.57260  1.0000 0.0899166567
H   H118      1.0  0.09400  0.68180  0.92740  1.0000 0.0899166567
H   H119      1.0  0.09400  0.81820  0.42740  1.0000 0.0899166567
H   H120      1.0  0.90600  0.31820  0.07260  1.0000 0.0899166567
H   H121      1.0  0.83180  0.20160  0.52730  1.0000 0.0899166567
H   H122      1.0  0.16820  0.70160  0.97270  1.0000 0.0899166567
H   H123      1.0  0.16820  0.79840  0.47270  1.0000 0.0899166567
H   H124      1.0  0.83180  0.29840  0.02730  1.0000 0.0899166567
H   H125      1.0  0.81930  0.23650  0.56740  1.0000 0.1089627065
H   H126      1.0  0.18070  0.73650  0.93260  1.0000 0.1089627065
H   H127      1.0  0.18070  0.76350  0.43260  1.0000 0.1089627065
H   H128      1.0  0.81930  0.26350  0.06740  1.0000 0.1089627065
H   H129      1.0  0.78030  0.11000  0.57750  1.0000 0.1006816289
H   H130      1.0  0.21970  0.61000  0.92250  1.0000 0.1006816289
H   H131      1.0  0.21970  0.89000  0.42250  1.0000 0.1006816289
H   H132      1.0  0.78030  0.39000  0.07750  1.0000 0.1006816289
H   H133      1.0  0.74470  0.17510  0.56070  1.0000 0.0899166567
H   H134      1.0  0.25530  0.67510  0.93930  1.0000 0.0899166567
H   H135      1.0  0.25530  0.82490  0.43930  1.0000 0.0899166567
H   H136      1.0  0.74470  0.32490  0.06070  1.0000 0.0899166567
H   H137      1.0  0.80300  0.08000  0.51320  1.0000 0.0899166567
H   H138      1.0  0.19700  0.58000  0.98680  1.0000 0.0899166567
H   H139      1.0  0.19700  0.92000  0.48680  1.0000 0.0899166567
H   H140      1.0  0.80300  0.42000  0.01320  1.0000 0.0899166567
H   H141      1.0  0.74170  0.06610  0.52220  1.0000 0.0804405017
H   H142      1.0  0.25830  0.56610  0.97780  1.0000 0.0804405017
H   H143      1.0  0.25830  0.93390  0.47780  1.0000 0.0804405017
H   H144      1.0  0.74170  0.43390  0.02220  1.0000 0.0804405017
H   H145      1.0  0.76500  0.20360  0.49150  1.0000 0.1089627065
H   H146      1.0  0.23500  0.70360  0.00850  1.0000 0.1089627065
H   H147      1.0  0.23500  0.79640  0.50850  1.0000 0.1089627065
H   H148      1.0  0.76500  0.29640  0.99150  1.0000 0.1089627065
H   H149      1.0  0.71240  0.15620  0.48440  1.0000 0.0899166567
H   H150      1.0  0.28760  0.65620  0.01560  1.0000 0.0899166567
H   H151      1.0  0.28760  0.84380  0.51560  1.0000 0.0899166567
H   H152      1.0  0.71240  0.34380  0.98440  1.0000 0.0899166567
H   H153      1.0  0.76230  0.16510  0.42880  1.0000 0.1089627065
H   H154      1.0  0.23770  0.66510  0.07120  1.0000 0.1089627065
H   H155      1.0  0.23770  0.83490  0.57120  1.0000 0.1089627065
H   H156      1.0  0.76230  0.33490  0.92880  1.0000 0.1089627065
H   H157      1.0  0.81160  0.12620  0.45000  1.0000 0.0899166567
H   H158      1.0  0.18840  0.62620  0.05000  1.0000 0.0899166567
H   H159      1.0  0.18840  0.87380  0.55000  1.0000 0.0899166567
H   H160      1.0  0.81160  0.37380  0.95000  1.0000 0.0899166567
H   H161      1.0  0.75730  0.08280  0.44170  1.0000 0.1089627065
H   H162      1.0  0.24270  0.58280  0.05830  1.0000 0.1089627065
H   H163      1.0  0.24270  0.91720  0.55830  1.0000 0.1089627065
H   H164      1.0  0.75730  0.41720  0.94170  1.0000 0.1190845533
H   H165      1.0  0.76370  0.56080  0.35140  1.0000 0.0804405017
H   H166      1.0  0.23630  0.06080  0.14860  1.0000 0.0804405017
H   H167      1.0  0.23630  0.43920  0.64860  1.0000 0.0804405017
H   H168      1.0  0.76370  0.93920  0.85140  1.0000 0.0804405017
H   H169      1.0  0.77070  0.63720  0.33140  1.0000 0.0899166567
H   H170      1.0  0.22930  0.13720  0.16860  1.0000 0.0899166567
H   H171      1.0  0.22930  0.36280  0.66860  1.0000 0.0899166567
H   H172      1.0  0.77070  0.86280  0.83140  1.0000 0.0899166567
H   H173      1.0  0.82310  0.59290  0.39890  1.0000 0.1089627065
H   H174      1.0  0.17690  0.09290  0.10110  1.0000 0.1089627065
H   H175      1.0  0.17690  0.40710  0.60110  1.0000 0.1089627065
H   H176      1.0  0.82310  0.90710  0.89890  1.0000 0.1089627065
H   H177      1.0  0.85020  0.60120  0.35880  1.0000 0.1089627065
H   H178      1.0  0.14980  0.10120  0.14120  1.0000 0.1089627065
H   H179      1.0  0.14980  0.39880  0.64120  1.0000 0.1089627065
H   H180      1.0  0.85020  0.89880  0.85880  1.0000 0.1089627065
H   H181      1.0  0.80430  0.72760  0.37750  1.0000 0.1089627065
H   H182      1.0  0.19570  0.22760  0.12250  1.0000 0.1089627065
H   H183      1.0  0.19570  0.27240  0.62250  1.0000 0.1089627065
H   H184      1.0  0.80430  0.77240  0.87750  1.0000 0.1089627065
H   H185      1.0  0.84230  0.70160  0.41170  1.0000 0.1089627065
H   H186      1.0  0.15770  0.20160  0.08830  1.0000 0.1006816289
H   H187      1.0  0.15770  0.29840  0.58830  1.0000 0.1006816289
H   H188      1.0  0.84230  0.79840  0.91170  1.0000 0.1089627065
H   H189      1.0  0.87410  0.77660  0.35530  1.0000 0.1089627065
H   H190      1.0  0.12590  0.27660  0.14470  1.0000 0.1089627065
H   H191      1.0  0.12590  0.22340  0.64470  1.0000 0.1089627065
H   H192      1.0  0.87410  0.72340  0.85530  1.0000 0.1089627065
H   H193      1.0  0.88910  0.69770  0.34160  1.0000 0.1006816289
H   H194      1.0  0.11090  0.19770  0.15840  1.0000 0.1006816289
H   H195      1.0  0.11090  0.30230  0.65840  1.0000 0.1006816289
H   H196      1.0  0.88910  0.80230  0.84160  1.0000 0.1006816289
H   H197      1.0  0.93210  0.71250  0.41050  1.0000 0.0899166567
H   H198      1.0  0.06790  0.21250  0.08950  1.0000 0.0899166567
H   H199      1.0  0.06790  0.28750  0.58950  1.0000 0.0899166567
H   H200      1.0  0.93210  0.78750  0.91050  1.0000 0.0899166567
H   H201      1.0  0.96200  0.70190  0.37190  1.0000 0.0804405017
H   H202      1.0  0.03800  0.20190  0.12810  1.0000 0.0804405017
H   H203      1.0  0.03800  0.29810  0.62810  1.0000 0.0804405017
H   H204      1.0  0.96200  0.79810  0.87190  1.0000 0.0804405017
H   H205      1.0  0.99640  0.80030  0.40310  1.0000 0.1089627065
H   H206      1.0  0.00360  0.30030  0.09690  1.0000 0.1089627065
H   H207      1.0  0.00360  0.19970  0.59690  1.0000 0.1089627065
H   H208      1.0  0.99640  0.69970  0.90310  1.0000 0.1089627065
H   H209      1.0  0.96700  0.82720  0.36500  1.0000 0.1089627065
H   H210      1.0  0.03300  0.32720  0.13500  1.0000 0.1089627065
H   H211      1.0  0.03300  0.17280  0.63500  1.0000 0.1089627065
H   H212      1.0  0.96700  0.67280  0.86500  1.0000 0.1089627065
H   H213      1.0  0.93860  0.83670  0.40450  1.0000 0.1283202241
H   H214      1.0  0.06140  0.33670  0.09550  1.0000 0.1283202241
H   H215      1.0  0.06140  0.16330  0.59550  1.0000 0.1283202241
H   H216      1.0  0.93860  0.66330  0.90450  1.0000 0.1283202241
C   C1        1.0  0.80180  0.80780  0.61926  1.0000 0.5989965843
C   C2        1.0  0.19820  0.30780  0.88074  1.0000 0.5989965843
C   C3        1.0  0.19820  0.19220  0.38074  1.0000 0.5989965843
C   C4        1.0  0.80180  0.69220  0.11926  1.0000 0.5989965843
C   C5        1.0  0.83125  0.87998  0.62498  1.0000 -0.0218517079
C   C6        1.0  0.16875  0.37998  0.87502  1.0000 -0.0218517079
C   C7        1.0  0.16875  0.12002  0.37502  1.0000 -0.0218517079
C   C8        1.0  0.83125  0.62002  0.12498  1.0000 -0.0218517079
C   C9        1.0  0.88606  0.88789  0.62191  1.0000 -0.0894869737
C   C10       1.0  0.11394  0.38789  0.87809  1.0000 -0.0894869737
C   C11       1.0  0.11394  0.11211  0.37809  1.0000 -0.0894869737
C   C12       1.0  0.88606  0.61211  0.12191  1.0000 -0.0894869737
C   C13       1.0  0.91004  0.95390  0.63001  1.0000 -0.1699996619
C   C14       1.0  0.08996  0.45390  0.86999  1.0000 -0.1699996619
C   C15       1.0  0.08996  0.04610  0.36999  1.0000 -0.1699996619
C   C16       1.0  0.91004  0.54610  0.13001  1.0000 -0.1699996619
C   C17       1.0  0.87921  0.01191  0.64118  1.0000 0.0899166567
C   C18       1.0  0.12079  0.51191  0.85882  1.0000 0.0899166567
C   C19       1.0  0.12079  0.98809  0.35882  1.0000 0.0899166567
C   C20       1.0  0.87921  0.48809  0.14118  1.0000 0.0899166567
C   C21       1.0  0.82440  0.00400  0.64425  1.0000 -0.1440624846
C   C22       1.0  0.17560  0.50400  0.85575  1.0000 -0.1440624846
C   C23       1.0  0.17560  0.99600  0.35575  1.0000 -0.1440624846
C   C24       1.0  0.82440  0.49600  0.14425  1.0000 -0.1440624846
C   C25       1.0  0.80042  0.93800  0.63615  1.0000 -0.0894869737
C   C26       1.0  0.19958  0.43800  0.86385  1.0000 -0.0894869737
C   C27       1.0  0.19958  0.06200  0.36385  1.0000 -0.0894869737
C   C28       1.0  0.80042  0.56200  0.13615  1.0000 -0.0894869737
C   C29       1.0  0.90380  0.08200  0.65408  1.0000 -0.0031961382
C   C30       1.0  0.09620  0.58200  0.84592  1.0000 -0.0031961382
C   C31       1.0  0.09620  0.91800  0.34592  1.0000 -0.0031961382
C   C32       1.0  0.90380  0.41800  0.15408  1.0000 -0.0031961382
C   C33       1.0  0.94844  0.08022  0.67816  1.0000 -0.1995283766
C   C34       1.0  0.05156  0.58022  0.82184  1.0000 -0.1995283766
C   C35       1.0  0.05156  0.91978  0.32184  1.0000 -0.1995283766
C   C36       1.0  0.94844  0.41978  0.17816  1.0000 -0.1995283766
C   C37       1.0  0.97107  0.14420  0.69127  1.0000 0.0723229609
C   C38       1.0  0.02893  0.64420  0.80873  1.0000 0.0723229609
C   C39       1.0  0.02893  0.85580  0.30873  1.0000 0.0723229609
C   C40       1.0  0.97107  0.35580  0.19127  1.0000 0.0723229609
C   C41       1.0  0.94905  0.20995  0.68031  1.0000 -0.1995283766
C   C42       1.0  0.05095  0.70995  0.81969  1.0000 -0.1995283766
C   C43       1.0  0.05095  0.79005  0.31969  1.0000 -0.1995283766
C   C44       1.0  0.94905  0.29005  0.18031  1.0000 -0.1995283766
C   C45       1.0  0.90440  0.21173  0.65623  1.0000 -0.0031961382
C   C46       1.0  0.09560  0.71173  0.84377  1.0000 -0.0031961382
C   C47       1.0  0.09560  0.78827  0.34377  1.0000 -0.0031961382
C   C48       1.0  0.90440  0.28827  0.15623  1.0000 -0.0031961382
C   C49       1.0  0.88177  0.14776  0.64312  1.0000 0.1283202241
C   C50       1.0  0.11823  0.64776  0.85688  1.0000 0.1283202241
C   C51       1.0  0.11823  0.85224  0.35688  1.0000 0.1283202241
C   C52       1.0  0.88177  0.35224  0.14312  1.0000 0.1283202241
C   C53       1.0  0.80580  0.49180  0.63566  1.0000 0.5945508527
C   C54       1.0  0.19420  0.99180  0.86434  1.0000 0.5945508527
C   C55       1.0  0.19420  0.50820  0.36434  1.0000 0.5945508527
C   C56       1.0  0.80580  0.00820  0.13566  1.0000 0.5945508527
C   C57       1.0  0.83195  0.41716  0.63629  1.0000 -0.0218517079
C   C58       1.0  0.16805  0.91716  0.86371  1.0000 -0.0218517079
C   C59       1.0  0.16805  0.58284  0.36371  1.0000 -0.0218517079
C   C60       1.0  0.83195  0.08284  0.13629  1.0000 -0.0218517079
C   C61       1.0  0.80216  0.36030  0.65013  1.0000 -0.0972439526
C   C62       1.0  0.19784  0.86030  0.84987  1.0000 -0.0972439526
C   C63       1.0  0.19784  0.63970  0.34987  1.0000 -0.0972439526
C   C64       1.0  0.80216  0.13970  0.15013  1.0000 -0.0972439526
C   C65       1.0  0.82542  0.29284  0.65509  1.0000 -0.149694392
C   C66       1.0  0.17458  0.79284  0.84491  1.0000 -0.149694392
C   C67       1.0  0.17458  0.70716  0.34491  1.0000 -0.149694392
C   C68       1.0  0.82542  0.20716  0.15509  1.0000 -0.149694392
C   C69       1.0  0.87846  0.28221  0.64621  1.0000 0.0899166567
C   C70       1.0  0.12154  0.78221  0.85379  1.0000 0.0899166567
C   C71       1.0  0.12154  0.71779  0.35379  1.0000 0.0899166567
C   C72       1.0  0.87846  0.21779  0.14621  1.0000 0.0899166567
C   C73       1.0  0.90824  0.33910  0.63237  1.0000 -0.1616041236
C   C74       1.0  0.09176  0.83910  0.86763  1.0000 -0.1616041236
C   C75       1.0  0.09176  0.66090  0.36763  1.0000 -0.1616041236
C   C76       1.0  0.90824  0.16090  0.13237  1.0000 -0.1616041236
C   C77       1.0  0.88499  0.40653  0.62741  1.0000 -0.0894869737
C   C78       1.0  0.11501  0.90653  0.87259  1.0000 -0.0894869737
C   C79       1.0  0.11501  0.59347  0.37259  1.0000 -0.0894869737
C   C80       1.0  0.88499  0.09347  0.12741  1.0000 -0.0894869737
C   C81       1.0  0.14010  0.12860  0.80521  1.0000 0.5989965843
C   C82       1.0  0.85990  0.62860  0.69479  1.0000 0.5989965843
C   C83       1.0  0.85990  0.87140  0.19479  1.0000 0.5989965843
C   C84       1.0  0.14010  0.37140  0.30521  1.0000 0.5989965843
C   C85       1.0  0.09700  0.13372  0.77540  1.0000 -0.0295914179
C   C86       1.0  0.90300  0.63372  0.72460  1.0000 -0.0295914179
C   C87       1.0  0.90300  0.86628  0.22460  1.0000 -0.0295914179
C   C88       1.0  0.09700  0.36628  0.27540  1.0000 -0.0295914179
C   C89       1.0  0.05353  0.17878  0.78057  1.0000 -0.0894869737
C   C90       1.0  0.94647  0.67878  0.71943  1.0000 -0.0894869737
C   C91       1.0  0.94647  0.82122  0.21943  1.0000 -0.0894869737
C   C92       1.0  0.05353  0.32122  0.28057  1.0000 -0.0894869737
C   C93       1.0  0.01298  0.18265  0.75315  1.0000 -0.149694392
C   C94       1.0  0.98702  0.68265  0.74685  1.0000 -0.1616041236
C   C95       1.0  0.98702  0.81735  0.24685  1.0000 -0.149694392
C   C96       1.0  0.01298  0.31735  0.25315  1.0000 -0.149694392
C   C97       1.0  0.01588  0.14146  0.72055  1.0000 0.0804405017
C   C98       1.0  0.98412  0.64146  0.77945  1.0000 0.0804405017
C   C99       1.0  0.98412  0.85854  0.27945  1.0000 0.0804405017
C   C100      1.0  0.01588  0.35854  0.22055  1.0000 0.0804405017
C   C101      1.0  0.05934  0.09640  0.71538  1.0000 -0.1616041236
C   C102      1.0  0.94066  0.59640  0.78462  1.0000 -0.1616041236
C   C103      1.0  0.94066  0.90360  0.28462  1.0000 -0.1616041236
C   C104      1.0  0.05934  0.40360  0.21538  1.0000 -0.1616041236
C   C105      1.0  0.09990  0.09253  0.74280  1.0000 -0.0894869737
C   C106      1.0  0.90010  0.59253  0.75720  1.0000 -0.0894869737
C   C107      1.0  0.90010  0.90747  0.25720  1.0000 -0.0894869737
C   C108      1.0  0.09990  0.40747  0.24280  1.0000 -0.0894869737
C   C109      1.0  0.73880  0.66080  0.55311  1.0000 0.5989965843
C   C110      1.0  0.26120  0.16080  0.94689  1.0000 0.5989965843
C   C111      1.0  0.26120  0.33920  0.44689  1.0000 0.5989965843
C   C112      1.0  0.73880  0.83920  0.05311  1.0000 0.5989965843
C   C113      1.0  0.71749  0.63675  0.51652  1.0000 -0.0594727471
C   C114      1.0  0.28251  0.13675  0.98348  1.0000 -0.0594727471
C   C115      1.0  0.28251  0.36325  0.48348  1.0000 -0.0594727471
C   C116      1.0  0.71749  0.86325  0.01652  1.0000 -0.0594727471
C   C117      1.0  0.74880  0.60425  0.48964  1.0000 -0.0822508486
C   C118      1.0  0.25120  0.10425  0.01036  1.0000 -0.0822508486
C   C119      1.0  0.25120  0.39575  0.51036  1.0000 -0.0822508486
C   C120      1.0  0.74880  0.89575  0.98964  1.0000 -0.0822508486
C   C121      1.0  0.72649  0.58538  0.45473  1.0000 -0.1616041236
C   C122      1.0  0.27351  0.08538  0.04527  1.0000 -0.1616041236
C   C123      1.0  0.27351  0.41462  0.54527  1.0000 -0.1616041236
C   C124      1.0  0.72649  0.91462  0.95473  1.0000 -0.1616041236
C   C125      1.0  0.67288  0.59900  0.44670  1.0000 0.1006816289
C   C126      1.0  0.32712  0.09900  0.05330  1.0000 0.1006816289
C   C127      1.0  0.32712  0.40100  0.55330  1.0000 0.1006816289
C   C128      1.0  0.67288  0.90100  0.94670  1.0000 0.1006816289
C   C129      1.0  0.64158  0.63150  0.47357  1.0000 -0.1616041236
C   C130      1.0  0.35842  0.13150  0.02643  1.0000 -0.1616041236
C   C131      1.0  0.35842  0.36850  0.52643  1.0000 -0.1616041236
C   C132      1.0  0.64158  0.86850  0.97357  1.0000 -0.1616041236
C   C133      1.0  0.66388  0.65037  0.50848  1.0000 -0.0822508486
C   C134      1.0  0.33612  0.15037  0.99152  1.0000 -0.0822508486
C   C135      1.0  0.33612  0.34963  0.49152  1.0000 -0.0822508486
C   C136      1.0  0.66388  0.84963  0.00848  1.0000 -0.0822508486
C   C137      1.0  0.59940  0.54601  0.40577  1.0000 -0.1995283766
C   C138      1.0  0.40060  0.04601  0.09423  1.0000 -0.1995283766
C   C139      1.0  0.40060  0.45399  0.59423  1.0000 -0.1995283766
C   C140      1.0  0.59940  0.95399  0.90577  1.0000 -0.1995283766
C   C141      1.0  0.64731  0.58350  0.40884  1.0000 -0.0116946912
C   C142      1.0  0.35269  0.08350  0.09116  1.0000 -0.0116946912
C   C143      1.0  0.35269  0.41650  0.59116  1.0000 -0.0116946912
C   C144      1.0  0.64731  0.91650  0.90884  1.0000 -0.0116946912
C   C145      1.0  0.66902  0.61436  0.37705  1.0000 0.1369669931
C   C146      1.0  0.33098  0.11436  0.12295  1.0000 0.1369669931
C   C147      1.0  0.33098  0.38564  0.62295  1.0000 0.1369669931
C   C148      1.0  0.66902  0.88564  0.87705  1.0000 0.1369669931
C   C149      1.0  0.64282  0.60775  0.34219  1.0000 -0.0218517079
C   C150      1.0  0.35718  0.10775  0.15781  1.0000 -0.0218517079
C   C151      1.0  0.35718  0.39225  0.65781  1.0000 -0.0218517079
C   C152      1.0  0.64282  0.89225  0.84219  1.0000 -0.0218517079
C   C153      1.0  0.59492  0.57030  0.33912  1.0000 -0.1995283766
C   C154      1.0  0.40508  0.07030  0.16088  1.0000 -0.1995283766
C   C155      1.0  0.40508  0.42970  0.66088  1.0000 -0.1995283766
C   C156      1.0  0.59492  0.92970  0.83912  1.0000 -0.1995283766
C   C157      1.0  0.57320  0.53940  0.37091  1.0000 0.0723229609
C   C158      1.0  0.42680  0.03940  0.12909  1.0000 0.0723229609
C   C159      1.0  0.42680  0.46060  0.62909  1.0000 0.0723229609
C   C160      1.0  0.57320  0.96060  0.87091  1.0000 0.0723229609
C   C161      1.0  0.69870  0.77340  0.21143  1.0000 0.5989965843
C   C162      1.0  0.30130  0.27340  0.28857  1.0000 0.5989965843
C   C163      1.0  0.30130  0.22660  0.78857  1.0000 0.5989965843
C   C164      1.0  0.69870  0.72660  0.71143  1.0000 0.5989965843
C   C165      1.0  0.68748  0.73000  0.24502  1.0000 -0.0509196185
C   C166      1.0  0.31252  0.23000  0.25498  1.0000 -0.0509196185
C   C167      1.0  0.31252  0.27000  0.75498  1.0000 -0.0509196185
C   C168      1.0  0.68748  0.77000  0.74502  1.0000 -0.0509196185
C   C169      1.0  0.69134  0.76087  0.28068  1.0000 -0.0822508486
C   C170      1.0  0.30866  0.26087  0.21932  1.0000 -0.0822508486
C   C171      1.0  0.30866  0.23913  0.71932  1.0000 -0.0822508486
C   C172      1.0  0.69134  0.73913  0.78068  1.0000 -0.0822508486
C   C173      1.0  0.67822  0.72080  0.31217  1.0000 -0.1616041236
C   C174      1.0  0.32178  0.22080  0.18783  1.0000 -0.1616041236
C   C175      1.0  0.32178  0.27920  0.68783  1.0000 -0.1616041236
C   C176      1.0  0.67822  0.77920  0.81217  1.0000 -0.1616041236
C   C177      1.0  0.66123  0.64980  0.30801  1.0000 0.0899166567
C   C178      1.0  0.33877  0.14980  0.19199  1.0000 0.0899166567
C   C179      1.0  0.33877  0.35020  0.69199  1.0000 0.0899166567
C   C180      1.0  0.66123  0.85020  0.80801  1.0000 0.0899166567
C   C181      1.0  0.65736  0.61896  0.27235  1.0000 -0.1616041236
C   C182      1.0  0.34264  0.11896  0.22765  1.0000 -0.1616041236
C   C183      1.0  0.34264  0.38104  0.72765  1.0000 -0.1616041236
C   C184      1.0  0.65736  0.88104  0.77235  1.0000 -0.1616041236
C   C185      1.0  0.67049  0.65910  0.24085  1.0000 -0.0894869737
C   C186      1.0  0.32951  0.15910  0.25915  1.0000 -0.0894869737
C   C187      1.0  0.32951  0.34090  0.75915  1.0000 -0.0894869737
C   C188      1.0  0.67049  0.84090  0.74085  1.0000 -0.0894869737
C   C189      1.0  0.36760  0.40260  0.35723  1.0000 0.5989965843
C   C190      1.0  0.63240  0.90260  0.14277  1.0000 0.5989965843
C   C191      1.0  0.63240  0.59740  0.64277  1.0000 0.5989965843
C   C192      1.0  0.36760  0.09740  0.85723  1.0000 0.5989965843
C   C193      1.0  0.42022  0.43740  0.36097  1.0000 -0.0509196185
C   C194      1.0  0.57978  0.93740  0.13903  1.0000 -0.0509196185
C   C195      1.0  0.57978  0.56260  0.63903  1.0000 -0.0509196185
C   C196      1.0  0.42022  0.06260  0.86097  1.0000 -0.0509196185
C   C197      1.0  0.43079  0.49970  0.34079  1.0000 -0.0822508486
C   C198      1.0  0.56921  0.99970  0.15921  1.0000 -0.0822508486
C   C199      1.0  0.56921  0.50030  0.65921  1.0000 -0.0822508486
C   C200      1.0  0.43079  0.00030  0.84079  1.0000 -0.0822508486
C   C201      1.0  0.48068  0.53210  0.34411  1.0000 -0.1616041236
C   C202      1.0  0.51932  0.03210  0.15589  1.0000 -0.1616041236
C   C203      1.0  0.51932  0.46790  0.65589  1.0000 -0.1616041236
C   C204      1.0  0.48068  0.96790  0.84411  1.0000 -0.1616041236
C   C205      1.0  0.52000  0.50210  0.36760  1.0000 0.0899166567
C   C206      1.0  0.48000  0.00210  0.13240  1.0000 0.0899166567
C   C207      1.0  0.48000  0.49790  0.63240  1.0000 0.0899166567
C   C208      1.0  0.52000  0.99790  0.86760  1.0000 0.0899166567
C   C209      1.0  0.50943  0.43970  0.38778  1.0000 -0.1616041236
C   C210      1.0  0.49057  0.93970  0.11222  1.0000 -0.1616041236
C   C211      1.0  0.49057  0.56030  0.61222  1.0000 -0.1616041236
C   C212      1.0  0.50943  0.06030  0.88778  1.0000 -0.1616041236
C   C213      1.0  0.45954  0.40737  0.38447  1.0000 -0.0822508486
C   C214      1.0  0.54046  0.90737  0.11553  1.0000 -0.0822508486
C   C215      1.0  0.54046  0.59263  0.61553  1.0000 -0.0822508486
C   C216      1.0  0.45954  0.09263  0.88447  1.0000 -0.0822508486
C   C217      1.0  0.87310  0.15220  0.57150  1.0000 -0.1270981236
C   C218      1.0  0.12690  0.65220  0.92850  1.0000 -0.1270981236
C   C219      1.0  0.12690  0.84780  0.42850  1.0000 -0.1270981236
C   C220      1.0  0.87310  0.34780  0.07150  1.0000 -0.1270981236
C   C221      1.0  0.82510  0.19050  0.55400  1.0000 -0.149694392
C   C222      1.0  0.17490  0.69050  0.94600  1.0000 -0.149694392
C   C223      1.0  0.17490  0.80950  0.44600  1.0000 -0.149694392
C   C224      1.0  0.82510  0.30950  0.05400  1.0000 -0.149694392
C   C225      1.0  0.77630  0.14450  0.55630  1.0000 -0.1699996619
C   C226      1.0  0.22370  0.64450  0.94370  1.0000 -0.1699996619
C   C227      1.0  0.22370  0.85550  0.44370  1.0000 -0.1699996619
C   C228      1.0  0.77630  0.35550  0.05630  1.0000 -0.1699996619
C   C229      1.0  0.76900  0.10400  0.51930  1.0000 -0.1795626907
C   C230      1.0  0.23100  0.60400  0.98070  1.0000 -0.1795626907
C   C231      1.0  0.23100  0.89600  0.48070  1.0000 -0.1795626907
C   C232      1.0  0.76900  0.39600  0.01930  1.0000 -0.1795626907
C   C233      1.0  0.75180  0.15420  0.48610  1.0000 -0.1616041236
C   C234      1.0  0.24820  0.65420  0.01390  1.0000 -0.1616041236
C   C235      1.0  0.24820  0.84580  0.51390  1.0000 -0.1616041236
C   C236      1.0  0.75180  0.34580  0.98610  1.0000 -0.1616041236
C   C237      1.0  0.77260  0.12990  0.44830  1.0000 -0.3496000571
C   C238      1.0  0.22740  0.62990  0.05170  1.0000 -0.3496000571
C   C239      1.0  0.22740  0.87010  0.55170  1.0000 -0.3496000571
C   C240      1.0  0.77260  0.37010  0.94830  1.0000 -0.3496000571
C   C241      1.0  0.77000  0.61270  0.35620  1.0000 -0.0295914179
C   C242      1.0  0.23000  0.11270  0.14380  1.0000 -0.0295914179
C   C243      1.0  0.23000  0.38730  0.64380  1.0000 -0.0295914179
C   C244      1.0  0.77000  0.88730  0.85620  1.0000 -0.0295914179
C   C245      1.0  0.82250  0.62110  0.37520  1.0000 -0.2112877546
C   C246      1.0  0.17750  0.12110  0.12480  1.0000 -0.2112877546
C   C247      1.0  0.17750  0.37890  0.62480  1.0000 -0.2112877546
C   C248      1.0  0.82250  0.87890  0.87520  1.0000 -0.2112877546
C   C249      1.0  0.83570  0.69740  0.38410  1.0000 -0.1616041236
C   C250      1.0  0.16430  0.19740  0.11590  1.0000 -0.1616041236
C   C251      1.0  0.16430  0.30260  0.61590  1.0000 -0.1616041236
C   C252      1.0  0.83570  0.80260  0.88410  1.0000 -0.1616041236
C   C253      1.0  0.88370  0.72760  0.36430  1.0000 -0.1795626907
C   C254      1.0  0.11630  0.22760  0.13570  1.0000 -0.1795626907
C   C255      1.0  0.11630  0.27240  0.63570  1.0000 -0.1795626907
C   C256      1.0  0.88370  0.77240  0.86430  1.0000 -0.1795626907
C   C257      1.0  0.93650  0.73320  0.38500  1.0000 -0.1178246895
C   C258      1.0  0.06350  0.23320  0.11500  1.0000 -0.1178246895
C   C259      1.0  0.06350  0.26680  0.61500  1.0000 -0.1178246895
C   C260      1.0  0.93650  0.76680  0.88500  1.0000 -0.1178246895
C   C261      1.0  0.96180  0.80550  0.38980  1.0000 -0.3960986389
C   C262      1.0  0.03820  0.30550  0.11020  1.0000 -0.3960986389
C   C263      1.0  0.03820  0.19450  0.61020  1.0000 -0.3960986389
C   C264      1.0  0.96180  0.69450  0.88980  1.0000 -0.3960986389
O   O1        1.0  0.83188  0.75611  0.60894  1.0000 -0.5596588021
O   O2        1.0  0.16812  0.25611  0.89106  1.0000 -0.5596588021
O   O3        1.0  0.16812  0.24389  0.39106  1.0000 -0.5596588021
O   O4        1.0  0.83188  0.74389  0.10894  1.0000 -0.5596588021
O   O5        1.0  0.75335  0.80542  0.62581  1.0000 -0.5230711056
O   O6        1.0  0.24665  0.30542  0.87419  1.0000 -0.5230711056
O   O7        1.0  0.24665  0.19458  0.37419  1.0000 -0.5230711056
O   O8        1.0  0.75335  0.69458  0.12581  1.0000 -0.5329091979
O   O9        1.0  0.18161  0.09309  0.79657  1.0000 -0.5596588021
O   O10       1.0  0.81839  0.59309  0.70343  1.0000 -0.5596588021
O   O11       1.0  0.81839  0.90691  0.20343  1.0000 -0.5596588021
O   O12       1.0  0.18161  0.40691  0.29657  1.0000 -0.5596588021
O   O13       1.0  0.13303  0.15750  0.83602  1.0000 -0.5230711056
O   O14       1.0  0.86697  0.65750  0.66398  1.0000 -0.5230711056
O   O15       1.0  0.86697  0.84250  0.16398  1.0000 -0.5230711056
O   O16       1.0  0.13303  0.34250  0.33602  1.0000 -0.5230711056
O   O17       1.0  0.83257  0.54017  0.61880  1.0000 -0.5596588021
O   O18       1.0  0.16743  0.04017  0.88120  1.0000 -0.5596588021
O   O19       1.0  0.16743  0.45983  0.38120  1.0000 -0.5596588021
O   O20       1.0  0.83257  0.95983  0.11880  1.0000 -0.5596588021
O   O21       1.0  0.76213  0.50043  0.65165  1.0000 -0.5375442012
O   O22       1.0  0.23787  0.00043  0.84835  1.0000 -0.5375442012
O   O23       1.0  0.23787  0.49957  0.34835  1.0000 -0.5375442012
O   O24       1.0  0.76213  0.99957  0.15165  1.0000 -0.5375442012
O   O25       1.0  0.83905  0.15050  0.61286  1.0000 -0.2345658494
O   O26       1.0  0.16095  0.65050  0.88714  1.0000 -0.2345658494
O   O27       1.0  0.16095  0.84950  0.38714  1.0000 -0.2345658494
O   O28       1.0  0.83905  0.34950  0.11286  1.0000 -0.2345658494
O   O29       1.0  0.78466  0.63579  0.56390  1.0000 -0.5596588021
O   O30       1.0  0.21534  0.13579  0.93610  1.0000 -0.5596588021
O   O31       1.0  0.21534  0.36421  0.43610  1.0000 -0.5596588021
O   O32       1.0  0.78466  0.86421  0.06390  1.0000 -0.5596588021
O   O33       1.0  0.71226  0.70344  0.57164  1.0000 -0.5230711056
O   O34       1.0  0.28774  0.20344  0.92836  1.0000 -0.5230711056
O   O35       1.0  0.28774  0.29656  0.42836  1.0000 -0.5230711056
O   O36       1.0  0.71226  0.79656  0.07164  1.0000 -0.5230711056
O   O37       1.0  0.35869  0.34601  0.37488  1.0000 -0.5329091979
O   O38       1.0  0.64131  0.84601  0.12512  1.0000 -0.5329091979
O   O39       1.0  0.64131  0.65399  0.62512  1.0000 -0.5329091979
O   O40       1.0  0.35869  0.15399  0.87488  1.0000 -0.5329091979
O   O41       1.0  0.33333  0.43095  0.33435  1.0000 -0.5503727946
O   O42       1.0  0.66667  0.93095  0.16565  1.0000 -0.5503727946
O   O43       1.0  0.66667  0.56905  0.66565  1.0000 -0.5503727946
O   O44       1.0  0.33333  0.06905  0.83435  1.0000 -0.5503727946
O   O45       1.0  0.68656  0.74874  0.17868  1.0000 -0.5503727946
O   O46       1.0  0.31344  0.24874  0.32132  1.0000 -0.5503727946
O   O47       1.0  0.31344  0.25126  0.82132  1.0000 -0.5503727946
O   O48       1.0  0.68656  0.75126  0.67868  1.0000 -0.5503727946
O   O49       1.0  0.72174  0.83383  0.21723  1.0000 -0.5503727946
O   O50       1.0  0.27826  0.33383  0.28277  1.0000 -0.5503727946
O   O51       1.0  0.27826  0.16617  0.78277  1.0000 -0.5503727946
O   O52       1.0  0.72174  0.66617  0.71723  1.0000 -0.5503727946
O   O53       1.0  0.72580  0.64130  0.37716  1.0000 -0.2486138
O   O54       1.0  0.27420  0.14130  0.12284  1.0000 -0.2486138
O   O55       1.0  0.27420  0.35870  0.62284  1.0000 -0.2486138
O   O56       1.0  0.72580  0.85870  0.87716  1.0000 -0.2486138
O   O57       1.0  0.75643  0.65437  0.64099  1.0000 -0.9014551891
O   O58       1.0  0.24357  0.15437  0.85901  1.0000 -0.9014551891
O   O59       1.0  0.24357  0.34563  0.35901  1.0000 -0.9014551891
O   O60       1.0  0.75643  0.84563  0.14099  1.0000 -0.9014551891
