# DDEC6 charges by PACMAN v1.1 (https://github.com/mtap-research/PACMAN-charge/)
data_2014[Fe][acs]3[ASR]1
_chemical_formula_sum              "Fe6 H36 C84 S6 O38"
_cell_length_a       12.3081
_cell_length_b       12.3081
_cell_length_c       27.375
_cell_angle_alpha    90
_cell_angle_beta     90
_cell_angle_gamma    120

_symmetry_space_group_name_H-M    "P 1"
_symmetry_Int_Tables_number       1

loop_
  _symmetry_equiv_pos_as_xyz
  'x, y, z'

loop_
  _atom_site_type_symbol
  _atom_site_label
  _atom_site_symmetry_multiplicity
  _atom_site_fract_x
  _atom_site_fract_y
  _atom_site_fract_z
  _atom_site_occupancy
  _atom_site_charge
Fe  Fe1       1.0  0.24320  0.48641  0.25000  1.0000 1.2226493234
Fe  Fe2       1.0  0.75679  0.24321  0.75000  1.0000 1.2226493234
Fe  Fe3       1.0  0.51359  0.75679  0.25000  1.0000 1.2226493234
Fe  Fe4       1.0  0.75679  0.51359  0.75000  1.0000 1.2226493234
Fe  Fe5       1.0  0.24320  0.75679  0.25000  1.0000 1.2226493234
Fe  Fe6       1.0  0.48641  0.24321  0.75000  1.0000 1.2226493234
H   H1        1.0  0.06860  0.38500  0.10590  1.0000 0.1365073199
H   H2        1.0  0.68360  0.06860  0.60590  1.0000 0.1365073199
H   H3        1.0  0.61500  0.68360  0.10590  1.0000 0.1365073199
H   H4        1.0  0.93140  0.61500  0.60590  1.0000 0.1365073199
H   H5        1.0  0.31640  0.93140  0.10590  1.0000 0.1365073199
H   H6        1.0  0.38500  0.31640  0.60590  1.0000 0.1365073199
H   H7        1.0  0.68360  0.61500  0.89410  1.0000 0.1365073199
H   H8        1.0  0.93140  0.31640  0.89410  1.0000 0.1365073199
H   H9        1.0  0.38500  0.06860  0.89410  1.0000 0.1365073199
H   H10       1.0  0.61500  0.93140  0.39410  1.0000 0.1365073199
H   H11       1.0  0.31640  0.38500  0.39410  1.0000 0.1365073199
H   H12       1.0  0.06860  0.68360  0.39410  1.0000 0.1365073199
H   H13       1.0  0.02530  0.71780  0.04360  1.0000 0.1310598242
H   H14       1.0  0.30750  0.02530  0.54360  1.0000 0.1310598242
H   H15       1.0  0.28220  0.30750  0.04360  1.0000 0.1310598242
H   H16       1.0  0.97470  0.28220  0.54360  1.0000 0.1310598242
H   H17       1.0  0.69250  0.97470  0.04360  1.0000 0.1310598242
H   H18       1.0  0.71780  0.69250  0.54360  1.0000 0.1310598242
H   H19       1.0  0.30750  0.28220  0.95640  1.0000 0.1310598242
H   H20       1.0  0.97470  0.69250  0.95640  1.0000 0.1310598242
H   H21       1.0  0.71780  0.02530  0.95640  1.0000 0.1310598242
H   H22       1.0  0.28220  0.97470  0.45640  1.0000 0.1310598242
H   H23       1.0  0.69250  0.71780  0.45640  1.0000 0.1310598242
H   H24       1.0  0.02530  0.30750  0.45640  1.0000 0.1310598242
H   H25       1.0  0.06630  0.71040  0.12650  1.0000 0.1310598242
H   H26       1.0  0.35590  0.06630  0.62650  1.0000 0.1310598242
H   H27       1.0  0.28960  0.35590  0.12650  1.0000 0.1310598242
H   H28       1.0  0.93370  0.28960  0.62650  1.0000 0.1310598242
H   H29       1.0  0.64410  0.93370  0.12650  1.0000 0.1310598242
H   H30       1.0  0.71040  0.64410  0.62650  1.0000 0.1310598242
H   H31       1.0  0.35590  0.28960  0.87350  1.0000 0.1310598242
H   H32       1.0  0.93370  0.64410  0.87350  1.0000 0.1310598242
H   H33       1.0  0.71040  0.06630  0.87350  1.0000 0.1310598242
H   H34       1.0  0.28960  0.93370  0.37350  1.0000 0.1310598242
H   H35       1.0  0.64410  0.71040  0.37350  1.0000 0.1310598242
H   H36       1.0  0.06630  0.35590  0.37350  1.0000 0.1310598242
C   C1        1.0  0.11190  0.55020  0.17649  1.0000 0.6061372633
C   C2        1.0  0.56170  0.11190  0.67649  1.0000 0.6061372633
C   C3        1.0  0.44980  0.56170  0.17649  1.0000 0.6061372633
C   C4        1.0  0.88810  0.44980  0.67649  1.0000 0.6061372633
C   C5        1.0  0.43830  0.88810  0.17649  1.0000 0.6061372633
C   C6        1.0  0.55020  0.43830  0.67649  1.0000 0.6061372633
C   C7        1.0  0.56170  0.44980  0.82351  1.0000 0.6061372633
C   C8        1.0  0.88810  0.43830  0.82351  1.0000 0.6061372633
C   C9        1.0  0.55020  0.11190  0.82351  1.0000 0.6061372633
C   C10       1.0  0.44980  0.88810  0.32351  1.0000 0.6061372633
C   C11       1.0  0.43830  0.55020  0.32351  1.0000 0.6061372633
C   C12       1.0  0.11190  0.56170  0.32351  1.0000 0.6061372633
C   C13       1.0  0.07650  0.54710  0.12376  1.0000 -0.0197584375
C   C14       1.0  0.52940  0.07650  0.62376  1.0000 -0.0197584375
C   C15       1.0  0.45290  0.52940  0.12376  1.0000 -0.0197584375
C   C16       1.0  0.92350  0.45290  0.62376  1.0000 -0.0197584375
C   C17       1.0  0.47060  0.92350  0.12376  1.0000 -0.0197584375
C   C18       1.0  0.54710  0.47060  0.62376  1.0000 -0.0197584375
C   C19       1.0  0.52940  0.45290  0.87624  1.0000 -0.0197584375
C   C20       1.0  0.92350  0.47060  0.87624  1.0000 -0.0197584375
C   C21       1.0  0.54710  0.07650  0.87624  1.0000 -0.0197584375
C   C22       1.0  0.45290  0.92350  0.37624  1.0000 -0.0197584375
C   C23       1.0  0.47060  0.54710  0.37624  1.0000 -0.0197584375
C   C24       1.0  0.07650  0.52940  0.37624  1.0000 -0.0197584375
C   C25       1.0  0.05950  0.45240  0.09387  1.0000 -0.1072819506
C   C26       1.0  0.60710  0.05950  0.59387  1.0000 -0.1072819506
C   C27       1.0  0.54760  0.60710  0.09387  1.0000 -0.1072819506
C   C28       1.0  0.94050  0.54760  0.59387  1.0000 -0.1072819506
C   C29       1.0  0.39290  0.94050  0.09387  1.0000 -0.1072819506
C   C30       1.0  0.45240  0.39290  0.59387  1.0000 -0.1072819506
C   C31       1.0  0.60710  0.54760  0.90613  1.0000 -0.1072819506
C   C32       1.0  0.94050  0.39290  0.90613  1.0000 -0.1072819506
C   C33       1.0  0.45240  0.05950  0.90613  1.0000 -0.1072819506
C   C34       1.0  0.54760  0.94050  0.40613  1.0000 -0.1072819506
C   C35       1.0  0.39290  0.45240  0.40613  1.0000 -0.1072819506
C   C36       1.0  0.05950  0.60710  0.40613  1.0000 -0.1072819506
C   C37       1.0  0.02850  0.45540  0.04502  1.0000 -0.1008801205
C   C38       1.0  0.57310  0.02850  0.54502  1.0000 -0.1008801205
C   C39       1.0  0.54460  0.57310  0.04502  1.0000 -0.1008801205
C   C40       1.0  0.97150  0.54460  0.54502  1.0000 -0.1008801205
C   C41       1.0  0.42690  0.97150  0.04502  1.0000 -0.1008801205
C   C42       1.0  0.45540  0.42690  0.54502  1.0000 -0.1008801205
C   C43       1.0  0.57310  0.54460  0.95498  1.0000 -0.1008801205
C   C44       1.0  0.97150  0.42690  0.95498  1.0000 -0.1008801205
C   C45       1.0  0.45540  0.02850  0.95498  1.0000 -0.1008801205
C   C46       1.0  0.54460  0.97150  0.45498  1.0000 -0.1008801205
C   C47       1.0  0.42690  0.45540  0.45498  1.0000 -0.1008801205
C   C48       1.0  0.02850  0.57310  0.45498  1.0000 -0.1008801205
C   C49       1.0  0.01630  0.55250  0.02651  1.0000 0.0576129134
C   C50       1.0  0.46380  0.01630  0.52651  1.0000 0.0576129134
C   C51       1.0  0.44750  0.46380  0.02651  1.0000 0.0576129134
C   C52       1.0  0.98370  0.44750  0.52651  1.0000 0.0576129134
C   C53       1.0  0.53620  0.98370  0.02651  1.0000 0.0576129134
C   C54       1.0  0.55250  0.53620  0.52651  1.0000 0.0576129134
C   C55       1.0  0.46380  0.44750  0.97349  1.0000 0.0576129134
C   C56       1.0  0.98370  0.53620  0.97349  1.0000 0.0576129134
C   C57       1.0  0.55250  0.01630  0.97349  1.0000 0.0576129134
C   C58       1.0  0.44750  0.98370  0.47349  1.0000 0.0576129134
C   C59       1.0  0.53620  0.55250  0.47349  1.0000 0.0576129134
C   C60       1.0  0.01630  0.46380  0.47349  1.0000 0.0576129134
C   C61       1.0  0.03240  0.64980  0.05631  1.0000 -0.1008801205
C   C62       1.0  0.38260  0.03240  0.55631  1.0000 -0.1008801205
C   C63       1.0  0.35020  0.38260  0.05631  1.0000 -0.1008801205
C   C64       1.0  0.96760  0.35020  0.55631  1.0000 -0.1008801205
C   C65       1.0  0.61740  0.96760  0.05631  1.0000 -0.1008801205
C   C66       1.0  0.64980  0.61740  0.55631  1.0000 -0.1008801205
C   C67       1.0  0.38260  0.35020  0.94369  1.0000 -0.1008801205
C   C68       1.0  0.96760  0.61740  0.94369  1.0000 -0.1008801205
C   C69       1.0  0.64980  0.03240  0.94369  1.0000 -0.1008801205
C   C70       1.0  0.35020  0.96760  0.44369  1.0000 -0.1008801205
C   C71       1.0  0.61740  0.64980  0.44369  1.0000 -0.1008801205
C   C72       1.0  0.03240  0.38260  0.44369  1.0000 -0.1008801205
C   C73       1.0  0.05920  0.64640  0.10508  1.0000 -0.0857859229
C   C74       1.0  0.41280  0.05920  0.60508  1.0000 -0.0857859229
C   C75       1.0  0.35360  0.41280  0.10508  1.0000 -0.0857859229
C   C76       1.0  0.94080  0.35360  0.60508  1.0000 -0.0857859229
C   C77       1.0  0.58720  0.94080  0.10508  1.0000 -0.0857859229
C   C78       1.0  0.64640  0.58720  0.60508  1.0000 -0.0857859229
C   C79       1.0  0.41280  0.35360  0.89492  1.0000 -0.0857859229
C   C80       1.0  0.94080  0.58720  0.89492  1.0000 -0.0857859229
C   C81       1.0  0.64640  0.05920  0.89492  1.0000 -0.0857859229
C   C82       1.0  0.35360  0.94080  0.39492  1.0000 -0.0857859229
C   C83       1.0  0.58720  0.64640  0.39492  1.0000 -0.0857859229
C   C84       1.0  0.05920  0.41280  0.39492  1.0000 -0.0857859229
S   S1        1.0  0.00000  0.34079  0.00000  1.0000 0.9834648644
S   S2        1.0  0.65921  0.00000  0.50000  1.0000 0.9834648644
S   S3        1.0  0.65921  0.65921  0.00000  1.0000 0.9834648644
S   S4        1.0  0.00000  0.65921  0.50000  1.0000 0.9834648644
S   S5        1.0  0.34079  0.00000  0.00000  1.0000 0.9834648644
S   S6        1.0  0.34079  0.34079  0.50000  1.0000 0.9834648644
O   O1        1.0  0.14580  0.47590  0.18871  1.0000 -0.5184114848
O   O2        1.0  0.66990  0.14580  0.68871  1.0000 -0.5184114848
O   O3        1.0  0.52410  0.66990  0.18871  1.0000 -0.5184114848
O   O4        1.0  0.85420  0.52410  0.68871  1.0000 -0.5184114848
O   O5        1.0  0.33010  0.85420  0.18871  1.0000 -0.5184114848
O   O6        1.0  0.47590  0.33010  0.68871  1.0000 -0.5184114848
O   O7        1.0  0.66990  0.52410  0.81129  1.0000 -0.5184114848
O   O8        1.0  0.85420  0.33010  0.81129  1.0000 -0.5184114848
O   O9        1.0  0.47590  0.14580  0.81129  1.0000 -0.5184114848
O   O10       1.0  0.52410  0.85420  0.31129  1.0000 -0.5184114848
O   O11       1.0  0.33010  0.47590  0.31129  1.0000 -0.5184114848
O   O12       1.0  0.14580  0.66990  0.31129  1.0000 -0.5184114848
O   O13       1.0  0.11240  0.63670  0.20308  1.0000 -0.5697079177
O   O14       1.0  0.47570  0.11240  0.70308  1.0000 -0.5697079177
O   O15       1.0  0.36330  0.47570  0.20308  1.0000 -0.5697079177
O   O16       1.0  0.88760  0.36330  0.70308  1.0000 -0.5697079177
O   O17       1.0  0.52430  0.88760  0.20308  1.0000 -0.5697079177
O   O18       1.0  0.63670  0.52430  0.70308  1.0000 -0.5697079177
O   O19       1.0  0.47570  0.36330  0.79692  1.0000 -0.5697079177
O   O20       1.0  0.88760  0.52430  0.79692  1.0000 -0.5697079177
O   O21       1.0  0.63670  0.11240  0.79692  1.0000 -0.5697079177
O   O22       1.0  0.36330  0.88760  0.29692  1.0000 -0.5697079177
O   O23       1.0  0.52430  0.63670  0.29692  1.0000 -0.5697079177
O   O24       1.0  0.11240  0.47570  0.29692  1.0000 -0.5697079177
O   O25       1.0  0.11480  0.33910  0.98871  1.0000 -0.5113754695
O   O26       1.0  0.77570  0.11480  0.48871  1.0000 -0.5113754695
O   O27       1.0  0.66090  0.77570  0.98871  1.0000 -0.5113754695
O   O28       1.0  0.88520  0.66090  0.48871  1.0000 -0.5113754695
O   O29       1.0  0.22430  0.88520  0.98871  1.0000 -0.5113754695
O   O30       1.0  0.33910  0.22430  0.48871  1.0000 -0.5113754695
O   O31       1.0  0.77570  0.66090  0.01129  1.0000 -0.5113754695
O   O32       1.0  0.88520  0.22430  0.01129  1.0000 -0.5113754695
O   O33       1.0  0.33910  0.11480  0.01129  1.0000 -0.5113754695
O   O34       1.0  0.66090  0.88520  0.51129  1.0000 -0.5113754695
O   O35       1.0  0.22430  0.33910  0.51129  1.0000 -0.5113754695
O   O36       1.0  0.11480  0.77570  0.51129  1.0000 -0.5113754695
O   O37       1.0  0.33333  0.66667  0.25000  1.0000 -0.9081168895
O   O38       1.0  0.66667  0.33333  0.75000  1.0000 -0.9081168895
