# DDEC6 charges by PACMAN v1.1 (https://github.com/mtap-research/PACMAN-charge/)
data_2014[Cd][nan]3[ASR]13
_chemical_formula_sum              "Cd4 H52 C76 N8 O16"
_cell_length_a       16.2673
_cell_length_b       7.28
_cell_length_c       16.2873
_cell_angle_alpha    90
_cell_angle_beta     106.001
_cell_angle_gamma    90

_symmetry_space_group_name_H-M    "P 1"
_symmetry_Int_Tables_number       1

loop_
  _symmetry_equiv_pos_as_xyz
  'x, y, z'

loop_
  _atom_site_type_symbol
  _atom_site_label
  _atom_site_symmetry_multiplicity
  _atom_site_fract_x
  _atom_site_fract_y
  _atom_site_fract_z
  _atom_site_occupancy
  _atom_site_charge
Cd  Cd1       1.0  0.78123  0.27410  0.57706  1.0000 0.801584529
Cd  Cd2       1.0  0.21877  0.77410  0.92294  1.0000 0.801584529
Cd  Cd3       1.0  0.21877  0.72590  0.42294  1.0000 0.801584529
Cd  Cd4       1.0  0.78123  0.22590  0.07706  1.0000 0.801584529
H   H1        1.0  0.67320  0.92580  0.31690  1.0000 0.1109118617
H   H2        1.0  0.32680  0.42580  0.18310  1.0000 0.1109118617
H   H3        1.0  0.32680  0.07420  0.68310  1.0000 0.1109118617
H   H4        1.0  0.67320  0.57420  0.81690  1.0000 0.1109118617
H   H5        1.0  0.67060  0.67580  0.22920  1.0000 0.1109118617
H   H6        1.0  0.32940  0.17580  0.27080  1.0000 0.1109118617
H   H7        1.0  0.32940  0.32420  0.77080  1.0000 0.1109118617
H   H8        1.0  0.67060  0.82420  0.72920  1.0000 0.1109118617
H   H9        1.0  0.91910  0.82640  0.43410  1.0000 0.12234866
H   H10       1.0  0.08090  0.32640  0.06590  1.0000 0.12234866
H   H11       1.0  0.08090  0.17360  0.56590  1.0000 0.12234866
H   H12       1.0  0.91910  0.67360  0.93410  1.0000 0.12234866
H   H13       1.0  0.90050  0.27970  0.34720  1.0000 0.12234866
H   H14       1.0  0.09950  0.77970  0.15280  1.0000 0.12234866
H   H15       1.0  0.09950  0.72030  0.65280  1.0000 0.12234866
H   H16       1.0  0.90050  0.22030  0.84720  1.0000 0.12234866
H   H17       1.0  0.02970  0.12740  0.36910  1.0000 0.1410479082
H   H18       1.0  0.97030  0.62740  0.13090  1.0000 0.1410479082
H   H19       1.0  0.97030  0.87260  0.63090  1.0000 0.1410479082
H   H20       1.0  0.02970  0.37260  0.86910  1.0000 0.1410479082
H   H21       1.0  0.15400  0.29230  0.39420  1.0000 0.1019521153
H   H22       1.0  0.84600  0.79230  0.10580  1.0000 0.1019521153
H   H23       1.0  0.84600  0.70770  0.60580  1.0000 0.1019521153
H   H24       1.0  0.15400  0.20770  0.89420  1.0000 0.1019521153
H   H25       1.0  0.02720  0.75240  0.36690  1.0000 0.1109118617
H   H26       1.0  0.97280  0.25240  0.13310  1.0000 0.1109118617
H   H27       1.0  0.97280  0.24760  0.63310  1.0000 0.1109118617
H   H28       1.0  0.02720  0.74760  0.86690  1.0000 0.1109118617
H   H29       1.0  0.69600  0.57520  0.44300  1.0000 0.1109118617
H   H30       1.0  0.30400  0.07520  0.05700  1.0000 0.1109118617
H   H31       1.0  0.30400  0.42480  0.55700  1.0000 0.1109118617
H   H32       1.0  0.69600  0.92480  0.94300  1.0000 0.1109118617
H   H33       1.0  0.59400  0.79720  0.41060  1.0000 0.1410479082
H   H34       1.0  0.40600  0.29720  0.08940  1.0000 0.1410479082
H   H35       1.0  0.40600  0.20280  0.58940  1.0000 0.1410479082
H   H36       1.0  0.59400  0.70280  0.91060  1.0000 0.1410479082
H   H37       1.0  0.52700  0.66190  0.62000  1.0000 0.1410479082
H   H38       1.0  0.47300  0.16190  0.88000  1.0000 0.1410479082
H   H39       1.0  0.47300  0.33810  0.38000  1.0000 0.1410479082
H   H40       1.0  0.52700  0.83810  0.12000  1.0000 0.1410479082
H   H41       1.0  0.63090  0.44170  0.64720  1.0000 0.1109118617
H   H42       1.0  0.36910  0.94170  0.85280  1.0000 0.1109118617
H   H43       1.0  0.36910  0.55830  0.35280  1.0000 0.1109118617
H   H44       1.0  0.63090  0.05830  0.14720  1.0000 0.1109118617
H   H45       1.0  0.44760  0.89590  0.43200  1.0000 0.12234866
H   H46       1.0  0.55240  0.39590  0.06800  1.0000 0.12234866
H   H47       1.0  0.55240  0.10410  0.56800  1.0000 0.12234866
H   H48       1.0  0.44760  0.60410  0.93200  1.0000 0.12234866
H   H49       1.0  0.44090  0.88750  0.52630  1.0000 0.12234866
H   H50       1.0  0.55910  0.38750  0.97370  1.0000 0.12234866
H   H51       1.0  0.55910  0.11250  0.47370  1.0000 0.12234866
H   H52       1.0  0.44090  0.61250  0.02630  1.0000 0.12234866
C   C1        1.0  0.79790  0.05360  0.44800  1.0000 0.53209761
C   C2        1.0  0.20210  0.55360  0.05200  1.0000 0.53209761
C   C3        1.0  0.20210  0.94640  0.55200  1.0000 0.53209761
C   C4        1.0  0.79790  0.44640  0.94800  1.0000 0.53209761
C   C5        1.0  0.79700  0.90080  0.38520  1.0000 -0.0091440382
C   C6        1.0  0.20300  0.40080  0.11480  1.0000 -0.0091440382
C   C7        1.0  0.20300  0.09920  0.61480  1.0000 -0.0091440382
C   C8        1.0  0.79700  0.59920  0.88520  1.0000 -0.0091440382
C   C9        1.0  0.72240  0.85570  0.32290  1.0000 -0.1311375049
C   C10       1.0  0.27760  0.35570  0.17710  1.0000 -0.1311375049
C   C11       1.0  0.27760  0.14430  0.67710  1.0000 -0.1311375049
C   C12       1.0  0.72240  0.64430  0.82290  1.0000 -0.1311375049
C   C13       1.0  0.72110  0.70670  0.27000  1.0000 -0.1311375049
C   C14       1.0  0.27890  0.20670  0.23000  1.0000 -0.1311375049
C   C15       1.0  0.27890  0.29330  0.73000  1.0000 -0.1311375049
C   C16       1.0  0.72110  0.79330  0.77000  1.0000 -0.1311375049
C   C17       1.0  0.79400  0.60290  0.27670  1.0000 -0.0421250376
C   C18       1.0  0.20600  0.10290  0.22330  1.0000 -0.0421250376
C   C19       1.0  0.20600  0.39710  0.72330  1.0000 -0.0421250376
C   C20       1.0  0.79400  0.89710  0.77670  1.0000 -0.0421250376
C   C21       1.0  0.87000  0.64510  0.33920  1.0000 0.0502913467
C   C22       1.0  0.13000  0.14510  0.16080  1.0000 0.0502913467
C   C23       1.0  0.13000  0.35490  0.66080  1.0000 0.0502913467
C   C24       1.0  0.87000  0.85490  0.83920  1.0000 0.0502913467
C   C25       1.0  0.86910  0.79600  0.39240  1.0000 -0.1704588064
C   C26       1.0  0.13090  0.29600  0.10760  1.0000 -0.1704588064
C   C27       1.0  0.13090  0.20400  0.60760  1.0000 -0.1704588064
C   C28       1.0  0.86910  0.70400  0.89240  1.0000 -0.1704588064
C   C29       1.0  0.78880  0.45540  0.21000  1.0000 0.53209761
C   C30       1.0  0.21120  0.95540  0.29000  1.0000 0.53209761
C   C31       1.0  0.21120  0.54460  0.79000  1.0000 0.53209761
C   C32       1.0  0.78880  0.04460  0.71000  1.0000 0.53209761
C   C33       1.0  0.94920  0.53650  0.35290  1.0000 0.0356953315
C   C34       1.0  0.05080  0.03650  0.14710  1.0000 0.0356953315
C   C35       1.0  0.05080  0.46350  0.64710  1.0000 0.0356953315
C   C36       1.0  0.94920  0.96350  0.85290  1.0000 0.0356953315
C   C37       1.0  0.95100  0.34580  0.35520  1.0000 -0.0734851339
C   C38       1.0  0.04900  0.84580  0.14480  1.0000 -0.0734851339
C   C39       1.0  0.04900  0.65420  0.64480  1.0000 -0.0734851339
C   C40       1.0  0.95100  0.15420  0.85520  1.0000 -0.0734851339
C   C41       1.0  0.02800  0.25510  0.36940  1.0000 -0.1158642077
C   C42       1.0  0.97200  0.75510  0.13060  1.0000 -0.1158642077
C   C43       1.0  0.97200  0.74490  0.63060  1.0000 -0.1158642077
C   C44       1.0  0.02800  0.24490  0.86940  1.0000 -0.1158642077
C   C45       1.0  0.10220  0.35440  0.38380  1.0000 0.0678059458
C   C46       1.0  0.89780  0.85440  0.11620  1.0000 0.0678059458
C   C47       1.0  0.89780  0.64560  0.61620  1.0000 0.0678059458
C   C48       1.0  0.10220  0.14560  0.88380  1.0000 0.0678059458
C   C49       1.0  0.02700  0.62470  0.36780  1.0000 0.0356953315
C   C50       1.0  0.97300  0.12470  0.13220  1.0000 0.0356953315
C   C51       1.0  0.97300  0.37530  0.63220  1.0000 0.0356953315
C   C52       1.0  0.02700  0.87530  0.86780  1.0000 0.0356953315
C   C53       1.0  0.66180  0.59320  0.47960  1.0000 0.0678059458
C   C54       1.0  0.33820  0.09320  0.02040  1.0000 0.0678059458
C   C55       1.0  0.33820  0.40680  0.52040  1.0000 0.0678059458
C   C56       1.0  0.66180  0.90680  0.97960  1.0000 0.0678059458
C   C57       1.0  0.60030  0.72670  0.45960  1.0000 -0.198008673
C   C58       1.0  0.39970  0.22670  0.04040  1.0000 -0.198008673
C   C59       1.0  0.39970  0.27330  0.54040  1.0000 -0.198008673
C   C60       1.0  0.60030  0.77330  0.95960  1.0000 -0.198008673
C   C61       1.0  0.54730  0.75760  0.51190  1.0000 0.1697649865
C   C62       1.0  0.45270  0.25760  0.98810  1.0000 0.1697649865
C   C63       1.0  0.45270  0.24240  0.48810  1.0000 0.1697649865
C   C64       1.0  0.54730  0.74240  0.01190  1.0000 0.1697649865
C   C65       1.0  0.56070  0.64730  0.58280  1.0000 -0.2122629785
C   C66       1.0  0.43930  0.14730  0.91720  1.0000 -0.2122629785
C   C67       1.0  0.43930  0.35270  0.41720  1.0000 -0.2122629785
C   C68       1.0  0.56070  0.85270  0.08280  1.0000 -0.2122629785
C   C69       1.0  0.62380  0.51520  0.59910  1.0000 0.0678059458
C   C70       1.0  0.37620  0.01520  0.90090  1.0000 0.0678059458
C   C71       1.0  0.37620  0.48480  0.40090  1.0000 0.0753207973
C   C72       1.0  0.62380  0.98480  0.09910  1.0000 0.0753207973
C   C73       1.0  0.48000  0.90520  0.49160  1.0000 -0.2432659769
C   C74       1.0  0.52000  0.40520  0.00840  1.0000 -0.2432659769
C   C75       1.0  0.52000  0.09480  0.50840  1.0000 -0.2432659769
C   C76       1.0  0.48000  0.59480  0.99160  1.0000 -0.2432659769
N   N1        1.0  0.10230  0.53800  0.38350  1.0000 -0.2432659769
N   N2        1.0  0.89770  0.03800  0.11650  1.0000 -0.2432659769
N   N3        1.0  0.89770  0.46200  0.61650  1.0000 -0.2432659769
N   N4        1.0  0.10230  0.96200  0.88350  1.0000 -0.2432659769
N   N5        1.0  0.67520  0.48770  0.54910  1.0000 -0.2523714841
N   N6        1.0  0.32480  0.98770  0.95090  1.0000 -0.2523714841
N   N7        1.0  0.32480  0.51230  0.45090  1.0000 -0.2523714841
N   N8        1.0  0.67520  0.01230  0.04910  1.0000 -0.2523714841
O   O1        1.0  0.72792  0.12570  0.44943  1.0000 -0.5410972812
O   O2        1.0  0.27208  0.62570  0.05057  1.0000 -0.5410972812
O   O3        1.0  0.27208  0.87430  0.55057  1.0000 -0.5410972812
O   O4        1.0  0.72792  0.37430  0.94943  1.0000 -0.5410972812
O   O5        1.0  0.86650  0.10070  0.49720  1.0000 -0.5202153602
O   O6        1.0  0.13350  0.60070  0.00280  1.0000 -0.5202153602
O   O7        1.0  0.13350  0.89930  0.50280  1.0000 -0.5202153602
O   O8        1.0  0.86650  0.39930  0.99720  1.0000 -0.5202153602
O   O9        1.0  0.72491  0.35370  0.18950  1.0000 -0.5410972812
O   O10       1.0  0.27509  0.85370  0.31050  1.0000 -0.5410972812
O   O11       1.0  0.27509  0.64630  0.81050  1.0000 -0.5410972812
O   O12       1.0  0.72491  0.14630  0.68950  1.0000 -0.5410972812
O   O13       1.0  0.84640  0.44490  0.17443  1.0000 -0.5085145512
O   O14       1.0  0.15360  0.94490  0.32557  1.0000 -0.5085145512
O   O15       1.0  0.15360  0.55510  0.82557  1.0000 -0.5085145512
O   O16       1.0  0.84640  0.05510  0.67443  1.0000 -0.5085145512
