# DDEC6 charges by PACMAN v1.1 (https://github.com/mtap-research/PACMAN-charge/)
data_2014[Co][ant]3[ASR]2
_chemical_formula_sum              "Co12 H56 C104 N16 O48"
_cell_length_a       15.2445
_cell_length_b       15.2445
_cell_length_c       23.215
_cell_angle_alpha    90
_cell_angle_beta     90
_cell_angle_gamma    96.0915

_symmetry_space_group_name_H-M    "P 1"
_symmetry_Int_Tables_number       1

loop_
  _symmetry_equiv_pos_as_xyz
  'x, y, z'

loop_
  _atom_site_type_symbol
  _atom_site_label
  _atom_site_symmetry_multiplicity
  _atom_site_fract_x
  _atom_site_fract_y
  _atom_site_fract_z
  _atom_site_occupancy
  _atom_site_charge
Co  Co1       1.0  0.84573  0.26155  0.39193  1.0000 0.8423277931
Co  Co2       1.0  0.15427  0.73845  0.89193  1.0000 0.8423277931
Co  Co3       1.0  0.73845  0.15427  0.10807  1.0000 0.8423277931
Co  Co4       1.0  0.26155  0.84573  0.60807  1.0000 0.8423277931
Co  Co5       1.0  0.78889  0.21111  0.25000  1.0000 1.0667470293
Co  Co6       1.0  0.21111  0.78889  0.75000  1.0000 1.0667470293
Co  Co7       1.0  0.74327  0.65571  0.14611  1.0000 0.8423277931
Co  Co8       1.0  0.25673  0.34429  0.64611  1.0000 0.8423277931
Co  Co9       1.0  0.34429  0.25673  0.35389  1.0000 0.8423277931
Co  Co10      1.0  0.65571  0.74327  0.85389  1.0000 0.8423277931
Co  Co11      1.0  0.70133  0.70133  0.00000  1.0000 1.0498875575
Co  Co12      1.0  0.29867  0.29867  0.50000  1.0000 1.0498875575
H   H1        1.0  0.77280  0.47960  0.20900  1.0000 0.1214038787
H   H2        1.0  0.22720  0.52040  0.70900  1.0000 0.1214038787
H   H3        1.0  0.52040  0.22720  0.29100  1.0000 0.1214038787
H   H4        1.0  0.47960  0.77280  0.79100  1.0000 0.1214038787
H   H5        1.0  0.86510  0.54050  0.36680  1.0000 0.1314596521
H   H6        1.0  0.13490  0.45950  0.86680  1.0000 0.1314596521
H   H7        1.0  0.45950  0.13490  0.13320  1.0000 0.1314596521
H   H8        1.0  0.54050  0.86510  0.63320  1.0000 0.1314596521
H   H9        1.0  0.88270  0.68990  0.33980  1.0000 0.1214038787
H   H10       1.0  0.11730  0.31010  0.83980  1.0000 0.1214038787
H   H11       1.0  0.31010  0.11730  0.16020  1.0000 0.1214038787
H   H12       1.0  0.68990  0.88270  0.66020  1.0000 0.1214038787
H   H13       1.0  0.88000  0.82360  0.31520  1.0000 0.1314596521
H   H14       1.0  0.12000  0.17640  0.81520  1.0000 0.1314596521
H   H15       1.0  0.17640  0.12000  0.18480  1.0000 0.1314596521
H   H16       1.0  0.82360  0.88000  0.68480  1.0000 0.1314596521
H   H17       1.0  0.85830  0.96290  0.28860  1.0000 0.1314596521
H   H18       1.0  0.14170  0.03710  0.78860  1.0000 0.1314596521
H   H19       1.0  0.03710  0.14170  0.21140  1.0000 0.1314596521
H   H20       1.0  0.96290  0.85830  0.71140  1.0000 0.1314596521
H   H21       1.0  0.74870  0.86610  0.14230  1.0000 0.1214038787
H   H22       1.0  0.25130  0.13390  0.64230  1.0000 0.1214038787
H   H23       1.0  0.13390  0.25130  0.35770  1.0000 0.1214038787
H   H24       1.0  0.86610  0.74870  0.85770  1.0000 0.1214038787
H   H25       1.0  0.02630  0.27390  0.45750  1.0000 0.1143775238
H   H26       1.0  0.97370  0.72610  0.95750  1.0000 0.1143775238
H   H27       1.0  0.72610  0.97370  0.04250  1.0000 0.1143775238
H   H28       1.0  0.27390  0.02630  0.54250  1.0000 0.1143775238
H   H29       1.0  0.98260  0.33120  0.62140  1.0000 0.1314596521
H   H30       1.0  0.01740  0.66880  0.12140  1.0000 0.1314596521
H   H31       1.0  0.66880  0.01740  0.87860  1.0000 0.1314596521
H   H32       1.0  0.33120  0.98260  0.37860  1.0000 0.1314596521
H   H33       1.0  0.83390  0.33270  0.59930  1.0000 0.1214038787
H   H34       1.0  0.16610  0.66730  0.09930  1.0000 0.1214038787
H   H35       1.0  0.66730  0.16610  0.90070  1.0000 0.1214038787
H   H36       1.0  0.33270  0.83390  0.40070  1.0000 0.1214038787
H   H37       1.0  0.70210  0.35010  0.57470  1.0000 0.1314596521
H   H38       1.0  0.29790  0.64990  0.07470  1.0000 0.1314596521
H   H39       1.0  0.64990  0.29790  0.92530  1.0000 0.1314596521
H   H40       1.0  0.35010  0.70210  0.42530  1.0000 0.1314596521
H   H41       1.0  0.55820  0.34540  0.54110  1.0000 0.1214038787
H   H42       1.0  0.44180  0.65460  0.04110  1.0000 0.1214038787
H   H43       1.0  0.65460  0.44180  0.95890  1.0000 0.1214038787
H   H44       1.0  0.34540  0.55820  0.45890  1.0000 0.1214038787
H   H45       1.0  0.63370  0.26990  0.38750  1.0000 0.1214038787
H   H46       1.0  0.36630  0.73010  0.88750  1.0000 0.1214038787
H   H47       1.0  0.73010  0.36630  0.11250  1.0000 0.1214038787
H   H48       1.0  0.26990  0.63370  0.61250  1.0000 0.1214038787
H   H49       1.0  0.74070  0.05570  0.34980  1.0000 0.1020526281
H   H50       1.0  0.25930  0.94430  0.84980  1.0000 0.1020526281
H   H51       1.0  0.94430  0.25930  0.15020  1.0000 0.1020526281
H   H52       1.0  0.05570  0.74070  0.65020  1.0000 0.1020526281
H   H53       1.0  0.58740  0.79980  0.06440  1.0000 0.1214038787
H   H54       1.0  0.41260  0.20020  0.56440  1.0000 0.1214038787
H   H55       1.0  0.20020  0.41260  0.43560  1.0000 0.1214038787
H   H56       1.0  0.79980  0.58740  0.93560  1.0000 0.1214038787
C   C1        1.0  0.79500  0.52160  0.23580  1.0000 0.0682268922
C   C2        1.0  0.20500  0.47840  0.73580  1.0000 0.0682268922
C   C3        1.0  0.47840  0.20500  0.26420  1.0000 0.0682268922
C   C4        1.0  0.52160  0.79500  0.76420  1.0000 0.0682268922
C   C5        1.0  0.82440  0.49280  0.28790  1.0000 -0.0837041968
C   C6        1.0  0.17560  0.50720  0.78790  1.0000 -0.0837041968
C   C7        1.0  0.50720  0.17560  0.21210  1.0000 -0.0837041968
C   C8        1.0  0.49280  0.82440  0.71210  1.0000 -0.0837041968
C   C9        1.0  0.85140  0.55740  0.32960  1.0000 -0.0493165594
C   C10       1.0  0.14860  0.44260  0.82960  1.0000 -0.0493165594
C   C11       1.0  0.44260  0.14860  0.17040  1.0000 -0.0493165594
C   C12       1.0  0.55740  0.85140  0.67040  1.0000 -0.0493165594
C   C13       1.0  0.85760  0.64640  0.31490  1.0000 -0.201223473
C   C14       1.0  0.14240  0.35360  0.81490  1.0000 -0.201223473
C   C15       1.0  0.35360  0.14240  0.18510  1.0000 -0.201223473
C   C16       1.0  0.64640  0.85760  0.68510  1.0000 -0.201223473
C   C17       1.0  0.82460  0.66700  0.26190  1.0000 0.1715815114
C   C18       1.0  0.17540  0.33300  0.76190  1.0000 0.1715815114
C   C19       1.0  0.33300  0.17540  0.23810  1.0000 0.1715815114
C   C20       1.0  0.66700  0.82460  0.73810  1.0000 0.1715815114
C   C21       1.0  0.81840  0.76120  0.24670  1.0000 0.1715815114
C   C22       1.0  0.18160  0.23880  0.74670  1.0000 0.1715815114
C   C23       1.0  0.23880  0.18160  0.25330  1.0000 0.1715815114
C   C24       1.0  0.76120  0.81840  0.75330  1.0000 0.1715815114
C   C25       1.0  0.85050  0.83310  0.28100  1.0000 -0.1726867659
C   C26       1.0  0.14950  0.16690  0.78100  1.0000 -0.1726867659
C   C27       1.0  0.16690  0.14950  0.21900  1.0000 -0.1726867659
C   C28       1.0  0.83310  0.85050  0.71900  1.0000 -0.1726867659
C   C29       1.0  0.83930  0.91550  0.26490  1.0000 -0.0696481015
C   C30       1.0  0.16070  0.08450  0.76490  1.0000 -0.0696481015
C   C31       1.0  0.08450  0.16070  0.23510  1.0000 -0.0696481015
C   C32       1.0  0.91550  0.83930  0.73510  1.0000 -0.0587540967
C   C33       1.0  0.79850  0.93030  0.21170  1.0000 -0.0587540967
C   C34       1.0  0.20150  0.06970  0.71170  1.0000 -0.0587540967
C   C35       1.0  0.06970  0.20150  0.28830  1.0000 -0.0587540967
C   C36       1.0  0.93030  0.79850  0.78830  1.0000 -0.0587540967
C   C37       1.0  0.77360  0.85740  0.17820  1.0000 0.0682268922
C   C38       1.0  0.22640  0.14260  0.67820  1.0000 0.0682268922
C   C39       1.0  0.14260  0.22640  0.32180  1.0000 0.0682268922
C   C40       1.0  0.85740  0.77360  0.82180  1.0000 0.0682268922
C   C41       1.0  0.81940  0.39680  0.30200  1.0000 0.5825711237
C   C42       1.0  0.18060  0.60320  0.80200  1.0000 0.5825711237
C   C43       1.0  0.60320  0.18060  0.19800  1.0000 0.5825711237
C   C44       1.0  0.39680  0.81940  0.69800  1.0000 0.5825711237
C   C45       1.0  0.78420  0.02360  0.19460  1.0000 0.5905785682
C   C46       1.0  0.21580  0.97640  0.69460  1.0000 0.5905785682
C   C47       1.0  0.97640  0.21580  0.30540  1.0000 0.5905785682
C   C48       1.0  0.02360  0.78420  0.80540  1.0000 0.5905785682
C   C49       1.0  0.98740  0.28840  0.48610  1.0000 0.0682268922
C   C50       1.0  0.01260  0.71160  0.98610  1.0000 0.0682268922
C   C51       1.0  0.71160  0.01260  0.01390  1.0000 0.0682268922
C   C52       1.0  0.28840  0.98740  0.51390  1.0000 0.0682268922
C   C53       1.0  0.01910  0.30550  0.54060  1.0000 -0.0696481015
C   C54       1.0  0.98090  0.69450  0.04060  1.0000 -0.0696481015
C   C55       1.0  0.69450  0.98090  0.95940  1.0000 -0.0696481015
C   C56       1.0  0.30550  0.01910  0.45940  1.0000 -0.0696481015
C   C57       1.0  0.96250  0.32150  0.58390  1.0000 -0.0493165594
C   C58       1.0  0.03750  0.67850  0.08390  1.0000 -0.0493165594
C   C59       1.0  0.67850  0.03750  0.91610  1.0000 -0.0493165594
C   C60       1.0  0.32150  0.96250  0.41610  1.0000 -0.0493165594
C   C61       1.0  0.87410  0.32310  0.57040  1.0000 -0.175771947
C   C62       1.0  0.12590  0.67690  0.07040  1.0000 -0.175771947
C   C63       1.0  0.67690  0.12590  0.92960  1.0000 -0.175771947
C   C64       1.0  0.32310  0.87410  0.42960  1.0000 -0.175771947
C   C65       1.0  0.84590  0.31090  0.51530  1.0000 0.1644132407
C   C66       1.0  0.15410  0.68910  0.01530  1.0000 0.1644132407
C   C67       1.0  0.68910  0.15410  0.98470  1.0000 0.1644132407
C   C68       1.0  0.31090  0.84590  0.48470  1.0000 0.1644132407
C   C69       1.0  0.75110  0.30910  0.49760  1.0000 0.1867814707
C   C70       1.0  0.24890  0.69090  0.99760  1.0000 0.1867814707
C   C71       1.0  0.69090  0.24890  0.00240  1.0000 0.1867814707
C   C72       1.0  0.30910  0.75110  0.50240  1.0000 0.1867814707
C   C73       1.0  0.68750  0.33290  0.53720  1.0000 -0.1913517555
C   C74       1.0  0.31250  0.66710  0.03720  1.0000 -0.1913517555
C   C75       1.0  0.66710  0.31250  0.96280  1.0000 -0.1913517555
C   C76       1.0  0.33290  0.68750  0.46280  1.0000 -0.1913517555
C   C77       1.0  0.60220  0.32940  0.51670  1.0000 -0.0587540967
C   C78       1.0  0.39780  0.67060  0.01670  1.0000 -0.0587540967
C   C79       1.0  0.67060  0.39780  0.98330  1.0000 -0.0587540967
C   C80       1.0  0.32940  0.60220  0.48330  1.0000 -0.0587540967
C   C81       1.0  0.58000  0.30300  0.46180  1.0000 -0.0921705467
C   C82       1.0  0.42000  0.69700  0.96180  1.0000 -0.0921705467
C   C83       1.0  0.69700  0.42000  0.03820  1.0000 -0.0921705467
C   C84       1.0  0.30300  0.58000  0.53820  1.0000 -0.0921705467
C   C85       1.0  0.64790  0.28450  0.42550  1.0000 0.0826000097
C   C86       1.0  0.35210  0.71550  0.92550  1.0000 0.0826000097
C   C87       1.0  0.71550  0.35210  0.07450  1.0000 0.0826000097
C   C88       1.0  0.28450  0.64790  0.57450  1.0000 0.0826000097
C   C89       1.0  0.11670  0.30530  0.55280  1.0000 0.5905785682
C   C90       1.0  0.88330  0.69470  0.05280  1.0000 0.5905785682
C   C91       1.0  0.69470  0.88330  0.94720  1.0000 0.5905785682
C   C92       1.0  0.30530  0.11670  0.44720  1.0000 0.5905785682
C   C93       1.0  0.48680  0.29700  0.44260  1.0000 0.5960411923
C   C94       1.0  0.51320  0.70300  0.94260  1.0000 0.5960411923
C   C95       1.0  0.70300  0.51320  0.05740  1.0000 0.5960411923
C   C96       1.0  0.29700  0.48680  0.55740  1.0000 0.5960411923
C   C97       1.0  0.76870  0.10830  0.36430  1.0000 0.4712174358
C   C98       1.0  0.23130  0.89170  0.86430  1.0000 0.4712174358
C   C99       1.0  0.89170  0.23130  0.13570  1.0000 0.4712174358
C   C100      1.0  0.10830  0.76870  0.63570  1.0000 0.4712174358
C   C101      1.0  0.60310  0.76550  0.09510  1.0000 0.4712174358
C   C102      1.0  0.39690  0.23450  0.59510  1.0000 0.4712174358
C   C103      1.0  0.23450  0.39690  0.40490  1.0000 0.4712174358
C   C104      1.0  0.76550  0.60310  0.90490  1.0000 0.4712174358
N   N1        1.0  0.79680  0.60800  0.22180  1.0000 -0.2772872848
N   N2        1.0  0.20320  0.39200  0.72180  1.0000 -0.2772872848
N   N3        1.0  0.39200  0.20320  0.27820  1.0000 -0.2772872848
N   N4        1.0  0.60800  0.79680  0.77820  1.0000 -0.2772872848
N   N5        1.0  0.78340  0.77460  0.19460  1.0000 -0.2712027906
N   N6        1.0  0.21660  0.22540  0.69460  1.0000 -0.2712027906
N   N7        1.0  0.22540  0.21660  0.30540  1.0000 -0.2712027906
N   N8        1.0  0.77460  0.78340  0.80540  1.0000 -0.2712027906
N   N9        1.0  0.90150  0.29170  0.47220  1.0000 -0.2712027906
N   N10       1.0  0.09850  0.70830  0.97220  1.0000 -0.2712027906
N   N11       1.0  0.70830  0.09850  0.02780  1.0000 -0.2712027906
N   N12       1.0  0.29170  0.90150  0.52780  1.0000 -0.2712027906
N   N13       1.0  0.73330  0.28630  0.44169  1.0000 -0.2881678743
N   N14       1.0  0.26670  0.71370  0.94169  1.0000 -0.2881678743
N   N15       1.0  0.71370  0.26670  0.05831  1.0000 -0.2881678743
N   N16       1.0  0.28630  0.73330  0.55831  1.0000 -0.2881678743
O   O1        1.0  0.79360  0.34480  0.26326  1.0000 -0.5515806678
O   O2        1.0  0.20640  0.65520  0.76326  1.0000 -0.5515806678
O   O3        1.0  0.65520  0.20640  0.23674  1.0000 -0.5515806678
O   O4        1.0  0.34480  0.79360  0.73674  1.0000 -0.5515806678
O   O5        1.0  0.84308  0.37832  0.35273  1.0000 -0.5564830107
O   O6        1.0  0.15692  0.62168  0.85273  1.0000 -0.5564830107
O   O7        1.0  0.62168  0.15692  0.14727  1.0000 -0.5564830107
O   O8        1.0  0.37832  0.84308  0.64727  1.0000 -0.5564830107
O   O9        1.0  0.76489  0.03591  0.14251  1.0000 -0.5380659429
O   O10       1.0  0.23511  0.96409  0.64251  1.0000 -0.5380659429
O   O11       1.0  0.96409  0.23511  0.35749  1.0000 -0.5380659429
O   O12       1.0  0.03591  0.76489  0.85749  1.0000 -0.5380659429
O   O13       1.0  0.78840  0.07760  0.23390  1.0000 -0.5671901507
O   O14       1.0  0.21160  0.92240  0.73390  1.0000 -0.5671901507
O   O15       1.0  0.92240  0.21160  0.26610  1.0000 -0.5671901507
O   O16       1.0  0.07760  0.78840  0.76610  1.0000 -0.5671901507
O   O17       1.0  0.16490  0.28990  0.51136  1.0000 -0.5780821843
O   O18       1.0  0.83510  0.71010  0.01136  1.0000 -0.5780821843
O   O19       1.0  0.71010  0.83510  0.98864  1.0000 -0.5780821843
O   O20       1.0  0.28990  0.16490  0.48864  1.0000 -0.5780821843
O   O21       1.0  0.13990  0.31990  0.60411  1.0000 -0.5515806678
O   O22       1.0  0.86010  0.68010  0.10411  1.0000 -0.5515806678
O   O23       1.0  0.68010  0.86010  0.89589  1.0000 -0.5515806678
O   O24       1.0  0.31990  0.13990  0.39589  1.0000 -0.5515806678
O   O25       1.0  0.46960  0.28060  0.38992  1.0000 -0.5564830107
O   O26       1.0  0.53040  0.71940  0.88992  1.0000 -0.5564830107
O   O27       1.0  0.71940  0.53040  0.11008  1.0000 -0.5564830107
O   O28       1.0  0.28060  0.46960  0.61008  1.0000 -0.5564830107
O   O29       1.0  0.43190  0.30830  0.48041  1.0000 -0.5780821843
O   O30       1.0  0.56810  0.69170  0.98041  1.0000 -0.5780821843
O   O31       1.0  0.69170  0.56810  0.01959  1.0000 -0.5780821843
O   O32       1.0  0.30830  0.43190  0.51959  1.0000 -0.5780821843
O   O33       1.0  0.76550  0.17910  0.33720  1.0000 -0.5380659429
O   O34       1.0  0.23450  0.82090  0.83720  1.0000 -0.5380659429
O   O35       1.0  0.82090  0.23450  0.16280  1.0000 -0.5380659429
O   O36       1.0  0.17910  0.76550  0.66280  1.0000 -0.5380659429
O   O37       1.0  0.80990  0.10850  0.41140  1.0000 -0.484708081
O   O38       1.0  0.19010  0.89150  0.91140  1.0000 -0.4863093002
O   O39       1.0  0.89150  0.19010  0.08860  1.0000 -0.484708081
O   O40       1.0  0.10850  0.80990  0.58860  1.0000 -0.4863093002
O   O41       1.0  0.66950  0.72270  0.08690  1.0000 -0.5515806678
O   O42       1.0  0.33050  0.27730  0.58690  1.0000 -0.5515806678
O   O43       1.0  0.27730  0.33050  0.41310  1.0000 -0.5515806678
O   O44       1.0  0.72270  0.66950  0.91310  1.0000 -0.5515806678
O   O45       1.0  0.56050  0.76690  0.13570  1.0000 -0.3201846285
O   O46       1.0  0.43950  0.23310  0.63570  1.0000 -0.3201846285
O   O47       1.0  0.23310  0.43950  0.36430  1.0000 -0.3201846285
O   O48       1.0  0.76690  0.56050  0.86430  1.0000 -0.3201846285
