# DDEC6 charges by PACMAN v1.1 (https://github.com/mtap-research/PACMAN-charge/)
data_2014[Cu][rtl]3[ASR]4
_chemical_formula_sum              "Cu8 H32 C44 N16 O28"
_cell_length_a       7.859
_cell_length_b       13.253
_cell_length_c       17.452
_cell_angle_alpha    90
_cell_angle_beta     105.258
_cell_angle_gamma    90

_symmetry_space_group_name_H-M    "P 1"
_symmetry_Int_Tables_number       1

loop_
  _symmetry_equiv_pos_as_xyz
  'x, y, z'

loop_
  _atom_site_type_symbol
  _atom_site_label
  _atom_site_symmetry_multiplicity
  _atom_site_fract_x
  _atom_site_fract_y
  _atom_site_fract_z
  _atom_site_occupancy
  _atom_site_charge
Cu  Cu1       1.0  0.27256  0.39642  0.44661  1.0000 0.8817790939
Cu  Cu2       1.0  0.72744  0.89642  0.05339  1.0000 0.8817790939
Cu  Cu3       1.0  0.72744  0.60358  0.55339  1.0000 0.8817790939
Cu  Cu4       1.0  0.27256  0.10358  0.94661  1.0000 0.8817790939
Cu  Cu5       1.0  0.04820  0.44950  0.57897  1.0000 0.8864895596
Cu  Cu6       1.0  0.95180  0.94950  0.92103  1.0000 0.8864895596
Cu  Cu7       1.0  0.95180  0.55050  0.42103  1.0000 0.8864895596
Cu  Cu8       1.0  0.04820  0.05050  0.07897  1.0000 0.8864895596
H   H1        1.0  0.25380  0.55060  0.52430  1.0000 0.3870843841
H   H2        1.0  0.74620  0.05060  0.97570  1.0000 0.3870843841
H   H3        1.0  0.74620  0.44940  0.47570  1.0000 0.3870843841
H   H4        1.0  0.25380  0.94940  0.02430  1.0000 0.3870843841
H   H5        1.0  0.51880  0.55430  0.29300  1.0000 0.1268174468
H   H6        1.0  0.48120  0.05430  0.20700  1.0000 0.1268174468
H   H7        1.0  0.48120  0.44570  0.70700  1.0000 0.1268174468
H   H8        1.0  0.51880  0.94570  0.79300  1.0000 0.1268174468
H   H9        1.0  0.48050  0.05820  0.65300  1.0000 0.2799749306
H   H10       1.0  0.51950  0.55820  0.84700  1.0000 0.2799749306
H   H11       1.0  0.51950  0.94180  0.34700  1.0000 0.2799749306
H   H12       1.0  0.48050  0.44180  0.15300  1.0000 0.2799749306
H   H13       1.0  0.35850  0.07420  0.70430  1.0000 0.2799749306
H   H14       1.0  0.64150  0.57420  0.79570  1.0000 0.2799749306
H   H15       1.0  0.64150  0.92580  0.29570  1.0000 0.2799749306
H   H16       1.0  0.35850  0.42580  0.20430  1.0000 0.2799749306
H   H17       1.0  0.62100  0.64630  0.20220  1.0000 0.117199755
H   H18       1.0  0.37900  0.14630  0.29780  1.0000 0.117199755
H   H19       1.0  0.37900  0.35370  0.79780  1.0000 0.117199755
H   H20       1.0  0.62100  0.85370  0.70220  1.0000 0.117199755
H   H21       1.0  0.08590  0.72840  0.24960  1.0000 0.1268174468
H   H22       1.0  0.91410  0.22840  0.25040  1.0000 0.1268174468
H   H23       1.0  0.91410  0.27160  0.75040  1.0000 0.1268174468
H   H24       1.0  0.08590  0.77160  0.74960  1.0000 0.1268174468
H   H25       1.0  0.14720  0.22980  0.67450  1.0000 0.1427952449
H   H26       1.0  0.85280  0.72980  0.82550  1.0000 0.1427952449
H   H27       1.0  0.85280  0.77020  0.32550  1.0000 0.1427952449
H   H28       1.0  0.14720  0.27020  0.17450  1.0000 0.1427952449
H   H29       1.0  0.48420  0.19780  0.54510  1.0000 0.1427952449
H   H30       1.0  0.51580  0.69780  0.95490  1.0000 0.1427952449
H   H31       1.0  0.51580  0.80220  0.45490  1.0000 0.1427952449
H   H32       1.0  0.48420  0.30220  0.04510  1.0000 0.1427952449
C   C1        1.0  0.22470  0.57380  0.34030  1.0000 0.5735826983
C   C2        1.0  0.77530  0.07380  0.15970  1.0000 0.5735826983
C   C3        1.0  0.77530  0.42620  0.65970  1.0000 0.5735826983
C   C4        1.0  0.22470  0.92620  0.84030  1.0000 0.5735826983
C   C5        1.0  0.29160  0.63240  0.28080  1.0000 -0.0215171299
C   C6        1.0  0.70840  0.13240  0.21920  1.0000 -0.0215171299
C   C7        1.0  0.70840  0.36760  0.71920  1.0000 -0.0215171299
C   C8        1.0  0.29160  0.86760  0.78080  1.0000 -0.0215171299
C   C9        1.0  0.45230  0.60760  0.26600  1.0000 -0.1495011778
C   C10       1.0  0.54770  0.10760  0.23400  1.0000 -0.1495011778
C   C11       1.0  0.54770  0.39240  0.73400  1.0000 -0.1495011778
C   C12       1.0  0.45230  0.89240  0.76600  1.0000 -0.1495011778
C   C13       1.0  0.51270  0.66230  0.21120  1.0000 -0.1414206804
C   C14       1.0  0.48730  0.16230  0.28880  1.0000 -0.1414206804
C   C15       1.0  0.48730  0.33770  0.78880  1.0000 -0.1414206804
C   C16       1.0  0.51270  0.83770  0.71120  1.0000 -0.1414206804
C   C17       1.0  0.41300  0.74180  0.16880  1.0000 -0.0558035479
C   C18       1.0  0.58700  0.24180  0.33120  1.0000 -0.0558035479
C   C19       1.0  0.58700  0.25820  0.83120  1.0000 -0.0558035479
C   C20       1.0  0.41300  0.75820  0.66880  1.0000 -0.0558035479
C   C21       1.0  0.47860  0.79770  0.10760  1.0000 0.5581961764
C   C22       1.0  0.52140  0.29770  0.39240  1.0000 0.5581961764
C   C23       1.0  0.52140  0.20230  0.89240  1.0000 0.5581961764
C   C24       1.0  0.47860  0.70230  0.60760  1.0000 0.5581961764
C   C25       1.0  0.25250  0.76510  0.18350  1.0000 -0.010654637
C   C26       1.0  0.74750  0.26510  0.31650  1.0000 -0.010654637
C   C27       1.0  0.74750  0.23490  0.81650  1.0000 -0.010654637
C   C28       1.0  0.25250  0.73490  0.68350  1.0000 -0.010654637
C   C29       1.0  0.13250  0.84890  0.14110  1.0000 0.5956848456
C   C30       1.0  0.86750  0.34890  0.35890  1.0000 0.5956848456
C   C31       1.0  0.86750  0.15110  0.85890  1.0000 0.5956848456
C   C32       1.0  0.13250  0.65110  0.64110  1.0000 0.5956848456
C   C33       1.0  0.19280  0.71140  0.23960  1.0000 -0.1414206804
C   C34       1.0  0.80720  0.21140  0.26040  1.0000 -0.1414206804
C   C35       1.0  0.80720  0.28860  0.76040  1.0000 -0.1414206804
C   C36       1.0  0.19280  0.78860  0.73960  1.0000 -0.1414206804
C   C37       1.0  0.21240  0.24220  0.63810  1.0000 0.0759703728
C   C38       1.0  0.78760  0.74220  0.86190  1.0000 0.0759703728
C   C39       1.0  0.78760  0.75780  0.36190  1.0000 0.0759703728
C   C40       1.0  0.21240  0.25780  0.13810  1.0000 0.0759703728
C   C41       1.0  0.39780  0.22430  0.56690  1.0000 0.0693462758
C   C42       1.0  0.60220  0.72430  0.93310  1.0000 0.0693462758
C   C43       1.0  0.60220  0.77570  0.43310  1.0000 0.0693462758
C   C44       1.0  0.39780  0.27570  0.06690  1.0000 0.0693462758
N   N1        1.0  0.30910  0.30760  0.54450  1.0000 -0.1723398151
N   N2        1.0  0.69090  0.80760  0.95550  1.0000 -0.1723398151
N   N3        1.0  0.69090  0.69240  0.45550  1.0000 -0.1723398151
N   N4        1.0  0.30910  0.19240  0.04450  1.0000 -0.1723398151
N   N5        1.0  0.19110  0.31960  0.59030  1.0000 -0.1723398151
N   N6        1.0  0.80890  0.81960  0.90970  1.0000 -0.1723398151
N   N7        1.0  0.80890  0.68040  0.40970  1.0000 -0.1723398151
N   N8        1.0  0.19110  0.18040  0.09030  1.0000 -0.1723398151
N   N9        1.0  0.34240  0.18330  0.62680  1.0000 0.1690935909
N   N10       1.0  0.65760  0.68330  0.87320  1.0000 0.1690935909
N   N11       1.0  0.65760  0.81670  0.37320  1.0000 0.1690935909
N   N12       1.0  0.34240  0.31670  0.12680  1.0000 0.1690935909
N   N13       1.0  0.40200  0.09400  0.66640  1.0000 -0.4769420729
N   N14       1.0  0.59800  0.59400  0.83360  1.0000 -0.4769420729
N   N15       1.0  0.59800  0.90600  0.33360  1.0000 -0.4769420729
N   N16       1.0  0.40200  0.40600  0.16640  1.0000 -0.4769420729
O   O1        1.0  0.17000  0.49650  0.50240  1.0000 -0.8125935601
O   O2        1.0  0.83000  0.99650  0.99760  1.0000 -0.8125935601
O   O3        1.0  0.83000  0.50350  0.49760  1.0000 -0.8125935601
O   O4        1.0  0.17000  0.00350  0.00240  1.0000 -0.8125935601
O   O5        1.0  0.08390  0.60620  0.35230  1.0000 -0.5318585442
O   O6        1.0  0.91610  0.10620  0.14770  1.0000 -0.5318585442
O   O7        1.0  0.91610  0.39380  0.64770  1.0000 -0.5318585442
O   O8        1.0  0.08390  0.89380  0.85230  1.0000 -0.5318585442
O   O9        1.0  0.31000  0.49870  0.37140  1.0000 -0.5176464723
O   O10       1.0  0.69000  0.99870  0.12860  1.0000 -0.5176464723
O   O11       1.0  0.69000  0.50130  0.62860  1.0000 -0.5176464723
O   O12       1.0  0.31000  0.00130  0.87140  1.0000 -0.5176464723
O   O13       1.0  0.99390  0.82300  0.09290  1.0000 -0.5616967784
O   O14       1.0  0.00610  0.32300  0.40710  1.0000 -0.5616967784
O   O15       1.0  0.00610  0.17700  0.90710  1.0000 -0.5616967784
O   O16       1.0  0.99390  0.67700  0.59290  1.0000 -0.5616967784
O   O17       1.0  0.17840  0.93930  0.16070  1.0000 -0.5758003401
O   O18       1.0  0.82160  0.43930  0.33930  1.0000 -0.5758003401
O   O19       1.0  0.82160  0.06070  0.83930  1.0000 -0.5758003401
O   O20       1.0  0.17840  0.56070  0.66070  1.0000 -0.5758003401
O   O21       1.0  0.37290  0.83950  0.05120  1.0000 -0.5360333728
O   O22       1.0  0.62710  0.33950  0.44880  1.0000 -0.5360333728
O   O23       1.0  0.62710  0.16050  0.94880  1.0000 -0.5360333728
O   O24       1.0  0.37290  0.66050  0.55120  1.0000 -0.5360333728
O   O25       1.0  0.64490  0.79610  0.11620  1.0000 -0.5360333728
O   O26       1.0  0.35510  0.29610  0.38380  1.0000 -0.5360333728
O   O27       1.0  0.35510  0.20390  0.88380  1.0000 -0.5360333728
O   O28       1.0  0.64490  0.70390  0.61620  1.0000 -0.5360333728
