# DDEC6 charges by PACMAN v1.1 (https://github.com/mtap-research/PACMAN-charge/)
data_2014[Mn][nan]3[ASR]20
_chemical_formula_sum              "Mn16 H256 C304 O80"
_cell_length_a       33.4124
_cell_length_b       33.4124
_cell_length_c       13.0665
_cell_angle_alpha    90
_cell_angle_beta     90
_cell_angle_gamma    90

_symmetry_space_group_name_H-M    "P 1"
_symmetry_Int_Tables_number       1

loop_
  _symmetry_equiv_pos_as_xyz
  'x, y, z'

loop_
  _atom_site_type_symbol
  _atom_site_label
  _atom_site_symmetry_multiplicity
  _atom_site_fract_x
  _atom_site_fract_y
  _atom_site_fract_z
  _atom_site_occupancy
  _atom_site_charge
Mn  Mn1       1.0  0.73341  0.26659  0.25000  1.0000 1.0806092051
Mn  Mn2       1.0  0.26659  0.73341  0.75000  1.0000 1.0806092051
Mn  Mn3       1.0  0.76659  0.76659  0.50000  1.0000 1.0806092051
Mn  Mn4       1.0  0.23341  0.23341  0.00000  1.0000 1.0806092051
Mn  Mn5       1.0  0.84376  0.22320  0.99697  1.0000 1.0707739321
Mn  Mn6       1.0  0.15624  0.77680  0.49697  1.0000 1.0707739321
Mn  Mn7       1.0  0.72320  0.65624  0.24697  1.0000 1.0707739321
Mn  Mn8       1.0  0.27680  0.34376  0.74697  1.0000 1.0707739321
Mn  Mn9       1.0  0.34376  0.27680  0.25303  1.0000 1.0707739321
Mn  Mn10      1.0  0.65624  0.72320  0.75303  1.0000 1.0707739321
Mn  Mn11      1.0  0.22320  0.84376  0.00303  1.0000 1.0707739321
Mn  Mn12      1.0  0.77680  0.15624  0.50303  1.0000 1.0707739321
Mn  Mn13      1.0  0.84275  0.15725  0.75000  1.0000 1.1111433533
Mn  Mn14      1.0  0.15725  0.84275  0.25000  1.0000 1.1111433533
Mn  Mn15      1.0  0.65725  0.65725  0.00000  1.0000 1.1111433533
Mn  Mn16      1.0  0.34275  0.34275  0.50000  1.0000 1.1111433533
H   H1        1.0  0.77120  0.20390  0.84630  1.0000 0.122083926
H   H2        1.0  0.22880  0.79610  0.34630  1.0000 0.122083926
H   H3        1.0  0.70390  0.72880  0.09630  1.0000 0.122083926
H   H4        1.0  0.29610  0.27120  0.59630  1.0000 0.122083926
H   H5        1.0  0.27120  0.29610  0.40370  1.0000 0.122083926
H   H6        1.0  0.72880  0.70390  0.90370  1.0000 0.122083926
H   H7        1.0  0.20390  0.77120  0.15370  1.0000 0.122083926
H   H8        1.0  0.79610  0.22880  0.65370  1.0000 0.122083926
H   H9        1.0  0.67240  0.14300  0.75590  1.0000 0.1294289493
H   H10       1.0  0.32760  0.85700  0.25590  1.0000 0.1294289493
H   H11       1.0  0.64300  0.82760  0.00590  1.0000 0.1294289493
H   H12       1.0  0.35700  0.17240  0.50590  1.0000 0.1294289493
H   H13       1.0  0.17240  0.35700  0.49410  1.0000 0.1294289493
H   H14       1.0  0.82760  0.64300  0.99410  1.0000 0.1294289493
H   H15       1.0  0.14300  0.67240  0.24410  1.0000 0.1294289493
H   H16       1.0  0.85700  0.32760  0.74410  1.0000 0.1294289493
H   H17       1.0  0.67390  0.19900  0.03100  1.0000 0.1409446328
H   H18       1.0  0.32610  0.80100  0.53100  1.0000 0.1409446328
H   H19       1.0  0.69900  0.82610  0.28100  1.0000 0.1409446328
H   H20       1.0  0.30100  0.17390  0.78100  1.0000 0.1409446328
H   H21       1.0  0.17390  0.30100  0.21900  1.0000 0.1409446328
H   H22       1.0  0.82610  0.69900  0.71900  1.0000 0.1409446328
H   H23       1.0  0.19900  0.67390  0.96900  1.0000 0.1409446328
H   H24       1.0  0.80100  0.32610  0.46900  1.0000 0.1409446328
H   H25       1.0  0.63940  0.12600  0.04820  1.0000 0.122083926
H   H26       1.0  0.36060  0.87400  0.54820  1.0000 0.122083926
H   H27       1.0  0.62600  0.86060  0.29820  1.0000 0.122083926
H   H28       1.0  0.37400  0.13940  0.79820  1.0000 0.122083926
H   H29       1.0  0.13940  0.37400  0.20180  1.0000 0.122083926
H   H30       1.0  0.86060  0.62600  0.70180  1.0000 0.122083926
H   H31       1.0  0.12600  0.63940  0.95180  1.0000 0.122083926
H   H32       1.0  0.87400  0.36060  0.45180  1.0000 0.122083926
H   H33       1.0  0.62810  0.19910  0.75150  1.0000 0.122083926
H   H34       1.0  0.37190  0.80090  0.25150  1.0000 0.122083926
H   H35       1.0  0.69910  0.87190  0.00150  1.0000 0.122083926
H   H36       1.0  0.30090  0.12810  0.50150  1.0000 0.122083926
H   H37       1.0  0.12810  0.30090  0.49850  1.0000 0.122083926
H   H38       1.0  0.87190  0.69910  0.99850  1.0000 0.122083926
H   H39       1.0  0.19910  0.62810  0.24850  1.0000 0.122083926
H   H40       1.0  0.80090  0.37190  0.74850  1.0000 0.122083926
H   H41       1.0  0.59140  0.17790  0.69470  1.0000 0.1409446328
H   H42       1.0  0.40860  0.82210  0.19470  1.0000 0.1409446328
H   H43       1.0  0.67790  0.90860  0.94470  1.0000 0.1409446328
H   H44       1.0  0.32210  0.09140  0.44470  1.0000 0.1409446328
H   H45       1.0  0.09140  0.32210  0.55530  1.0000 0.1409446328
H   H46       1.0  0.90860  0.67790  0.05530  1.0000 0.1409446328
H   H47       1.0  0.17790  0.59140  0.30530  1.0000 0.1409446328
H   H48       1.0  0.82210  0.40860  0.80530  1.0000 0.1409446328
H   H49       1.0  0.58380  0.21630  0.76550  1.0000 0.1409446328
H   H50       1.0  0.41620  0.78370  0.26550  1.0000 0.1409446328
H   H51       1.0  0.71630  0.91620  0.01550  1.0000 0.1409446328
H   H52       1.0  0.28370  0.08380  0.51550  1.0000 0.1409446328
H   H53       1.0  0.08380  0.28370  0.48450  1.0000 0.1409446328
H   H54       1.0  0.91620  0.71630  0.98450  1.0000 0.1409446328
H   H55       1.0  0.21630  0.58380  0.23450  1.0000 0.1409446328
H   H56       1.0  0.78370  0.41620  0.73450  1.0000 0.1409446328
H   H57       1.0  0.43040  0.17950  0.64190  1.0000 0.113435137
H   H58       1.0  0.56960  0.82050  0.14190  1.0000 0.113435137
H   H59       1.0  0.67950  0.06960  0.89190  1.0000 0.113435137
H   H60       1.0  0.32050  0.93040  0.39190  1.0000 0.113435137
H   H61       1.0  0.93040  0.32050  0.60810  1.0000 0.113435137
H   H62       1.0  0.06960  0.67950  0.10810  1.0000 0.113435137
H   H63       1.0  0.17950  0.43040  0.35810  1.0000 0.113435137
H   H64       1.0  0.82050  0.56960  0.85810  1.0000 0.113435137
H   H65       1.0  0.48010  0.23230  0.94560  1.0000 0.1294289493
H   H66       1.0  0.51990  0.76770  0.44560  1.0000 0.1294289493
H   H67       1.0  0.73230  0.01990  0.19560  1.0000 0.1294289493
H   H68       1.0  0.26770  0.98010  0.69560  1.0000 0.1294289493
H   H69       1.0  0.98010  0.26770  0.30440  1.0000 0.1294289493
H   H70       1.0  0.01990  0.73230  0.80440  1.0000 0.1294289493
H   H71       1.0  0.23230  0.48010  0.05440  1.0000 0.1294289493
H   H72       1.0  0.76770  0.51990  0.55440  1.0000 0.1294289493
H   H73       1.0  0.50590  0.19590  0.99010  1.0000 0.1409446328
H   H74       1.0  0.49410  0.80410  0.49010  1.0000 0.1409446328
H   H75       1.0  0.69590  0.99410  0.24010  1.0000 0.1409446328
H   H76       1.0  0.30410  0.00590  0.74010  1.0000 0.1409446328
H   H77       1.0  0.00590  0.30410  0.25990  1.0000 0.1409446328
H   H78       1.0  0.99410  0.69590  0.75990  1.0000 0.1409446328
H   H79       1.0  0.19590  0.50590  0.00990  1.0000 0.1409446328
H   H80       1.0  0.80410  0.49410  0.50990  1.0000 0.1409446328
H   H81       1.0  0.52670  0.22880  0.91850  1.0000 0.1409446328
H   H82       1.0  0.47330  0.77120  0.41850  1.0000 0.1409446328
H   H83       1.0  0.72880  0.97330  0.16850  1.0000 0.1409446328
H   H84       1.0  0.27120  0.02670  0.66850  1.0000 0.1409446328
H   H85       1.0  0.02670  0.27120  0.33150  1.0000 0.1409446328
H   H86       1.0  0.97330  0.72880  0.83150  1.0000 0.1409446328
H   H87       1.0  0.22880  0.52670  0.08150  1.0000 0.1409446328
H   H88       1.0  0.77120  0.47330  0.58150  1.0000 0.1409446328
H   H89       1.0  0.41890  0.25400  0.67630  1.0000 0.1294289493
H   H90       1.0  0.58110  0.74600  0.17630  1.0000 0.1294289493
H   H91       1.0  0.75400  0.08110  0.92630  1.0000 0.1294289493
H   H92       1.0  0.24600  0.91890  0.42630  1.0000 0.1294289493
H   H93       1.0  0.91890  0.24600  0.57370  1.0000 0.1294289493
H   H94       1.0  0.08110  0.75400  0.07370  1.0000 0.1294289493
H   H95       1.0  0.25400  0.41890  0.32370  1.0000 0.1294289493
H   H96       1.0  0.74600  0.58110  0.82370  1.0000 0.1294289493
H   H97       1.0  0.34870  0.29590  0.90550  1.0000 0.1467930778
H   H98       1.0  0.65130  0.70410  0.40550  1.0000 0.1467930778
H   H99       1.0  0.79590  0.15130  0.15550  1.0000 0.1467930778
H   H100      1.0  0.20410  0.84870  0.65550  1.0000 0.1467930778
H   H101      1.0  0.84870  0.20410  0.34450  1.0000 0.1467930778
H   H102      1.0  0.15130  0.79590  0.84450  1.0000 0.1467930778
H   H103      1.0  0.29590  0.34870  0.09450  1.0000 0.1467930778
H   H104      1.0  0.70410  0.65130  0.59450  1.0000 0.1467930778
H   H105      1.0  0.42260  0.20170  0.95610  1.0000 0.1294289493
H   H106      1.0  0.57740  0.79830  0.45610  1.0000 0.1294289493
H   H107      1.0  0.70170  0.07740  0.20610  1.0000 0.1294289493
H   H108      1.0  0.29830  0.92260  0.70610  1.0000 0.1294289493
H   H109      1.0  0.92260  0.29830  0.29390  1.0000 0.1294289493
H   H110      1.0  0.07740  0.70170  0.79390  1.0000 0.1294289493
H   H111      1.0  0.20170  0.42260  0.04390  1.0000 0.1294289493
H   H112      1.0  0.79830  0.57740  0.54390  1.0000 0.1294289493
H   H113      1.0  0.55040  0.03620  0.15980  1.0000 0.1467930778
H   H114      1.0  0.44960  0.96380  0.65980  1.0000 0.1467930778
H   H115      1.0  0.53620  0.94960  0.40980  1.0000 0.1467930778
H   H116      1.0  0.46380  0.05040  0.90980  1.0000 0.1467930778
H   H117      1.0  0.05040  0.46380  0.09020  1.0000 0.1467930778
H   H118      1.0  0.94960  0.53620  0.59020  1.0000 0.1467930778
H   H119      1.0  0.03620  0.55040  0.84020  1.0000 0.1467930778
H   H120      1.0  0.96380  0.44960  0.34020  1.0000 0.1467930778
H   H121      1.0  0.53020  0.05440  0.05910  1.0000 0.1467930778
H   H122      1.0  0.46980  0.94560  0.55910  1.0000 0.1467930778
H   H123      1.0  0.55440  0.96980  0.30910  1.0000 0.1467930778
H   H124      1.0  0.44560  0.03020  0.80910  1.0000 0.1467930778
H   H125      1.0  0.03020  0.44560  0.19090  1.0000 0.1467930778
H   H126      1.0  0.96980  0.55440  0.69090  1.0000 0.1467930778
H   H127      1.0  0.05440  0.53020  0.94090  1.0000 0.1467930778
H   H128      1.0  0.94560  0.46980  0.44090  1.0000 0.1467930778
H   H129      1.0  0.57490  0.03730  0.05450  1.0000 0.1409446328
H   H130      1.0  0.42510  0.96270  0.55450  1.0000 0.1409446328
H   H131      1.0  0.53730  0.92510  0.30450  1.0000 0.1409446328
H   H132      1.0  0.46270  0.07490  0.80450  1.0000 0.1409446328
H   H133      1.0  0.07490  0.46270  0.19550  1.0000 0.1409446328
H   H134      1.0  0.92510  0.53730  0.69550  1.0000 0.1409446328
H   H135      1.0  0.03730  0.57490  0.94550  1.0000 0.1409446328
H   H136      1.0  0.96270  0.42510  0.44550  1.0000 0.1409446328
H   H137      1.0  0.53700  0.09860  0.25610  1.0000 0.1294289493
H   H138      1.0  0.46300  0.90140  0.75610  1.0000 0.1294289493
H   H139      1.0  0.59860  0.96300  0.50610  1.0000 0.1294289493
H   H140      1.0  0.40140  0.03700  0.00610  1.0000 0.1294289493
H   H141      1.0  0.03700  0.40140  0.99390  1.0000 0.1294289493
H   H142      1.0  0.96300  0.59860  0.49390  1.0000 0.1294289493
H   H143      1.0  0.09860  0.53700  0.74390  1.0000 0.1294289493
H   H144      1.0  0.90140  0.46300  0.24390  1.0000 0.1294289493
H   H145      1.0  0.55180  0.14110  0.21370  1.0000 0.1294289493
H   H146      1.0  0.44820  0.85890  0.71370  1.0000 0.1294289493
H   H147      1.0  0.64110  0.94820  0.46370  1.0000 0.1294289493
H   H148      1.0  0.35890  0.05180  0.96370  1.0000 0.1294289493
H   H149      1.0  0.05180  0.35890  0.03630  1.0000 0.1294289493
H   H150      1.0  0.94820  0.64110  0.53630  1.0000 0.1294289493
H   H151      1.0  0.14110  0.55180  0.78630  1.0000 0.1294289493
H   H152      1.0  0.85890  0.44820  0.28630  1.0000 0.1294289493
H   H153      1.0  0.51610  0.11800  0.15760  1.0000 0.1409446328
H   H154      1.0  0.48390  0.88200  0.65760  1.0000 0.1409446328
H   H155      1.0  0.61800  0.98390  0.40760  1.0000 0.1409446328
H   H156      1.0  0.38200  0.01610  0.90760  1.0000 0.1409446328
H   H157      1.0  0.01610  0.38200  0.09240  1.0000 0.1409446328
H   H158      1.0  0.98390  0.61800  0.59240  1.0000 0.1409446328
H   H159      1.0  0.11800  0.51610  0.84240  1.0000 0.1409446328
H   H160      1.0  0.88200  0.48390  0.34240  1.0000 0.1409446328
H   H161      1.0  0.60280  0.07150  0.24790  1.0000 0.1467930778
H   H162      1.0  0.39720  0.92850  0.74790  1.0000 0.1467930778
H   H163      1.0  0.57150  0.89720  0.49790  1.0000 0.1467930778
H   H164      1.0  0.42850  0.10280  0.99790  1.0000 0.1467930778
H   H165      1.0  0.10280  0.42850  0.00210  1.0000 0.1467930778
H   H166      1.0  0.89720  0.57150  0.50210  1.0000 0.1467930778
H   H167      1.0  0.07150  0.60280  0.75210  1.0000 0.1467930778
H   H168      1.0  0.92850  0.39720  0.25210  1.0000 0.1467930778
H   H169      1.0  0.62880  0.07240  0.14500  1.0000 0.1294289493
H   H170      1.0  0.37120  0.92760  0.64500  1.0000 0.1294289493
H   H171      1.0  0.57240  0.87120  0.39500  1.0000 0.1294289493
H   H172      1.0  0.42760  0.12880  0.89500  1.0000 0.1294289493
H   H173      1.0  0.12880  0.42760  0.10500  1.0000 0.1294289493
H   H174      1.0  0.87120  0.57240  0.60500  1.0000 0.1294289493
H   H175      1.0  0.07240  0.62880  0.85500  1.0000 0.1294289493
H   H176      1.0  0.92760  0.37120  0.35500  1.0000 0.1294289493
H   H177      1.0  0.62040  0.11300  0.20650  1.0000 0.1294289493
H   H178      1.0  0.37960  0.88700  0.70650  1.0000 0.1294289493
H   H179      1.0  0.61300  0.87960  0.45650  1.0000 0.1294289493
H   H180      1.0  0.38700  0.12040  0.95650  1.0000 0.1294289493
H   H181      1.0  0.12040  0.38700  0.04350  1.0000 0.1294289493
H   H182      1.0  0.87960  0.61300  0.54350  1.0000 0.1294289493
H   H183      1.0  0.11300  0.62040  0.79350  1.0000 0.1294289493
H   H184      1.0  0.88700  0.37960  0.29350  1.0000 0.1294289493
H   H185      1.0  0.47130  0.06660  0.49420  1.0000 0.1409446328
H   H186      1.0  0.52870  0.93340  0.99420  1.0000 0.1467930778
H   H187      1.0  0.56660  0.02870  0.74420  1.0000 0.1409446328
H   H188      1.0  0.43340  0.97130  0.24420  1.0000 0.1409446328
H   H189      1.0  0.97130  0.43340  0.75580  1.0000 0.1409446328
H   H190      1.0  0.02870  0.56660  0.25580  1.0000 0.1409446328
H   H191      1.0  0.06660  0.47130  0.50580  1.0000 0.1409446328
H   H192      1.0  0.93340  0.52870  0.00580  1.0000 0.1409446328
H   H193      1.0  0.49890  0.07020  0.59380  1.0000 0.1467930778
H   H194      1.0  0.50110  0.92980  0.09380  1.0000 0.1467930778
H   H195      1.0  0.57020  0.00110  0.84380  1.0000 0.1467930778
H   H196      1.0  0.42980  0.99890  0.34380  1.0000 0.1467930778
H   H197      1.0  0.99890  0.42980  0.65620  1.0000 0.1467930778
H   H198      1.0  0.00110  0.57020  0.15620  1.0000 0.1467930778
H   H199      1.0  0.07020  0.49890  0.40620  1.0000 0.1467930778
H   H200      1.0  0.92980  0.50110  0.90620  1.0000 0.1467930778
H   H201      1.0  0.45130  0.07300  0.60430  1.0000 0.1409446328
H   H202      1.0  0.54870  0.92700  0.10430  1.0000 0.1409446328
H   H203      1.0  0.57300  0.04870  0.85430  1.0000 0.1409446328
H   H204      1.0  0.42700  0.95130  0.35430  1.0000 0.1409446328
H   H205      1.0  0.95130  0.42700  0.64570  1.0000 0.1409446328
H   H206      1.0  0.04870  0.57300  0.14570  1.0000 0.1409446328
H   H207      1.0  0.07300  0.45130  0.39570  1.0000 0.1409446328
H   H208      1.0  0.92700  0.54870  0.89570  1.0000 0.1409446328
H   H209      1.0  0.50990  0.12220  0.41060  1.0000 0.1294289493
H   H210      1.0  0.49010  0.87780  0.91060  1.0000 0.1294289493
H   H211      1.0  0.62220  0.99010  0.66060  1.0000 0.1294289493
H   H212      1.0  0.37780  0.00990  0.16060  1.0000 0.1294289493
H   H213      1.0  0.00990  0.37780  0.83940  1.0000 0.1294289493
H   H214      1.0  0.99010  0.62220  0.33940  1.0000 0.1294289493
H   H215      1.0  0.12220  0.50990  0.58940  1.0000 0.1294289493
H   H216      1.0  0.87780  0.49010  0.08940  1.0000 0.1294289493
H   H217      1.0  0.51350  0.16470  0.46640  1.0000 0.122083926
H   H218      1.0  0.48650  0.83530  0.96640  1.0000 0.122083926
H   H219      1.0  0.66470  0.98650  0.71640  1.0000 0.122083926
H   H220      1.0  0.33530  0.01350  0.21640  1.0000 0.122083926
H   H221      1.0  0.01350  0.33530  0.78360  1.0000 0.122083926
H   H222      1.0  0.98650  0.66470  0.28360  1.0000 0.122083926
H   H223      1.0  0.16470  0.51350  0.53360  1.0000 0.122083926
H   H224      1.0  0.83530  0.48650  0.03360  1.0000 0.122083926
H   H225      1.0  0.53760  0.12690  0.50970  1.0000 0.1409446328
H   H226      1.0  0.46240  0.87310  0.00970  1.0000 0.1409446328
H   H227      1.0  0.62690  0.96240  0.75970  1.0000 0.1409446328
H   H228      1.0  0.37310  0.03760  0.25970  1.0000 0.1409446328
H   H229      1.0  0.03760  0.37310  0.74030  1.0000 0.1409446328
H   H230      1.0  0.96240  0.62690  0.24030  1.0000 0.1409446328
H   H231      1.0  0.12690  0.53760  0.49030  1.0000 0.1409446328
H   H232      1.0  0.87310  0.46240  0.99030  1.0000 0.1409446328
H   H233      1.0  0.43680  0.12230  0.42760  1.0000 0.1467930778
H   H234      1.0  0.56320  0.87770  0.92760  1.0000 0.1467930778
H   H235      1.0  0.62230  0.06320  0.67760  1.0000 0.1467930778
H   H236      1.0  0.37770  0.93680  0.17760  1.0000 0.1467930778
H   H237      1.0  0.93680  0.37770  0.82240  1.0000 0.1467930778
H   H238      1.0  0.06320  0.62230  0.32240  1.0000 0.1467930778
H   H239      1.0  0.12230  0.43680  0.57240  1.0000 0.1467930778
H   H240      1.0  0.87770  0.56320  0.07240  1.0000 0.1467930778
H   H241      1.0  0.41560  0.12930  0.53610  1.0000 0.122083926
H   H242      1.0  0.58440  0.87070  0.03610  1.0000 0.122083926
H   H243      1.0  0.62930  0.08440  0.78610  1.0000 0.122083926
H   H244      1.0  0.37070  0.91560  0.28610  1.0000 0.122083926
H   H245      1.0  0.91560  0.37070  0.71390  1.0000 0.122083926
H   H246      1.0  0.08440  0.62930  0.21390  1.0000 0.122083926
H   H247      1.0  0.12930  0.41560  0.46390  1.0000 0.122083926
H   H248      1.0  0.87070  0.58440  0.96390  1.0000 0.122083926
H   H249      1.0  0.43860  0.16530  0.48090  1.0000 0.1294289493
H   H250      1.0  0.56140  0.83470  0.98090  1.0000 0.1294289493
H   H251      1.0  0.66530  0.06140  0.73090  1.0000 0.1294289493
H   H252      1.0  0.33470  0.93860  0.23090  1.0000 0.1294289493
H   H253      1.0  0.93860  0.33470  0.76910  1.0000 0.1294289493
H   H254      1.0  0.06140  0.66530  0.26910  1.0000 0.1294289493
H   H255      1.0  0.16530  0.43860  0.51910  1.0000 0.1294289493
H   H256      1.0  0.83470  0.56140  0.01910  1.0000 0.1294289493
C   C1        1.0  0.74580  0.23320  0.02300  1.0000 0.609650257
C   C2        1.0  0.25420  0.76680  0.52300  1.0000 0.609650257
C   C3        1.0  0.73320  0.75420  0.27300  1.0000 0.609650257
C   C4        1.0  0.26680  0.24580  0.77300  1.0000 0.609650257
C   C5        1.0  0.24580  0.26680  0.22700  1.0000 0.609650257
C   C6        1.0  0.75420  0.73320  0.72700  1.0000 0.609650257
C   C7        1.0  0.23320  0.74580  0.97700  1.0000 0.609650257
C   C8        1.0  0.76680  0.25420  0.47700  1.0000 0.609650257
C   C9        1.0  0.72569  0.20510  0.95010  1.0000 -0.0221110997
C   C10       1.0  0.27431  0.79490  0.45010  1.0000 -0.0221110997
C   C11       1.0  0.70510  0.77431  0.20010  1.0000 -0.0221110997
C   C12       1.0  0.29490  0.22569  0.70010  1.0000 -0.0221110997
C   C13       1.0  0.22569  0.29490  0.29990  1.0000 -0.0221110997
C   C14       1.0  0.77431  0.70510  0.79990  1.0000 -0.0221110997
C   C15       1.0  0.20510  0.72569  0.04990  1.0000 -0.0221110997
C   C16       1.0  0.79490  0.27431  0.54990  1.0000 -0.0221110997
C   C17       1.0  0.74467  0.19497  0.85900  1.0000 -0.1220479766
C   C18       1.0  0.25533  0.80503  0.35900  1.0000 -0.1220479766
C   C19       1.0  0.69497  0.75533  0.10900  1.0000 -0.1220479766
C   C20       1.0  0.30503  0.24467  0.60900  1.0000 -0.1220479766
C   C21       1.0  0.24467  0.30503  0.39100  1.0000 -0.1220479766
C   C22       1.0  0.75533  0.69497  0.89100  1.0000 -0.1220479766
C   C23       1.0  0.19497  0.74467  0.14100  1.0000 -0.1220479766
C   C24       1.0  0.80503  0.25533  0.64100  1.0000 -0.1220479766
C   C25       1.0  0.72482  0.17183  0.78670  1.0000 -0.0221110997
C   C26       1.0  0.27518  0.82817  0.28670  1.0000 -0.0221110997
C   C27       1.0  0.67183  0.77518  0.03670  1.0000 -0.0221110997
C   C28       1.0  0.32817  0.22482  0.53670  1.0000 -0.0221110997
C   C29       1.0  0.22482  0.32817  0.46330  1.0000 -0.0221110997
C   C30       1.0  0.77518  0.67183  0.96330  1.0000 -0.0221110997
C   C31       1.0  0.17183  0.72482  0.21330  1.0000 -0.0221110997
C   C32       1.0  0.82817  0.27518  0.71330  1.0000 -0.0221110997
C   C33       1.0  0.68599  0.15881  0.80530  1.0000 -0.1306287992
C   C34       1.0  0.31401  0.84119  0.30530  1.0000 -0.1306287992
C   C35       1.0  0.65881  0.81401  0.05530  1.0000 -0.1306287992
C   C36       1.0  0.34119  0.18599  0.55530  1.0000 -0.1306287992
C   C37       1.0  0.18599  0.34119  0.44470  1.0000 -0.1306287992
C   C38       1.0  0.81401  0.65881  0.94470  1.0000 -0.1306287992
C   C39       1.0  0.15881  0.68599  0.19470  1.0000 -0.1306287992
C   C40       1.0  0.84119  0.31401  0.69470  1.0000 -0.1306287992
C   C41       1.0  0.66701  0.16894  0.89640  1.0000 0.0893464232
C   C42       1.0  0.33299  0.83106  0.39640  1.0000 0.0893464232
C   C43       1.0  0.66894  0.83299  0.14640  1.0000 0.0893464232
C   C44       1.0  0.33106  0.16701  0.64640  1.0000 0.0893464232
C   C45       1.0  0.16701  0.33106  0.35360  1.0000 0.0893464232
C   C46       1.0  0.83299  0.66894  0.85360  1.0000 0.0893464232
C   C47       1.0  0.16894  0.66701  0.10360  1.0000 0.0893464232
C   C48       1.0  0.83106  0.33299  0.60360  1.0000 0.0893464232
C   C49       1.0  0.68685  0.19208  0.96880  1.0000 -0.141262374
C   C50       1.0  0.31315  0.80792  0.46880  1.0000 -0.141262374
C   C51       1.0  0.69208  0.81315  0.21880  1.0000 -0.141262374
C   C52       1.0  0.30792  0.18685  0.71880  1.0000 -0.141262374
C   C53       1.0  0.18685  0.30792  0.28120  1.0000 -0.141262374
C   C54       1.0  0.81315  0.69208  0.78120  1.0000 -0.141262374
C   C55       1.0  0.19208  0.68685  0.03120  1.0000 -0.141262374
C   C56       1.0  0.80792  0.31315  0.53120  1.0000 -0.141262374
C   C57       1.0  0.74510  0.16020  0.69130  1.0000 0.5790186701
C   C58       1.0  0.25490  0.83980  0.19130  1.0000 0.5790186701
C   C59       1.0  0.66020  0.75490  0.94130  1.0000 0.5790186701
C   C60       1.0  0.33980  0.24510  0.44130  1.0000 0.5790186701
C   C61       1.0  0.24510  0.33980  0.55870  1.0000 0.5790186701
C   C62       1.0  0.75490  0.66020  0.05870  1.0000 0.5790186701
C   C63       1.0  0.16020  0.74510  0.30870  1.0000 0.5790186701
C   C64       1.0  0.83980  0.25490  0.80870  1.0000 0.5790186701
C   C65       1.0  0.62498  0.15518  0.91620  1.0000 -0.0032242093
C   C66       1.0  0.37502  0.84482  0.41620  1.0000 -0.0032242093
C   C67       1.0  0.65518  0.87502  0.16620  1.0000 -0.0032242093
C   C68       1.0  0.34482  0.12498  0.66620  1.0000 -0.0032242093
C   C69       1.0  0.12498  0.34482  0.33380  1.0000 -0.0032242093
C   C70       1.0  0.87502  0.65518  0.83380  1.0000 -0.0032242093
C   C71       1.0  0.15518  0.62498  0.08380  1.0000 -0.0032242093
C   C72       1.0  0.84482  0.37502  0.58380  1.0000 -0.0032242093
C   C73       1.0  0.59362  0.16434  0.85040  1.0000 0.0893464232
C   C74       1.0  0.40638  0.83566  0.35040  1.0000 0.0893464232
C   C75       1.0  0.66434  0.90638  0.10040  1.0000 0.0893464232
C   C76       1.0  0.33566  0.09362  0.60040  1.0000 0.0893464232
C   C77       1.0  0.09362  0.33566  0.39960  1.0000 0.0893464232
C   C78       1.0  0.90638  0.66434  0.89960  1.0000 0.0893464232
C   C79       1.0  0.16434  0.59362  0.14960  1.0000 0.0893464232
C   C80       1.0  0.83566  0.40638  0.64960  1.0000 0.0893464232
C   C81       1.0  0.55522  0.15062  0.87150  1.0000 -0.0280108932
C   C82       1.0  0.44478  0.84938  0.37150  1.0000 -0.0280108932
C   C83       1.0  0.65062  0.94478  0.12150  1.0000 -0.0280108932
C   C84       1.0  0.34938  0.05522  0.62150  1.0000 -0.0280108932
C   C85       1.0  0.05522  0.34938  0.37850  1.0000 -0.0280108932
C   C86       1.0  0.94478  0.65062  0.87850  1.0000 -0.0280108932
C   C87       1.0  0.15062  0.55522  0.12850  1.0000 -0.0280108932
C   C88       1.0  0.84938  0.44478  0.62850  1.0000 -0.0280108932
C   C89       1.0  0.54819  0.12773  0.95850  1.0000 0.1905907755
C   C90       1.0  0.45181  0.87227  0.45850  1.0000 0.1905907755
C   C91       1.0  0.62773  0.95181  0.20850  1.0000 0.1905907755
C   C92       1.0  0.37227  0.04819  0.70850  1.0000 0.1905907755
C   C93       1.0  0.04819  0.37227  0.29150  1.0000 0.1905907755
C   C94       1.0  0.95181  0.62773  0.79150  1.0000 0.1905907755
C   C95       1.0  0.12773  0.54819  0.04150  1.0000 0.1905907755
C   C96       1.0  0.87227  0.45181  0.54150  1.0000 0.1905907755
C   C97       1.0  0.57955  0.11857  0.02440  1.0000 -0.0106231182
C   C98       1.0  0.42045  0.88143  0.52440  1.0000 -0.0106231182
C   C99       1.0  0.61857  0.92045  0.27440  1.0000 -0.0106231182
C   C100      1.0  0.38143  0.07955  0.77440  1.0000 -0.0106231182
C   C101      1.0  0.07955  0.38143  0.22560  1.0000 -0.0106231182
C   C102      1.0  0.92045  0.61857  0.72560  1.0000 -0.0106231182
C   C103      1.0  0.11857  0.57955  0.97560  1.0000 -0.0106231182
C   C104      1.0  0.88143  0.42045  0.47560  1.0000 -0.0106231182
C   C105      1.0  0.61794  0.13230  0.00320  1.0000 -0.1839997257
C   C106      1.0  0.38206  0.86770  0.50320  1.0000 -0.1839997257
C   C107      1.0  0.63230  0.88206  0.25320  1.0000 -0.1839997257
C   C108      1.0  0.36770  0.11794  0.75320  1.0000 -0.1839997257
C   C109      1.0  0.11794  0.36770  0.24680  1.0000 -0.1839997257
C   C110      1.0  0.88206  0.63230  0.74680  1.0000 -0.1839997257
C   C111      1.0  0.13230  0.61794  0.99680  1.0000 -0.1839997257
C   C112      1.0  0.86770  0.38206  0.49680  1.0000 -0.1839997257
C   C113      1.0  0.59980  0.19190  0.75700  1.0000 -0.4201307652
C   C114      1.0  0.40020  0.80810  0.25700  1.0000 -0.4201307652
C   C115      1.0  0.69190  0.90020  0.00700  1.0000 -0.4201307652
C   C116      1.0  0.30810  0.09980  0.50700  1.0000 -0.4201307652
C   C117      1.0  0.09980  0.30810  0.49300  1.0000 -0.4201307652
C   C118      1.0  0.90020  0.69190  0.99300  1.0000 -0.4201307652
C   C119      1.0  0.19190  0.59980  0.24300  1.0000 -0.4201307652
C   C120      1.0  0.80810  0.40020  0.74300  1.0000 -0.4201307652
C   C121      1.0  0.52003  0.16037  0.80480  1.0000 -0.0280108932
C   C122      1.0  0.47997  0.83963  0.30480  1.0000 -0.0280108932
C   C123      1.0  0.66037  0.97997  0.05480  1.0000 -0.0280108932
C   C124      1.0  0.33963  0.02003  0.55480  1.0000 -0.0280108932
C   C125      1.0  0.02003  0.33963  0.44520  1.0000 -0.0280108932
C   C126      1.0  0.97997  0.66037  0.94520  1.0000 -0.0280108932
C   C127      1.0  0.16037  0.52003  0.19520  1.0000 -0.0280108932
C   C128      1.0  0.83963  0.47997  0.69520  1.0000 -0.0280108932
C   C129      1.0  0.51504  0.13955  0.71360  1.0000 0.1905907755
C   C130      1.0  0.48496  0.86045  0.21360  1.0000 0.1905907755
C   C131      1.0  0.63955  0.98496  0.96360  1.0000 0.1905907755
C   C132      1.0  0.36045  0.01504  0.46360  1.0000 0.1905907755
C   C133      1.0  0.01504  0.36045  0.53640  1.0000 0.1905907755
C   C134      1.0  0.98496  0.63955  0.03640  1.0000 0.1905907755
C   C135      1.0  0.13955  0.51504  0.28640  1.0000 0.1905907755
C   C136      1.0  0.86045  0.48496  0.78640  1.0000 0.1905907755
C   C137      1.0  0.48163  0.14667  0.65290  1.0000 -0.0106231182
C   C138      1.0  0.51837  0.85333  0.15290  1.0000 -0.0106231182
C   C139      1.0  0.64667  0.01837  0.90290  1.0000 -0.0106231182
C   C140      1.0  0.35333  0.98163  0.40290  1.0000 -0.0106231182
C   C141      1.0  0.98163  0.35333  0.59710  1.0000 -0.0106231182
C   C142      1.0  0.01837  0.64667  0.09710  1.0000 -0.0106231182
C   C143      1.0  0.14667  0.48163  0.34710  1.0000 -0.0106231182
C   C144      1.0  0.85333  0.51837  0.84710  1.0000 -0.0106231182
C   C145      1.0  0.45321  0.17462  0.68330  1.0000 -0.192014548
C   C146      1.0  0.54679  0.82538  0.18330  1.0000 -0.192014548
C   C147      1.0  0.67462  0.04679  0.93330  1.0000 -0.192014548
C   C148      1.0  0.32538  0.95321  0.43330  1.0000 -0.192014548
C   C149      1.0  0.95321  0.32538  0.56670  1.0000 -0.192014548
C   C150      1.0  0.04679  0.67462  0.06670  1.0000 -0.192014548
C   C151      1.0  0.17462  0.45321  0.31670  1.0000 -0.192014548
C   C152      1.0  0.82538  0.54679  0.81670  1.0000 -0.192014548
C   C153      1.0  0.45821  0.19545  0.77450  1.0000 0.0017237518
C   C154      1.0  0.54179  0.80455  0.27450  1.0000 0.0017237518
C   C155      1.0  0.69545  0.04179  0.02450  1.0000 0.0017237518
C   C156      1.0  0.30455  0.95821  0.52450  1.0000 0.0017237518
C   C157      1.0  0.95821  0.30455  0.47550  1.0000 0.0017237518
C   C158      1.0  0.04179  0.69545  0.97550  1.0000 0.0017237518
C   C159      1.0  0.19545  0.45821  0.22550  1.0000 0.0017237518
C   C160      1.0  0.80455  0.54179  0.72550  1.0000 0.0017237518
C   C161      1.0  0.49162  0.18832  0.83530  1.0000 0.0893464232
C   C162      1.0  0.50838  0.81168  0.33530  1.0000 0.0893464232
C   C163      1.0  0.68832  0.00838  0.08530  1.0000 0.0893464232
C   C164      1.0  0.31168  0.99162  0.58530  1.0000 0.0893464232
C   C165      1.0  0.99162  0.31168  0.41470  1.0000 0.0893464232
C   C166      1.0  0.00838  0.68832  0.91470  1.0000 0.0893464232
C   C167      1.0  0.18832  0.49162  0.16470  1.0000 0.0893464232
C   C168      1.0  0.81168  0.50838  0.66470  1.0000 0.0893464232
C   C169      1.0  0.50210  0.21370  0.93120  1.0000 -0.4274580749
C   C170      1.0  0.49790  0.78630  0.43120  1.0000 -0.4274580749
C   C171      1.0  0.71370  0.99790  0.18120  1.0000 -0.4274580749
C   C172      1.0  0.28630  0.00210  0.68120  1.0000 -0.4274580749
C   C173      1.0  0.00210  0.28630  0.31880  1.0000 -0.4274580749
C   C174      1.0  0.99790  0.71370  0.81880  1.0000 -0.4274580749
C   C175      1.0  0.21370  0.50210  0.06880  1.0000 -0.4274580749
C   C176      1.0  0.78630  0.49790  0.56880  1.0000 -0.4274580749
C   C177      1.0  0.42522  0.22357  0.81060  1.0000 0.0893464232
C   C178      1.0  0.57478  0.77643  0.31060  1.0000 0.0893464232
C   C179      1.0  0.72357  0.07478  0.06060  1.0000 0.0893464232
C   C180      1.0  0.27643  0.92522  0.56060  1.0000 0.0893464232
C   C181      1.0  0.92522  0.27643  0.43940  1.0000 0.0893464232
C   C182      1.0  0.07478  0.72357  0.93940  1.0000 0.0893464232
C   C183      1.0  0.22357  0.42522  0.18940  1.0000 0.0893464232
C   C184      1.0  0.77643  0.57478  0.68940  1.0000 0.0893464232
C   C185      1.0  0.40987  0.25256  0.74520  1.0000 -0.141262374
C   C186      1.0  0.59013  0.74744  0.24520  1.0000 -0.141262374
C   C187      1.0  0.75256  0.09013  0.99520  1.0000 -0.141262374
C   C188      1.0  0.24744  0.90987  0.49520  1.0000 -0.141262374
C   C189      1.0  0.90987  0.24744  0.50480  1.0000 -0.141262374
C   C190      1.0  0.09013  0.75256  0.00480  1.0000 -0.141262374
C   C191      1.0  0.25256  0.40987  0.25480  1.0000 -0.141262374
C   C192      1.0  0.74744  0.59013  0.75480  1.0000 -0.141262374
C   C193      1.0  0.38137  0.27952  0.78060  1.0000 -0.0280108932
C   C194      1.0  0.61863  0.72048  0.28060  1.0000 -0.0280108932
C   C195      1.0  0.77952  0.11863  0.03060  1.0000 -0.0280108932
C   C196      1.0  0.22048  0.88137  0.53060  1.0000 -0.0280108932
C   C197      1.0  0.88137  0.22048  0.46940  1.0000 -0.0280108932
C   C198      1.0  0.11863  0.77952  0.96940  1.0000 -0.0280108932
C   C199      1.0  0.27952  0.38137  0.21940  1.0000 -0.0280108932
C   C200      1.0  0.72048  0.61863  0.71940  1.0000 -0.0280108932
C   C201      1.0  0.36821  0.27748  0.88130  1.0000 -0.0993250581
C   C202      1.0  0.63179  0.72252  0.38130  1.0000 -0.0993250581
C   C203      1.0  0.77748  0.13179  0.13130  1.0000 -0.0993250581
C   C204      1.0  0.22252  0.86821  0.63130  1.0000 -0.0993250581
C   C205      1.0  0.86821  0.22252  0.36870  1.0000 -0.0993250581
C   C206      1.0  0.13179  0.77748  0.86870  1.0000 -0.0993250581
C   C207      1.0  0.27748  0.36821  0.11870  1.0000 -0.0993250581
C   C208      1.0  0.72252  0.63179  0.61870  1.0000 -0.0993250581
C   C209      1.0  0.38356  0.24849  0.94680  1.0000 0.0017237518
C   C210      1.0  0.61644  0.75151  0.44680  1.0000 0.0017237518
C   C211      1.0  0.74849  0.11644  0.19680  1.0000 0.0017237518
C   C212      1.0  0.25151  0.88356  0.69680  1.0000 0.0017237518
C   C213      1.0  0.88356  0.25151  0.30320  1.0000 0.0017237518
C   C214      1.0  0.11644  0.74849  0.80320  1.0000 0.0017237518
C   C215      1.0  0.24849  0.38356  0.05320  1.0000 0.0017237518
C   C216      1.0  0.75151  0.61644  0.55320  1.0000 0.0017237518
C   C217      1.0  0.41206  0.22153  0.91140  1.0000 -0.1306287992
C   C218      1.0  0.58794  0.77847  0.41140  1.0000 -0.1306287992
C   C219      1.0  0.72153  0.08794  0.16140  1.0000 -0.1306287992
C   C220      1.0  0.27847  0.91206  0.66140  1.0000 -0.1306287992
C   C221      1.0  0.91206  0.27847  0.33860  1.0000 -0.1306287992
C   C222      1.0  0.08794  0.72153  0.83860  1.0000 -0.1306287992
C   C223      1.0  0.22153  0.41206  0.08860  1.0000 -0.1306287992
C   C224      1.0  0.77847  0.58794  0.58860  1.0000 -0.1306287992
C   C225      1.0  0.37300  0.24450  0.06040  1.0000 0.544768813
C   C226      1.0  0.62700  0.75550  0.56040  1.0000 0.5452801017
C   C227      1.0  0.74450  0.12700  0.31040  1.0000 0.544768813
C   C228      1.0  0.25550  0.87300  0.81040  1.0000 0.5452801017
C   C229      1.0  0.87300  0.25550  0.18960  1.0000 0.544768813
C   C230      1.0  0.12700  0.74450  0.68960  1.0000 0.5452801017
C   C231      1.0  0.24450  0.37300  0.93960  1.0000 0.5452801017
C   C232      1.0  0.75550  0.62700  0.43960  1.0000 0.544768813
C   C233      1.0  0.36420  0.31000  0.71030  1.0000 0.5929636237
C   C234      1.0  0.63580  0.69000  0.21030  1.0000 0.5929636237
C   C235      1.0  0.81000  0.13580  0.96030  1.0000 0.5929636237
C   C236      1.0  0.19000  0.86420  0.46030  1.0000 0.5929636237
C   C237      1.0  0.86420  0.19000  0.53970  1.0000 0.5929636237
C   C238      1.0  0.13580  0.81000  0.03970  1.0000 0.5929636237
C   C239      1.0  0.31000  0.36420  0.28970  1.0000 0.5929636237
C   C240      1.0  0.69000  0.63580  0.78970  1.0000 0.5929636237
C   C241      1.0  0.57180  0.09350  0.12510  1.0000 0.2981855189
C   C242      1.0  0.42820  0.90650  0.62510  1.0000 0.2981855189
C   C243      1.0  0.59350  0.92820  0.37510  1.0000 0.2981855189
C   C244      1.0  0.40650  0.07180  0.87510  1.0000 0.2981855189
C   C245      1.0  0.07180  0.40650  0.12490  1.0000 0.2981855189
C   C246      1.0  0.92820  0.59350  0.62490  1.0000 0.2981855189
C   C247      1.0  0.09350  0.57180  0.87490  1.0000 0.2981855189
C   C248      1.0  0.90650  0.42820  0.37490  1.0000 0.2981855189
C   C249      1.0  0.55530  0.05150  0.09700  1.0000 -0.4572486075
C   C250      1.0  0.44470  0.94850  0.59700  1.0000 -0.4572486075
C   C251      1.0  0.55150  0.94470  0.34700  1.0000 -0.4572486075
C   C252      1.0  0.44850  0.05530  0.84700  1.0000 -0.4572486075
C   C253      1.0  0.05530  0.44850  0.15300  1.0000 -0.4572486075
C   C254      1.0  0.94470  0.55150  0.65300  1.0000 -0.4572486075
C   C255      1.0  0.05150  0.55530  0.90300  1.0000 -0.4572486075
C   C256      1.0  0.94850  0.44470  0.40300  1.0000 -0.4572486075
C   C257      1.0  0.54140  0.11470  0.19440  1.0000 -0.4572486075
C   C258      1.0  0.45860  0.88530  0.69440  1.0000 -0.4572486075
C   C259      1.0  0.61470  0.95860  0.44440  1.0000 -0.4572486075
C   C260      1.0  0.38530  0.04140  0.94440  1.0000 -0.4572486075
C   C261      1.0  0.04140  0.38530  0.05560  1.0000 -0.4572486075
C   C262      1.0  0.95860  0.61470  0.55560  1.0000 -0.4572486075
C   C263      1.0  0.11470  0.54140  0.80560  1.0000 -0.4572486075
C   C264      1.0  0.88530  0.45860  0.30560  1.0000 -0.4572486075
C   C265      1.0  0.60920  0.08700  0.18640  1.0000 -0.4572486075
C   C266      1.0  0.39080  0.91300  0.68640  1.0000 -0.4572486075
C   C267      1.0  0.58700  0.89080  0.43640  1.0000 -0.4572486075
C   C268      1.0  0.41300  0.10920  0.93640  1.0000 -0.4572486075
C   C269      1.0  0.10920  0.41300  0.06360  1.0000 -0.4572486075
C   C270      1.0  0.89080  0.58700  0.56360  1.0000 -0.4572486075
C   C271      1.0  0.08700  0.60920  0.81360  1.0000 -0.4572486075
C   C272      1.0  0.91300  0.39080  0.31360  1.0000 -0.4572486075
C   C273      1.0  0.47650  0.12470  0.54650  1.0000 0.2928059874
C   C274      1.0  0.52350  0.87530  0.04650  1.0000 0.2928059874
C   C275      1.0  0.62470  0.02350  0.79650  1.0000 0.2928059874
C   C276      1.0  0.37530  0.97650  0.29650  1.0000 0.2928059874
C   C277      1.0  0.97650  0.37530  0.70350  1.0000 0.2928059874
C   C278      1.0  0.02350  0.62470  0.20350  1.0000 0.2928059874
C   C279      1.0  0.12470  0.47650  0.45350  1.0000 0.2928059874
C   C280      1.0  0.87530  0.52350  0.95350  1.0000 0.2928059874
C   C281      1.0  0.47430  0.07960  0.56100  1.0000 -0.4526658704
C   C282      1.0  0.52570  0.92040  0.06100  1.0000 -0.4526658704
C   C283      1.0  0.57960  0.02570  0.81100  1.0000 -0.4526658704
C   C284      1.0  0.42040  0.97430  0.31100  1.0000 -0.4526658704
C   C285      1.0  0.97430  0.42040  0.68900  1.0000 -0.4526658704
C   C286      1.0  0.02570  0.57960  0.18900  1.0000 -0.4526658704
C   C287      1.0  0.07960  0.47430  0.43900  1.0000 -0.4526658704
C   C288      1.0  0.92040  0.52570  0.93900  1.0000 -0.4526658704
C   C289      1.0  0.51270  0.13560  0.47690  1.0000 -0.4526658704
C   C290      1.0  0.48730  0.86440  0.97690  1.0000 -0.4572486075
C   C291      1.0  0.63560  0.98730  0.72690  1.0000 -0.4526658704
C   C292      1.0  0.36440  0.01270  0.22690  1.0000 -0.4526658704
C   C293      1.0  0.01270  0.36440  0.77310  1.0000 -0.4526658704
C   C294      1.0  0.98730  0.63560  0.27310  1.0000 -0.4526658704
C   C295      1.0  0.13560  0.51270  0.52310  1.0000 -0.4526658704
C   C296      1.0  0.86440  0.48730  0.02310  1.0000 -0.4526658704
C   C297      1.0  0.43860  0.13640  0.49320  1.0000 -0.4526658704
C   C298      1.0  0.56140  0.86360  0.99320  1.0000 -0.4526658704
C   C299      1.0  0.63640  0.06140  0.74320  1.0000 -0.4526658704
C   C300      1.0  0.36360  0.93860  0.24320  1.0000 -0.4526658704
C   C301      1.0  0.93860  0.36360  0.75680  1.0000 -0.4526658704
C   C302      1.0  0.06140  0.63640  0.25680  1.0000 -0.4526658704
C   C303      1.0  0.13640  0.43860  0.50680  1.0000 -0.4526658704
C   C304      1.0  0.86360  0.56140  0.00680  1.0000 -0.4526658704
O   O1        1.0  0.72338  0.25016  0.09200  1.0000 -0.5939883935
O   O2        1.0  0.27662  0.74984  0.59200  1.0000 -0.5939883935
O   O3        1.0  0.75016  0.77662  0.34200  1.0000 -0.5939883935
O   O4        1.0  0.24984  0.22338  0.84200  1.0000 -0.5939883935
O   O5        1.0  0.22338  0.24984  0.15800  1.0000 -0.5939883935
O   O6        1.0  0.77662  0.75016  0.65800  1.0000 -0.5939883935
O   O7        1.0  0.25016  0.72338  0.90800  1.0000 -0.5939883935
O   O8        1.0  0.74984  0.27662  0.40800  1.0000 -0.5939883935
O   O9        1.0  0.78308  0.23981  0.01470  1.0000 -0.5544849607
O   O10       1.0  0.21692  0.76019  0.51470  1.0000 -0.5544849607
O   O11       1.0  0.73981  0.71692  0.26470  1.0000 -0.5544849607
O   O12       1.0  0.26019  0.28308  0.76470  1.0000 -0.5544849607
O   O13       1.0  0.28308  0.26019  0.23530  1.0000 -0.5544849607
O   O14       1.0  0.71692  0.73981  0.73530  1.0000 -0.5544849607
O   O15       1.0  0.23981  0.78308  0.98530  1.0000 -0.5553494068
O   O16       1.0  0.76019  0.21692  0.48530  1.0000 -0.5544849607
O   O17       1.0  0.78286  0.16351  0.67890  1.0000 -0.6029507768
O   O18       1.0  0.21714  0.83649  0.17890  1.0000 -0.6029507768
O   O19       1.0  0.66351  0.71714  0.92890  1.0000 -0.6029507768
O   O20       1.0  0.33649  0.28286  0.42890  1.0000 -0.6029507768
O   O21       1.0  0.28286  0.33649  0.57110  1.0000 -0.6029507768
O   O22       1.0  0.71714  0.66351  0.07110  1.0000 -0.6029507768
O   O23       1.0  0.16351  0.78286  0.32110  1.0000 -0.6029507768
O   O24       1.0  0.83649  0.21714  0.82110  1.0000 -0.6029507768
O   O25       1.0  0.72441  0.15012  0.61230  1.0000 -0.5061177882
O   O26       1.0  0.27559  0.84988  0.11230  1.0000 -0.5061177882
O   O27       1.0  0.65012  0.77559  0.86230  1.0000 -0.5061177882
O   O28       1.0  0.34988  0.22441  0.36230  1.0000 -0.5061177882
O   O29       1.0  0.22441  0.34988  0.63770  1.0000 -0.5061177882
O   O30       1.0  0.77559  0.65012  0.13770  1.0000 -0.5061177882
O   O31       1.0  0.15012  0.72441  0.38770  1.0000 -0.5061177882
O   O32       1.0  0.84988  0.27559  0.88770  1.0000 -0.5061177882
O   O33       1.0  0.51065  0.11400  0.97840  1.0000 -0.4130518886
O   O34       1.0  0.48935  0.88600  0.47840  1.0000 -0.4130518886
O   O35       1.0  0.61400  0.98935  0.22840  1.0000 -0.4130518886
O   O36       1.0  0.38600  0.01065  0.72840  1.0000 -0.4130518886
O   O37       1.0  0.01065  0.38600  0.27160  1.0000 -0.4130518886
O   O38       1.0  0.98935  0.61400  0.77160  1.0000 -0.4130518886
O   O39       1.0  0.11400  0.51065  0.02160  1.0000 -0.4130518886
O   O40       1.0  0.88600  0.48935  0.52160  1.0000 -0.4130518886
O   O41       1.0  0.54296  0.11178  0.68520  1.0000 -0.4201307652
O   O42       1.0  0.45704  0.88822  0.18520  1.0000 -0.4130518886
O   O43       1.0  0.61178  0.95704  0.93520  1.0000 -0.4201307652
O   O44       1.0  0.38822  0.04296  0.43520  1.0000 -0.4201307652
O   O45       1.0  0.04296  0.38822  0.56480  1.0000 -0.4201307652
O   O46       1.0  0.95704  0.61178  0.06480  1.0000 -0.4130518886
O   O47       1.0  0.11178  0.54296  0.31480  1.0000 -0.4201307652
O   O48       1.0  0.88822  0.45704  0.81480  1.0000 -0.4201307652
O   O49       1.0  0.37418  0.31188  0.61910  1.0000 -0.5293123695
O   O50       1.0  0.62582  0.68812  0.11910  1.0000 -0.5293123695
O   O51       1.0  0.81188  0.12582  0.86910  1.0000 -0.5293123695
O   O52       1.0  0.18812  0.87418  0.36910  1.0000 -0.5293123695
O   O53       1.0  0.87418  0.18812  0.63090  1.0000 -0.5293123695
O   O54       1.0  0.12582  0.81188  0.13090  1.0000 -0.5293123695
O   O55       1.0  0.31188  0.37418  0.38090  1.0000 -0.5293123695
O   O56       1.0  0.68812  0.62582  0.88090  1.0000 -0.5293123695
O   O57       1.0  0.33756  0.33560  0.75140  1.0000 -0.6029507768
O   O58       1.0  0.66244  0.66440  0.25140  1.0000 -0.6029507768
O   O59       1.0  0.83560  0.16244  0.00140  1.0000 -0.6029507768
O   O60       1.0  0.16440  0.83756  0.50140  1.0000 -0.6029507768
O   O61       1.0  0.83756  0.16440  0.49860  1.0000 -0.6029507768
O   O62       1.0  0.16244  0.83560  0.99860  1.0000 -0.6054396602
O   O63       1.0  0.33560  0.33756  0.24860  1.0000 -0.6029507768
O   O64       1.0  0.66440  0.66244  0.74860  1.0000 -0.6029507768
O   O65       1.0  0.35062  0.27360  0.09220  1.0000 -0.5708814087
O   O66       1.0  0.64938  0.72640  0.59220  1.0000 -0.5708814087
O   O67       1.0  0.77360  0.14938  0.34220  1.0000 -0.5708814087
O   O68       1.0  0.22640  0.85062  0.84220  1.0000 -0.5708814087
O   O69       1.0  0.85062  0.22640  0.15780  1.0000 -0.5708814087
O   O70       1.0  0.14938  0.77360  0.65780  1.0000 -0.5708814087
O   O71       1.0  0.27360  0.35062  0.90780  1.0000 -0.5708814087
O   O72       1.0  0.72640  0.64938  0.40780  1.0000 -0.5708814087
O   O73       1.0  0.38550  0.21790  0.11290  1.0000 -0.4710749137
O   O74       1.0  0.61450  0.78210  0.61290  1.0000 -0.4710749137
O   O75       1.0  0.71790  0.11450  0.36290  1.0000 -0.4710749137
O   O76       1.0  0.28210  0.88550  0.86290  1.0000 -0.4710749137
O   O77       1.0  0.88550  0.28210  0.13710  1.0000 -0.4710749137
O   O78       1.0  0.11450  0.71790  0.63710  1.0000 -0.4710749137
O   O79       1.0  0.21790  0.38550  0.88710  1.0000 -0.4710749137
O   O80       1.0  0.78210  0.61450  0.38710  1.0000 -0.4710749137
