# DDEC6 charges by PACMAN v1.1 (https://github.com/mtap-research/PACMAN-charge/)
data_2014[Zn][nan]3[ASR]11
_chemical_formula_sum              "Zn8 H36 C96 O32"
_cell_length_a       11.078
_cell_length_b       16.012
_cell_length_c       23.804
_cell_angle_alpha    90
_cell_angle_beta     95.333
_cell_angle_gamma    90

_symmetry_space_group_name_H-M    "P 1"
_symmetry_Int_Tables_number       1

loop_
  _symmetry_equiv_pos_as_xyz
  'x, y, z'

loop_
  _atom_site_type_symbol
  _atom_site_label
  _atom_site_symmetry_multiplicity
  _atom_site_fract_x
  _atom_site_fract_y
  _atom_site_fract_z
  _atom_site_occupancy
  _atom_site_charge
Zn  Zn1       1.0  0.04730  0.51772  0.84704  1.0000 0.9467855156
Zn  Zn2       1.0  0.95270  0.01772  0.65296  1.0000 0.9467855156
Zn  Zn3       1.0  0.95270  0.48228  0.15296  1.0000 0.9467855156
Zn  Zn4       1.0  0.04730  0.98228  0.34704  1.0000 0.9467855156
Zn  Zn5       1.0  0.84651  0.65789  0.75916  1.0000 1.0268563838
Zn  Zn6       1.0  0.15349  0.15789  0.74084  1.0000 1.0268563838
Zn  Zn7       1.0  0.15349  0.34211  0.24084  1.0000 1.0268563838
Zn  Zn8       1.0  0.84651  0.84211  0.25916  1.0000 1.0268563838
H   H1        1.0  0.76890  0.49510  0.58530  1.0000 0.1189291221
H   H2        1.0  0.23110  0.99510  0.91470  1.0000 0.1189291221
H   H3        1.0  0.23110  0.50490  0.41470  1.0000 0.1189291221
H   H4        1.0  0.76890  0.00490  0.08530  1.0000 0.1189291221
H   H5        1.0  0.75580  0.61600  0.54000  1.0000 0.1189291221
H   H6        1.0  0.24420  0.11600  0.96000  1.0000 0.1189291221
H   H7        1.0  0.24420  0.38400  0.46000  1.0000 0.1189291221
H   H8        1.0  0.75580  0.88400  0.04000  1.0000 0.1189291221
H   H9        1.0  0.51410  0.26410  0.59590  1.0000 0.1189291221
H   H10       1.0  0.48590  0.76410  0.90410  1.0000 0.1189291221
H   H11       1.0  0.48590  0.73590  0.40410  1.0000 0.1189291221
H   H12       1.0  0.51410  0.23590  0.09590  1.0000 0.1189291221
H   H13       1.0  0.67110  0.75280  0.56110  1.0000 0.1148037524
H   H14       1.0  0.32890  0.25280  0.93890  1.0000 0.1148037524
H   H15       1.0  0.32890  0.24720  0.43890  1.0000 0.1148037524
H   H16       1.0  0.67110  0.74720  0.06110  1.0000 0.1148037524
H   H17       1.0  0.88840  0.92040  0.49520  1.0000 0.1407382288
H   H18       1.0  0.11160  0.42040  0.00480  1.0000 0.1407382288
H   H19       1.0  0.11160  0.07960  0.50480  1.0000 0.1407382288
H   H20       1.0  0.88840  0.57960  0.99520  1.0000 0.1407382288
H   H21       1.0  0.70370  0.75440  0.39590  1.0000 0.1189291221
H   H22       1.0  0.29630  0.25440  0.10410  1.0000 0.1189291221
H   H23       1.0  0.29630  0.24560  0.60410  1.0000 0.1189291221
H   H24       1.0  0.70370  0.74560  0.89590  1.0000 0.1189291221
H   H25       1.0  0.72380  0.23180  0.61590  1.0000 0.1189291221
H   H26       1.0  0.27620  0.73180  0.88410  1.0000 0.1189291221
H   H27       1.0  0.27620  0.76820  0.38410  1.0000 0.1189291221
H   H28       1.0  0.72380  0.26820  0.11590  1.0000 0.1189291221
H   H29       1.0  0.93020  0.30360  0.75360  1.0000 0.1407382288
H   H30       1.0  0.06980  0.80360  0.74640  1.0000 0.1407382288
H   H31       1.0  0.06980  0.69640  0.24640  1.0000 0.1407382288
H   H32       1.0  0.93020  0.19640  0.25360  1.0000 0.1407382288
H   H33       1.0  0.69740  0.46510  0.67290  1.0000 0.1189291221
H   H34       1.0  0.30260  0.96510  0.82710  1.0000 0.1189291221
H   H35       1.0  0.30260  0.53490  0.32710  1.0000 0.1189291221
H   H36       1.0  0.69740  0.03490  0.17290  1.0000 0.1189291221
C   C1        1.0  0.69900  0.50680  0.56190  1.0000 -0.1413491247
C   C2        1.0  0.30100  0.00680  0.93810  1.0000 -0.1413491247
C   C3        1.0  0.30100  0.49320  0.43810  1.0000 -0.1413491247
C   C4        1.0  0.69900  0.99320  0.06190  1.0000 -0.1413491247
C   C5        1.0  0.69200  0.57840  0.53430  1.0000 -0.1413491247
C   C6        1.0  0.30800  0.07840  0.96570  1.0000 -0.1413491247
C   C7        1.0  0.30800  0.42160  0.46570  1.0000 -0.1413491247
C   C8        1.0  0.69200  0.92160  0.03430  1.0000 -0.1413491247
C   C9        1.0  0.58970  0.60020  0.49590  1.0000 0.027073972
C   C10       1.0  0.41030  0.10020  0.00410  1.0000 0.027073972
C   C11       1.0  0.41030  0.39980  0.50410  1.0000 0.027073972
C   C12       1.0  0.58970  0.89980  0.99590  1.0000 0.027073972
C   C13       1.0  0.50260  0.46070  0.51590  1.0000 0.009336499
C   C14       1.0  0.49740  0.96070  0.98410  1.0000 0.009336499
C   C15       1.0  0.49740  0.53930  0.48410  1.0000 0.009336499
C   C16       1.0  0.50260  0.03930  0.01590  1.0000 0.009336499
C   C17       1.0  0.60140  0.44530  0.55711  1.0000 0.027073972
C   C18       1.0  0.39860  0.94530  0.94289  1.0000 0.027073972
C   C19       1.0  0.39860  0.55470  0.44289  1.0000 0.0245491066
C   C20       1.0  0.60140  0.05470  0.05711  1.0000 0.027073972
C   C21       1.0  0.60410  0.37060  0.58790  1.0000 0.027073972
C   C22       1.0  0.39590  0.87060  0.91210  1.0000 0.027073972
C   C23       1.0  0.39590  0.62940  0.41210  1.0000 0.027073972
C   C24       1.0  0.60410  0.12940  0.08790  1.0000 0.027073972
C   C25       1.0  0.51260  0.31340  0.57510  1.0000 -0.1988640889
C   C26       1.0  0.48740  0.81340  0.92490  1.0000 -0.1988640889
C   C27       1.0  0.48740  0.68660  0.42490  1.0000 -0.1988640889
C   C28       1.0  0.51260  0.18660  0.07510  1.0000 -0.1988640889
C   C29       1.0  0.58200  0.67520  0.46710  1.0000 0.0245491066
C   C30       1.0  0.41800  0.17520  0.03290  1.0000 0.0245491066
C   C31       1.0  0.41800  0.32480  0.53290  1.0000 0.0245491066
C   C32       1.0  0.58200  0.82480  0.96710  1.0000 0.0245491066
C   C33       1.0  0.67060  0.74380  0.47680  1.0000 0.0597208873
C   C34       1.0  0.32940  0.24380  0.02320  1.0000 0.0597208873
C   C35       1.0  0.32940  0.25620  0.52320  1.0000 0.0597208873
C   C36       1.0  0.67060  0.75620  0.97680  1.0000 0.0597208873
C   C37       1.0  0.70250  0.77630  0.52980  1.0000 -0.1413491247
C   C38       1.0  0.29750  0.27630  0.97020  1.0000 -0.1413491247
C   C39       1.0  0.29750  0.22370  0.47020  1.0000 -0.1413491247
C   C40       1.0  0.70250  0.72370  0.02980  1.0000 -0.1413491247
C   C41       1.0  0.78200  0.84450  0.53700  1.0000 -0.011073697
C   C42       1.0  0.21800  0.34450  0.96300  1.0000 -0.011073697
C   C43       1.0  0.21800  0.15550  0.46300  1.0000 -0.011073697
C   C44       1.0  0.78200  0.65550  0.03700  1.0000 -0.011073697
C   C45       1.0  0.83370  0.87630  0.49060  1.0000 -0.0987751775
C   C46       1.0  0.16630  0.37630  0.00940  1.0000 -0.0987751775
C   C47       1.0  0.16630  0.12370  0.50940  1.0000 -0.0987751775
C   C48       1.0  0.83370  0.62370  0.99060  1.0000 -0.0987751775
C   C49       1.0  0.80460  0.84320  0.43850  1.0000 -0.0281718574
C   C50       1.0  0.19540  0.34320  0.06150  1.0000 -0.0281718574
C   C51       1.0  0.19540  0.15680  0.56150  1.0000 -0.0281718574
C   C52       1.0  0.80460  0.65680  0.93850  1.0000 -0.0281718574
C   C53       1.0  0.72300  0.77680  0.43170  1.0000 -0.1453651875
C   C54       1.0  0.27700  0.27680  0.06830  1.0000 -0.1413491247
C   C55       1.0  0.27700  0.22320  0.56830  1.0000 -0.1413491247
C   C56       1.0  0.72300  0.72320  0.93170  1.0000 -0.1413491247
C   C57       1.0  0.70000  0.35240  0.63520  1.0000 0.067851963
C   C58       1.0  0.30000  0.85240  0.86480  1.0000 0.067851963
C   C59       1.0  0.30000  0.64760  0.36480  1.0000 0.067851963
C   C60       1.0  0.70000  0.14760  0.13520  1.0000 0.067851963
C   C61       1.0  0.74750  0.27320  0.64200  1.0000 -0.1413491247
C   C62       1.0  0.25250  0.77320  0.85800  1.0000 -0.1453651875
C   C63       1.0  0.25250  0.72680  0.35800  1.0000 -0.1453651875
C   C64       1.0  0.74750  0.22680  0.14200  1.0000 -0.1413491247
C   C65       1.0  0.83220  0.25440  0.68840  1.0000 -0.0187955047
C   C66       1.0  0.16780  0.75440  0.81160  1.0000 -0.0187955047
C   C67       1.0  0.16780  0.74560  0.31160  1.0000 -0.0187955047
C   C68       1.0  0.83220  0.24560  0.18840  1.0000 -0.0187955047
C   C69       1.0  0.87060  0.31530  0.72450  1.0000 -0.0987751775
C   C70       1.0  0.12940  0.81530  0.77550  1.0000 -0.0987751775
C   C71       1.0  0.12940  0.68470  0.27550  1.0000 -0.0987751775
C   C72       1.0  0.87060  0.18470  0.22450  1.0000 -0.0944979801
C   C73       1.0  0.82350  0.39500  0.71930  1.0000 -0.011073697
C   C74       1.0  0.17650  0.89500  0.78070  1.0000 -0.011073697
C   C75       1.0  0.17650  0.60500  0.28070  1.0000 -0.011073697
C   C76       1.0  0.82350  0.10500  0.21930  1.0000 -0.011073697
C   C77       1.0  0.73400  0.41280  0.67520  1.0000 -0.1453651875
C   C78       1.0  0.26600  0.91280  0.82480  1.0000 -0.1453651875
C   C79       1.0  0.26600  0.58720  0.32480  1.0000 -0.1453651875
C   C80       1.0  0.73400  0.08720  0.17520  1.0000 -0.1453651875
C   C81       1.0  0.87110  0.46510  0.75780  1.0000 0.6107926578
C   C82       1.0  0.12890  0.96510  0.74220  1.0000 0.6107926578
C   C83       1.0  0.12890  0.53490  0.24220  1.0000 0.6107926578
C   C84       1.0  0.87110  0.03490  0.25780  1.0000 0.6107926578
C   C85       1.0  0.86390  0.87220  0.38820  1.0000 0.6107926578
C   C86       1.0  0.13610  0.37220  0.11180  1.0000 0.6107926578
C   C87       1.0  0.13610  0.12780  0.61180  1.0000 0.6107926578
C   C88       1.0  0.86390  0.62780  0.88820  1.0000 0.6107926578
C   C89       1.0  0.88520  0.16800  0.69460  1.0000 0.5975679964
C   C90       1.0  0.11480  0.66800  0.80540  1.0000 0.5975679964
C   C91       1.0  0.11480  0.83200  0.30540  1.0000 0.5975679964
C   C92       1.0  0.88520  0.33200  0.19460  1.0000 0.5975679964
C   C93       1.0  0.81560  0.87950  0.59560  1.0000 0.5521609993
C   C94       1.0  0.18440  0.37950  0.90440  1.0000 0.5521609993
C   C95       1.0  0.18440  0.12050  0.40440  1.0000 0.5521609993
C   C96       1.0  0.81560  0.62050  0.09560  1.0000 0.5521609993
O   O1        1.0  0.84740  0.83140  0.34262  1.0000 -0.5938459276
O   O2        1.0  0.15260  0.33140  0.15738  1.0000 -0.5938459276
O   O3        1.0  0.15260  0.16860  0.65738  1.0000 -0.5938459276
O   O4        1.0  0.84740  0.66860  0.84262  1.0000 -0.5938459276
O   O5        1.0  0.92480  0.93840  0.39517  1.0000 -0.5219279716
O   O6        1.0  0.07520  0.43840  0.10483  1.0000 -0.529728049
O   O7        1.0  0.07520  0.06160  0.60483  1.0000 -0.529728049
O   O8        1.0  0.92480  0.56160  0.89517  1.0000 -0.5219279716
O   O9        1.0  0.96360  0.15360  0.73471  1.0000 -0.5757077723
O   O10       1.0  0.03640  0.65360  0.76529  1.0000 -0.5757077723
O   O11       1.0  0.03640  0.84640  0.26529  1.0000 -0.5757077723
O   O12       1.0  0.96360  0.34640  0.23471  1.0000 -0.5757077723
O   O13       1.0  0.85000  0.11400  0.65820  1.0000 -0.5375740021
O   O14       1.0  0.15000  0.61400  0.84180  1.0000 -0.529728049
O   O15       1.0  0.15000  0.88600  0.34180  1.0000 -0.529728049
O   O16       1.0  0.85000  0.38600  0.15820  1.0000 -0.5375740021
O   O17       1.0  0.81990  0.53290  0.75307  1.0000 -0.5659349649
O   O18       1.0  0.18010  0.03290  0.74693  1.0000 -0.5659349649
O   O19       1.0  0.18010  0.46710  0.24693  1.0000 -0.5659349649
O   O20       1.0  0.81990  0.96710  0.25307  1.0000 -0.5659349649
O   O21       1.0  0.96190  0.44810  0.79189  1.0000 -0.5375740021
O   O22       1.0  0.03810  0.94810  0.70811  1.0000 -0.5375740021
O   O23       1.0  0.03810  0.55190  0.20811  1.0000 -0.5375740021
O   O24       1.0  0.96190  0.05190  0.29189  1.0000 -0.5375740021
O   O25       1.0  0.86860  0.94790  0.59658  1.0000 -0.5127010732
O   O26       1.0  0.13140  0.44790  0.90342  1.0000 -0.5127010732
O   O27       1.0  0.13140  0.05210  0.40342  1.0000 -0.5219279716
O   O28       1.0  0.86860  0.55210  0.09658  1.0000 -0.5127010732
O   O29       1.0  0.80010  0.83960  0.63780  1.0000 -0.529728049
O   O30       1.0  0.19990  0.33960  0.86220  1.0000 -0.529728049
O   O31       1.0  0.19990  0.16040  0.36220  1.0000 -0.529728049
O   O32       1.0  0.80010  0.66040  0.13780  1.0000 -0.529728049
