# DDEC6 charges by PACMAN v1.1 (https://github.com/mtap-research/PACMAN-charge/)
data_2014[In][unc]3[ASR]1
_chemical_formula_sum              "In4 H32 C68 O36"
_cell_length_a       18.057
_cell_length_b       18.057
_cell_length_c       13.4495
_cell_angle_alpha    90
_cell_angle_beta     90
_cell_angle_gamma    90

_symmetry_space_group_name_H-M    "P 1"
_symmetry_Int_Tables_number       1

loop_
  _symmetry_equiv_pos_as_xyz
  'x, y, z'

loop_
  _atom_site_type_symbol
  _atom_site_label
  _atom_site_symmetry_multiplicity
  _atom_site_fract_x
  _atom_site_fract_y
  _atom_site_fract_z
  _atom_site_occupancy
  _atom_site_charge
In  In1       1.0  0.71652  0.71697  0.49932  1.0000 1.3693546997
In  In2       1.0  0.78341  0.21637  0.75053  1.0000 1.3693546997
In  In3       1.0  0.28363  0.28405  0.99923  1.0000 1.3693546997
In  In4       1.0  0.21595  0.78443  0.25017  1.0000 1.3693546997
H   H1        1.0  0.03415  0.26555  0.85918  1.0000 0.1394889333
H   H2        1.0  0.96141  0.73414  0.35818  1.0000 0.1394889333
H   H3        1.0  0.23423  0.53667  0.10757  1.0000 0.1394889333
H   H4        1.0  0.76572  0.46396  0.60819  1.0000 0.1394889333
H   H5        1.0  0.46160  0.76790  0.39364  1.0000 0.1394889333
H   H6        1.0  0.53793  0.23380  0.89214  1.0000 0.1394889333
H   H7        1.0  0.25826  0.03497  0.13326  1.0000 0.1394889333
H   H8        1.0  0.73490  0.96247  0.64103  1.0000 0.1394889333
H   H9        1.0  0.67323  0.27758  0.44969  1.0000 0.1321720809
H   H10       1.0  0.65394  0.50021  0.32842  1.0000 0.1321720809
H   H11       1.0  0.61132  0.29157  0.30139  1.0000 0.0919091549
H   H12       1.0  0.55504  0.37358  0.29987  1.0000 0.0919091549
H   H13       1.0  0.00242  0.84809  0.08052  1.0000 0.1321720809
H   H14       1.0  0.77852  0.82988  0.19562  1.0000 0.1321720809
H   H15       1.0  0.49785  0.34687  0.16973  1.0000 0.1394889333
H   H16       1.0  0.72242  0.33226  0.05035  1.0000 0.1517623858
H   H17       1.0  0.50210  0.64982  0.66720  1.0000 0.1394889333
H   H18       1.0  0.27703  0.66910  0.55087  1.0000 0.1517623858
H   H19       1.0  0.44505  0.62682  0.79930  1.0000 0.0919091549
H   H20       1.0  0.38771  0.70816  0.79912  1.0000 0.0919091549
H   H21       1.0  0.34660  0.49976  0.82823  1.0000 0.1321720809
H   H22       1.0  0.32701  0.72260  0.94842  1.0000 0.1321720809
H   H23       1.0  0.82944  0.77680  0.80081  1.0000 0.1517623858
H   H24       1.0  0.22286  0.17724  0.70135  1.0000 0.1321720809
H   H25       1.0  0.00174  0.15322  0.57855  1.0000 0.1321720809
H   H26       1.0  0.12192  0.05625  0.54825  1.0000 0.0957627007
H   H27       1.0  0.20952  0.09944  0.57506  1.0000 0.0957627007
H   H28       1.0  0.84448  0.00163  0.92095  1.0000 0.1394889333
H   H29       1.0  0.19444  0.22476  0.31169  1.0000 0.1517623858
H   H30       1.0  0.17585  0.00020  0.43128  1.0000 0.1321720809
H   H31       1.0  0.80198  0.90847  0.05845  1.0000 0.0919091549
H   H32       1.0  0.89398  0.94477  0.04361  1.0000 0.0919091549
C   C1        1.0  0.83974  0.88503  0.87232  1.0000 0.2682742225
C   C2        1.0  0.81982  0.83643  0.79459  1.0000 -0.1699720277
C   C3        1.0  0.78166  0.86490  0.71320  1.0000 0.009415231
C   C4        1.0  0.76591  0.94099  0.70459  1.0000 -0.067355886
C   C5        1.0  0.79020  0.98881  0.78042  1.0000 0.0187043369
C   C6        1.0  0.82651  0.96189  0.86442  1.0000 -0.2058199672
C   C7        1.0  0.75621  0.81230  0.63574  1.0000 0.5536891119
C   C8        1.0  0.72053  0.56985  0.47896  1.0000 0.5586493757
C   C9        1.0  0.71091  0.48889  0.46840  1.0000 -0.002709712
C   C10       1.0  0.73578  0.44163  0.54378  1.0000 -0.0635608066
C   C11       1.0  0.72120  0.36598  0.53582  1.0000 -0.002709712
C   C12       1.0  0.68239  0.33741  0.45395  1.0000 -0.1235404266
C   C13       1.0  0.65741  0.38508  0.37961  1.0000 0.0803425712
C   C14       1.0  0.67180  0.46115  0.38619  1.0000 -0.1125215768
C   C15       1.0  0.74436  0.31330  0.61359  1.0000 0.5586493757
C   C16       1.0  0.93019  0.22045  0.72845  1.0000 0.5586493757
C   C17       1.0  0.61282  0.35290  0.29686  1.0000 0.0187043369
C   C18       1.0  0.61417  0.34297  0.12035  1.0000 0.2632763432
C   C19       1.0  0.53748  0.32888  0.11304  1.0000 -0.2058199672
C   C20       1.0  0.51092  0.29078  0.03014  1.0000 0.009415231
C   C21       1.0  0.42965  0.27982  0.02007  1.0000 0.5536891119
C   C22       1.0  0.25173  0.18761  0.13675  1.0000 0.5536891119
C   C23       1.0  0.23132  0.13559  0.21684  1.0000 -0.002709712
C   C24       1.0  0.23929  0.05845  0.20428  1.0000 -0.0635608066
C   C25       1.0  0.22077  0.01136  0.28461  1.0000 0.009415231
C   C26       1.0  0.19248  0.03967  0.37355  1.0000 -0.2058199672
C   C27       1.0  0.18193  0.11650  0.38183  1.0000 0.2632763432
C   C28       1.0  0.20190  0.16474  0.30400  1.0000 -0.1699720277
C   C29       1.0  0.66285  0.32285  0.04307  1.0000 -0.1699720277
C   C30       1.0  0.81241  0.75566  0.36098  1.0000 0.5586493757
C   C31       1.0  0.86502  0.77893  0.28296  1.0000 -0.002709712
C   C32       1.0  0.94058  0.76343  0.29258  1.0000 -0.0635608066
C   C33       1.0  0.98927  0.78820  0.21846  1.0000 -0.002709712
C   C34       1.0  0.96300  0.82893  0.13728  1.0000 -0.1125215768
C   C35       1.0  0.88767  0.84521  0.12975  1.0000 0.0803425712
C   C36       1.0  0.83809  0.81929  0.20142  1.0000 -0.1235404266
C   C37       1.0  0.86078  0.89331  0.04749  1.0000 0.0187043369
C   C38       1.0  0.57026  0.71872  0.51929  1.0000 0.5586493757
C   C39       1.0  0.48896  0.70679  0.52825  1.0000 0.0187043369
C   C40       1.0  0.44068  0.73362  0.45448  1.0000 -0.067355886
C   C41       1.0  0.36469  0.71703  0.46242  1.0000 0.009415231
C   C42       1.0  0.33674  0.67695  0.54257  1.0000 -0.1699720277
C   C43       1.0  0.38565  0.65517  0.61880  1.0000 0.2632763432
C   C44       1.0  0.46248  0.66793  0.61055  1.0000 -0.2058199672
C   C45       1.0  0.31145  0.74410  0.38669  1.0000 0.5586493757
C   C46       1.0  0.25567  0.68706  0.11295  1.0000 0.5586493757
C   C47       1.0  0.27920  0.63441  0.03527  1.0000 -0.002709712
C   C48       1.0  0.26456  0.55876  0.04339  1.0000 -0.067355886
C   C49       1.0  0.38704  0.64680  0.79559  1.0000 0.0187043369
C   C50       1.0  0.34274  0.61491  0.87890  1.0000 0.0803425712
C   C51       1.0  0.32863  0.53885  0.88595  1.0000 -0.1125215768
C   C52       1.0  0.28957  0.51134  0.96830  1.0000 -0.002709712
C   C53       1.0  0.27988  0.43053  0.97911  1.0000 0.5586493757
C   C54       1.0  0.31792  0.66277  0.95315  1.0000 -0.1259614928
C   C55       1.0  0.07015  0.77893  0.22941  1.0000 0.5586493757
C   C56       1.0  0.22533  0.92982  0.27283  1.0000 0.5536891119
C   C57       1.0  0.68791  0.25671  0.88655  1.0000 0.5586493757
C   C58       1.0  0.63481  0.28321  0.96266  1.0000 0.009415231
C   C59       1.0  0.55897  0.26604  0.95489  1.0000 -0.067355886
C   C60       1.0  0.78004  0.07022  0.77018  1.0000 0.5586493757
C   C61       1.0  0.15100  0.11009  0.55495  1.0000 0.0187043369
C   C62       1.0  0.11606  0.15738  0.63259  1.0000 0.0803425712
C   C63       1.0  0.16274  0.18515  0.70571  1.0000 -0.1235404266
C   C64       1.0  0.13361  0.22432  0.78670  1.0000 -0.002709712
C   C65       1.0  0.05750  0.23742  0.79417  1.0000 -0.067355886
C   C66       1.0  0.01108  0.21182  0.71811  1.0000 -0.002709712
C   C67       1.0  0.03994  0.17171  0.63705  1.0000 -0.1125215768
C   C68       1.0  0.18594  0.24668  0.86466  1.0000 0.5586493757
O   O1        1.0  0.90220  0.25146  0.80532  1.0000 -0.4794829889
O   O2        1.0  0.64709  0.37253  0.20269  1.0000 -0.1887708856
O   O3        1.0  0.86893  0.85240  0.95466  1.0000 -0.1887708856
O   O4        1.0  0.88650  0.19308  0.66163  1.0000 -0.5284053339
O   O5        1.0  0.69352  0.61348  0.41175  1.0000 -0.5284053339
O   O6        1.0  0.75194  0.59773  0.55509  1.0000 -0.4794829889
O   O7        1.0  0.73273  0.24376  0.60020  1.0000 -0.5013206172
O   O8        1.0  0.77505  0.33564  0.69455  1.0000 -0.5105254306
O   O9        1.0  0.38726  0.30609  0.08898  1.0000 -0.5403592988
O   O10       1.0  0.23940  0.25664  0.15145  1.0000 -0.5013206172
O   O11       1.0  0.27988  0.16361  0.05570  1.0000 -0.5105254306
O   O12       1.0  0.76726  0.74284  0.64989  1.0000 -0.5013206172
O   O13       1.0  0.72424  0.83657  0.55689  1.0000 -0.515213479
O   O14       1.0  0.24855  0.40280  0.05539  1.0000 -0.4794829889
O   O15       1.0  0.74276  0.76706  0.34818  1.0000 -0.5013206172
O   O16       1.0  0.83509  0.72498  0.44175  1.0000 -0.515213479
O   O17       1.0  0.61271  0.69216  0.58798  1.0000 -0.5403592988
O   O18       1.0  0.35292  0.62611  0.70170  1.0000 -0.1887708856
O   O19       1.0  0.30685  0.38693  0.91175  1.0000 -0.5284053339
O   O20       1.0  0.26703  0.75666  0.09979  1.0000 -0.5013206172
O   O21       1.0  0.22476  0.66465  0.19373  1.0000 -0.515213479
O   O22       1.0  0.59691  0.75194  0.44381  1.0000 -0.4862802877
O   O23       1.0  0.24202  0.73341  0.40130  1.0000 -0.5105254306
O   O24       1.0  0.33530  0.77675  0.30806  1.0000 -0.515213479
O   O25       1.0  0.11319  0.80659  0.16180  1.0000 -0.5284053339
O   O26       1.0  0.09832  0.74807  0.30554  1.0000 -0.4794829889
O   O27       1.0  0.19730  0.88898  0.34136  1.0000 -0.5403592988
O   O28       1.0  0.25381  0.90245  0.19444  1.0000 -0.4794829889
O   O29       1.0  0.75731  0.26729  0.90155  1.0000 -0.5013206172
O   O30       1.0  0.66404  0.22416  0.80782  1.0000 -0.515213479
O   O31       1.0  0.80669  0.11251  0.83900  1.0000 -0.5403592988
O   O32       1.0  0.74848  0.09701  0.69350  1.0000 -0.4794829889
O   O33       1.0  0.15127  0.15034  0.46190  1.0000 -0.1887708856
O   O34       1.0  0.16430  0.27674  0.94643  1.0000 -0.5105254306
O   O35       1.0  0.25536  0.23423  0.85057  1.0000 -0.5013206172
O   O36       1.0  0.40281  0.24846  0.94331  1.0000 -0.4862802877
