# DDEC6 charges by PACMAN v1.1 (https://github.com/mtap-research/PACMAN-charge/)
data_2014[Tb][nan]3[ASR]2
_chemical_formula_sum              "Tb10 H94 C190 N32 O64"
_cell_length_a       15.5659
_cell_length_b       16.7921
_cell_length_c       22.7134
_cell_angle_alpha    86.6905
_cell_angle_beta     82.845
_cell_angle_gamma    62.3875

_symmetry_space_group_name_H-M    "P 1"
_symmetry_Int_Tables_number       1

loop_
  _symmetry_equiv_pos_as_xyz
  'x, y, z'

loop_
  _atom_site_type_symbol
  _atom_site_label
  _atom_site_symmetry_multiplicity
  _atom_site_fract_x
  _atom_site_fract_y
  _atom_site_fract_z
  _atom_site_occupancy
  _atom_site_charge
Tb  Tb1       1.0  0.73512  0.66387  0.60521  1.0000 1.8166496953
Tb  Tb2       1.0  0.26488  0.33613  0.39479  1.0000 1.8166496953
Tb  Tb3       1.0  0.60101  0.66387  0.89479  1.0000 1.8166496953
Tb  Tb4       1.0  0.39899  0.33613  0.10521  1.0000 1.8166496953
Tb  Tb5       1.0  0.87232  0.88730  0.40055  1.0000 1.8035705588
Tb  Tb6       1.0  0.12768  0.11270  0.59945  1.0000 1.8035705588
Tb  Tb7       1.0  0.24038  0.88730  0.09945  1.0000 1.8035705588
Tb  Tb8       1.0  0.75962  0.11270  0.90055  1.0000 1.8035705588
Tb  Tb9       1.0  0.52468  0.95063  0.25000  1.0000 2.0116149387
Tb  Tb10      1.0  0.47532  0.04937  0.75000  1.0000 2.0116149387
H   H1        1.0  0.75983  0.46505  0.41711  1.0000 0.1297990096
H   H2        1.0  0.24017  0.53495  0.58289  1.0000 0.1297990096
H   H3        1.0  0.77512  0.46505  0.08289  1.0000 0.1297990096
H   H4        1.0  0.22488  0.53495  0.91711  1.0000 0.1297990096
H   H5        1.0  0.93435  0.34036  0.42163  1.0000 0.1110439488
H   H6        1.0  0.06565  0.65964  0.57837  1.0000 0.1110439488
H   H7        1.0  0.72529  0.34036  0.07837  1.0000 0.1110439488
H   H8        1.0  0.27471  0.65964  0.92163  1.0000 0.1110439488
H   H9        1.0  0.02911  0.34543  0.50014  1.0000 0.1378058702
H   H10       1.0  0.97089  0.65457  0.49986  1.0000 0.1378058702
H   H11       1.0  0.62546  0.34543  0.99986  1.0000 0.1378058702
H   H12       1.0  0.37454  0.65457  0.00014  1.0000 0.1378058702
H   H13       1.0  0.08960  0.34712  0.57591  1.0000 0.1378058702
H   H14       1.0  0.91040  0.65288  0.42409  1.0000 0.1378058702
H   H15       1.0  0.56329  0.34712  0.92409  1.0000 0.1378058702
H   H16       1.0  0.43671  0.65288  0.07591  1.0000 0.1378058702
H   H17       1.0  0.06967  0.50355  0.72556  1.0000 0.1214797394
H   H18       1.0  0.93033  0.49645  0.27444  1.0000 0.1214797394
H   H19       1.0  0.42679  0.50355  0.77444  1.0000 0.1214797394
H   H20       1.0  0.57321  0.49645  0.22556  1.0000 0.1214797394
H   H21       1.0  0.01391  0.63744  0.75355  1.0000 0.1214797394
H   H22       1.0  0.98609  0.36256  0.24645  1.0000 0.1214797394
H   H23       1.0  0.34865  0.63744  0.74645  1.0000 0.1214797394
H   H24       1.0  0.65135  0.36256  0.25355  1.0000 0.1214797394
H   H25       1.0  0.91965  0.79112  0.79618  1.0000 0.1214797394
H   H26       1.0  0.08035  0.20888  0.20382  1.0000 0.1214797394
H   H27       1.0  0.28923  0.79112  0.70382  1.0000 0.1214797394
H   H28       1.0  0.71077  0.20888  0.29618  1.0000 0.1214797394
H   H29       1.0  0.74957  0.89257  0.76418  1.0000 0.1297990096
H   H30       1.0  0.25043  0.10743  0.23582  1.0000 0.1297990096
H   H31       1.0  0.35787  0.89257  0.73582  1.0000 0.1297990096
H   H32       1.0  0.64213  0.10743  0.26418  1.0000 0.1297990096
H   H33       1.0  0.41121  0.18805  0.62514  1.0000 0.0885970308
H   H34       1.0  0.58879  0.81195  0.37486  1.0000 0.0885970308
H   H35       1.0  0.40074  0.18805  0.87486  1.0000 0.0885970308
H   H36       1.0  0.59926  0.81195  0.12514  1.0000 0.0885970308
H   H37       1.0  0.26560  0.31867  0.58751  1.0000 0.1110439488
H   H38       1.0  0.73440  0.68133  0.41249  1.0000 0.1110439488
H   H39       1.0  0.41573  0.31867  0.91249  1.0000 0.1110439488
H   H40       1.0  0.58427  0.68133  0.08751  1.0000 0.1110439488
H   H41       1.0  0.11206  0.33924  0.76424  1.0000 0.1378058702
H   H42       1.0  0.88794  0.66076  0.23576  1.0000 0.1297990096
H   H43       1.0  0.54870  0.33924  0.73576  1.0000 0.1297990096
H   H44       1.0  0.45130  0.66076  0.26424  1.0000 0.1297990096
H   H45       1.0  0.26197  0.66590  0.40424  1.0000 0.1378058702
H   H46       1.0  0.73803  0.33410  0.59576  1.0000 0.1378058702
H   H47       1.0  0.07214  0.66590  0.09576  1.0000 0.1378058702
H   H48       1.0  0.92786  0.33410  0.90424  1.0000 0.1378058702
H   H49       1.0  0.28901  0.74105  0.48908  1.0000 0.1297990096
H   H50       1.0  0.71099  0.25895  0.51092  1.0000 0.1297990096
H   H51       1.0  0.96994  0.74105  0.01092  1.0000 0.1297990096
H   H52       1.0  0.03006  0.25895  0.98908  1.0000 0.1297990096
H   H53       1.0  0.14450  0.85918  0.54951  1.0000 0.1378058702
H   H54       1.0  0.85550  0.14082  0.45049  1.0000 0.1378058702
H   H55       1.0  0.99632  0.85918  0.95049  1.0000 0.1378058702
H   H56       1.0  0.00368  0.14082  0.04951  1.0000 0.1378058702
H   H57       1.0  0.01583  0.91831  0.60796  1.0000 0.1297990096
H   H58       1.0  0.98417  0.08169  0.39204  1.0000 0.1297990096
H   H59       1.0  0.06586  0.91831  0.89204  1.0000 0.1297990096
H   H60       1.0  0.93414  0.08169  0.10796  1.0000 0.1297990096
H   H61       1.0  0.70278  0.07891  0.61542  1.0000 0.1378058702
H   H62       1.0  0.29722  0.92109  0.38458  1.0000 0.1378058702
H   H63       1.0  0.21831  0.07891  0.88458  1.0000 0.1378058702
H   H64       1.0  0.78169  0.92109  0.11542  1.0000 0.1378058702
H   H65       1.0  0.58364  0.12548  0.57130  1.0000 0.1378058702
H   H66       1.0  0.41636  0.87452  0.42870  1.0000 0.1378058702
H   H67       1.0  0.29088  0.12548  0.92870  1.0000 0.1378058702
H   H68       1.0  0.70912  0.87452  0.07130  1.0000 0.1378058702
H   H69       1.0  0.44415  0.17098  0.51141  1.0000 0.1110439488
H   H70       1.0  0.55585  0.82902  0.48859  1.0000 0.1110439488
H   H71       1.0  0.38487  0.17098  0.98859  1.0000 0.1110439488
H   H72       1.0  0.61513  0.82902  0.01141  1.0000 0.1110439488
H   H73       1.0  0.47384  0.09964  0.41010  1.0000 0.1378058702
H   H74       1.0  0.52616  0.90036  0.58990  1.0000 0.1378058702
H   H75       1.0  0.42653  0.09964  0.08990  1.0000 0.1378058702
H   H76       1.0  0.57347  0.90036  0.91010  1.0000 0.1378058702
H   H77       1.0  0.74309  0.22070  0.76675  1.0000 0.1110439488
H   H78       1.0  0.25691  0.77930  0.23325  1.0000 0.1110439488
H   H79       1.0  0.03621  0.22070  0.73325  1.0000 0.1110439488
H   H80       1.0  0.96379  0.77930  0.26675  1.0000 0.1110439488
H   H81       1.0  0.75537  0.17308  0.66108  1.0000 0.1214797394
H   H82       1.0  0.24463  0.82692  0.33892  1.0000 0.1214797394
H   H83       1.0  0.07155  0.17308  0.83892  1.0000 0.1214797394
H   H84       1.0  0.92845  0.82692  0.16108  1.0000 0.1214797394
H   H85       1.0  0.95263  0.90072  0.71313  1.0000 0.1297990096
H   H86       1.0  0.04737  0.09928  0.28687  1.0000 0.1297990096
H   H87       1.0  0.14665  0.90072  0.78687  1.0000 0.1297990096
H   H88       1.0  0.85335  0.09928  0.21313  1.0000 0.1297990096
H   H89       1.0  0.71055  0.84717  0.52422  1.0000 0.0070779225
H   H90       1.0  0.28945  0.15283  0.47578  1.0000 0.0070779225
H   H91       1.0  0.44227  0.84717  0.97578  1.0000 0.0070779225
H   H92       1.0  0.55773  0.15283  0.02422  1.0000 0.0070779225
H   H93       1.0  0.75842  0.48316  0.75000  1.0000 0.1001145741
H   H94       1.0  0.24158  0.51684  0.25000  1.0000 0.1001145741
C   C1        1.0  0.66419  0.61173  0.49282  1.0000 0.5489352148
C   C2        1.0  0.33581  0.38827  0.50718  1.0000 0.5489352148
C   C3        1.0  0.72409  0.61173  0.00718  1.0000 0.5489352148
C   C4        1.0  0.27591  0.38827  0.99282  1.0000 0.5489352148
C   C5        1.0  0.76621  0.53249  0.49320  1.0000 0.1297990096
C   C6        1.0  0.23379  0.46751  0.50680  1.0000 0.1297990096
C   C7        1.0  0.70131  0.53249  0.00680  1.0000 0.1297990096
C   C8        1.0  0.29869  0.46751  0.99320  1.0000 0.1297990096
C   C9        1.0  0.80488  0.46329  0.45101  1.0000 -0.1294331624
C   C10       1.0  0.19512  0.53671  0.54899  1.0000 -0.1294331624
C   C11       1.0  0.73183  0.46329  0.04899  1.0000 -0.1294331624
C   C12       1.0  0.26817  0.53671  0.95101  1.0000 -0.1294331624
C   C13       1.0  0.90031  0.39550  0.45408  1.0000 -0.0111889926
C   C14       1.0  0.09969  0.60450  0.54592  1.0000 -0.0111889926
C   C15       1.0  0.70418  0.39550  0.04592  1.0000 -0.0111889926
C   C16       1.0  0.29582  0.60450  0.95408  1.0000 -0.0111889926
C   C17       1.0  0.95361  0.39741  0.49889  1.0000 -0.1507824584
C   C18       1.0  0.04639  0.60259  0.50111  1.0000 -0.1507824584
C   C19       1.0  0.64898  0.39741  0.00111  1.0000 -0.1507824584
C   C20       1.0  0.35102  0.60259  0.99889  1.0000 -0.1507824584
C   C21       1.0  0.90968  0.46808  0.54023  1.0000 0.200615046
C   C22       1.0  0.09032  0.53192  0.45977  1.0000 0.200615046
C   C23       1.0  0.62224  0.46808  0.95977  1.0000 0.200615046
C   C24       1.0  0.37776  0.53192  0.04023  1.0000 0.200615046
C   C25       1.0  0.95906  0.47641  0.58976  1.0000 0.2113237729
C   C26       1.0  0.04094  0.52359  0.41024  1.0000 0.2113237729
C   C27       1.0  0.56453  0.47641  0.91024  1.0000 0.2113237729
C   C28       1.0  0.43547  0.52359  0.08976  1.0000 0.2113237729
C   C29       1.0  0.05062  0.40851  0.60249  1.0000 -0.1765087867
C   C30       1.0  0.94938  0.59149  0.39751  1.0000 -0.1765087867
C   C31       1.0  0.54087  0.40851  0.89751  1.0000 -0.1765087867
C   C32       1.0  0.45913  0.59149  0.10249  1.0000 -0.1765087867
C   C33       1.0  0.08899  0.41610  0.65340  1.0000 0.1297990096
C   C34       1.0  0.91101  0.58390  0.34660  1.0000 0.1297990096
C   C35       1.0  0.49492  0.41610  0.84660  1.0000 0.1297990096
C   C36       1.0  0.50508  0.58390  0.15340  1.0000 0.1297990096
C   C37       1.0  0.03944  0.49573  0.68652  1.0000 -0.209329343
C   C38       1.0  0.96056  0.50427  0.31348  1.0000 -0.209329343
C   C39       1.0  0.46483  0.49573  0.81348  1.0000 -0.209329343
C   C40       1.0  0.53517  0.50427  0.18652  1.0000 -0.209329343
C   C41       1.0  0.95241  0.56432  0.66872  1.0000 0.1931637626
C   C42       1.0  0.04759  0.43568  0.33128  1.0000 0.1931637626
C   C43       1.0  0.48328  0.56432  0.83128  1.0000 0.1931637626
C   C44       1.0  0.51672  0.43568  0.16872  1.0000 0.1931637626
C   C45       1.0  0.90159  0.65332  0.69828  1.0000 0.1931637626
C   C46       1.0  0.09841  0.34668  0.30172  1.0000 0.1931637626
C   C47       1.0  0.44510  0.65332  0.80172  1.0000 0.1931637626
C   C48       1.0  0.55490  0.34668  0.19828  1.0000 0.1931637626
C   C49       1.0  0.94143  0.68168  0.73998  1.0000 -0.1507824584
C   C50       1.0  0.05857  0.31832  0.26002  1.0000 -0.1507824584
C   C51       1.0  0.37689  0.68168  0.76002  1.0000 -0.1507824584
C   C52       1.0  0.62311  0.31832  0.23998  1.0000 -0.1507824584
C   C53       1.0  0.88797  0.76806  0.76440  1.0000 -0.0111889926
C   C54       1.0  0.11203  0.23194  0.23560  1.0000 -0.0111889926
C   C55       1.0  0.34396  0.76806  0.73560  1.0000 -0.0111889926
C   C56       1.0  0.65604  0.23194  0.26440  1.0000 -0.0111889926
C   C57       1.0  0.79569  0.82454  0.74670  1.0000 -0.1152044931
C   C58       1.0  0.20431  0.17546  0.25330  1.0000 -0.1152044931
C   C59       1.0  0.37977  0.82454  0.75330  1.0000 -0.1152044931
C   C60       1.0  0.62023  0.17546  0.24670  1.0000 -0.1152044931
C   C61       1.0  0.76112  0.79169  0.70487  1.0000 0.1297990096
C   C62       1.0  0.23888  0.20831  0.29513  1.0000 0.1297990096
C   C63       1.0  0.44720  0.79169  0.79513  1.0000 0.1297990096
C   C64       1.0  0.55280  0.20831  0.20487  1.0000 0.1297990096
C   C65       1.0  0.66213  0.84668  0.68325  1.0000 0.621383836
C   C66       1.0  0.33787  0.15332  0.31675  1.0000 0.621383836
C   C67       1.0  0.49118  0.84668  0.81675  1.0000 0.621383836
C   C68       1.0  0.50882  0.15332  0.18325  1.0000 0.621383836
C   C69       1.0  0.34243  0.22331  0.65386  1.0000 0.1378058702
C   C70       1.0  0.65757  0.77669  0.34614  1.0000 0.1378058702
C   C71       1.0  0.43427  0.22331  0.84614  1.0000 0.1378058702
C   C72       1.0  0.56573  0.77669  0.15386  1.0000 0.1378058702
C   C73       1.0  0.26189  0.29613  0.63335  1.0000 -0.1392193852
C   C74       1.0  0.73811  0.70387  0.36665  1.0000 -0.1392193852
C   C75       1.0  0.44198  0.29613  0.86665  1.0000 -0.1392193852
C   C76       1.0  0.55802  0.70387  0.13335  1.0000 -0.1392193852
C   C77       1.0  0.17732  0.34027  0.67286  1.0000 0.1110439488
C   C78       1.0  0.82268  0.65973  0.32714  1.0000 0.1110439488
C   C79       1.0  0.48241  0.34027  0.82714  1.0000 0.1110439488
C   C80       1.0  0.51759  0.65973  0.17286  1.0000 0.1110439488
C   C81       1.0  0.17635  0.30874  0.73142  1.0000 -0.1584247579
C   C82       1.0  0.82365  0.69126  0.26858  1.0000 -0.1584247579
C   C83       1.0  0.51491  0.30874  0.76858  1.0000 -0.1584247579
C   C84       1.0  0.48509  0.69126  0.23142  1.0000 -0.1584247579
C   C85       1.0  0.25819  0.23246  0.74748  1.0000 0.1214797394
C   C86       1.0  0.74181  0.76754  0.25252  1.0000 0.1214797394
C   C87       1.0  0.50935  0.23246  0.75252  1.0000 0.1214797394
C   C88       1.0  0.49065  0.76754  0.24748  1.0000 0.1214797394
C   C89       1.0  0.25810  0.18840  0.80773  1.0000 0.5489352148
C   C90       1.0  0.74190  0.81160  0.19227  1.0000 0.5489352148
C   C91       1.0  0.55350  0.18840  0.69227  1.0000 0.5489352148
C   C92       1.0  0.44650  0.81160  0.30773  1.0000 0.5489352148
C   C93       1.0  0.07873  0.70955  0.36776  1.0000 0.5489352148
C   C94       1.0  0.92127  0.29045  0.63224  1.0000 0.5489352148
C   C95       1.0  0.21172  0.70955  0.13224  1.0000 0.5489352148
C   C96       1.0  0.78828  0.29045  0.86776  1.0000 0.5489352148
C   C97       1.0  0.10580  0.75043  0.41636  1.0000 0.1214797394
C   C98       1.0  0.89420  0.24957  0.58364  1.0000 0.1214797394
C   C99       1.0  0.14377  0.75043  0.08364  1.0000 0.1214797394
C   C100      1.0  0.85623  0.24957  0.91636  1.0000 0.1214797394
C   C101      1.0  0.20127  0.72019  0.43031  1.0000 -0.1294331624
C   C102      1.0  0.79873  0.27981  0.56969  1.0000 -0.1294331624
C   C103      1.0  0.07854  0.72019  0.06969  1.0000 -0.1294331624
C   C104      1.0  0.92146  0.27981  0.93031  1.0000 -0.1294331624
C   C105      1.0  0.21508  0.76131  0.47781  1.0000 -0.0111889926
C   C106      1.0  0.78492  0.23869  0.52219  1.0000 -0.0111889926
C   C107      1.0  0.02361  0.76131  0.02219  1.0000 -0.0111889926
C   C108      1.0  0.97639  0.23869  0.97781  1.0000 -0.0111889926
C   C109      1.0  0.13436  0.82766  0.51164  1.0000 -0.1507824584
C   C110      1.0  0.86564  0.17234  0.48836  1.0000 -0.1507824584
C   C111      1.0  0.03798  0.82766  0.98836  1.0000 -0.1507824584
C   C112      1.0  0.96202  0.17234  0.01164  1.0000 -0.1507824584
C   C113      1.0  0.04067  0.85328  0.49548  1.0000 0.200615046
C   C114      1.0  0.95933  0.14672  0.50452  1.0000 0.200615046
C   C115      1.0  0.10605  0.85328  0.00452  1.0000 0.200615046
C   C116      1.0  0.89395  0.14672  0.99548  1.0000 0.200615046
C   C117      1.0  0.94865  0.91744  0.52980  1.0000 0.200615046
C   C118      1.0  0.05135  0.08256  0.47020  1.0000 0.200615046
C   C119      1.0  0.13391  0.91744  0.97020  1.0000 0.200615046
C   C120      1.0  0.86609  0.08256  0.02980  1.0000 0.200615046
C   C121      1.0  0.94803  0.94342  0.58742  1.0000 -0.1902527032
C   C122      1.0  0.05197  0.05658  0.41258  1.0000 -0.1902527032
C   C123      1.0  0.10855  0.94342  0.91258  1.0000 -0.1902527032
C   C124      1.0  0.89145  0.05658  0.08742  1.0000 -0.1902527032
C   C125      1.0  0.85902  0.00286  0.61838  1.0000 0.1214797394
C   C126      1.0  0.14098  0.99714  0.38162  1.0000 0.1214797394
C   C127      1.0  0.13812  0.00286  0.88162  1.0000 0.1214797394
C   C128      1.0  0.86188  0.99714  0.11838  1.0000 0.1214797394
C   C129      1.0  0.77292  0.03373  0.59115  1.0000 -0.1902527032
C   C130      1.0  0.22708  0.96627  0.40885  1.0000 -0.1902527032
C   C131      1.0  0.19335  0.03373  0.90885  1.0000 -0.1902527032
C   C132      1.0  0.80665  0.96627  0.09115  1.0000 -0.1902527032
C   C133      1.0  0.77830  0.00345  0.53384  1.0000 0.200615046
C   C134      1.0  0.22170  0.99655  0.46616  1.0000 0.200615046
C   C135      1.0  0.21825  0.00345  0.96616  1.0000 0.200615046
C   C136      1.0  0.78175  0.99655  0.03384  1.0000 0.200615046
C   C137      1.0  0.68939  0.03218  0.50339  1.0000 0.1931637626
C   C138      1.0  0.31061  0.96782  0.49661  1.0000 0.1931637626
C   C139      1.0  0.27843  0.03218  0.99661  1.0000 0.1931637626
C   C140      1.0  0.72157  0.96782  0.00339  1.0000 0.1931637626
C   C141      1.0  0.59543  0.09475  0.52772  1.0000 -0.1392193852
C   C142      1.0  0.40457  0.90525  0.47228  1.0000 -0.1392193852
C   C143      1.0  0.30982  0.09475  0.97228  1.0000 -0.1392193852
C   C144      1.0  0.69018  0.90525  0.02772  1.0000 -0.1392193852
C   C145      1.0  0.51690  0.11917  0.49450  1.0000 -0.0111889926
C   C146      1.0  0.48310  0.88083  0.50550  1.0000 -0.0111889926
C   C147      1.0  0.36393  0.11917  0.00550  1.0000 -0.0111889926
C   C148      1.0  0.63607  0.88083  0.99450  1.0000 -0.0111889926
C   C149      1.0  0.53231  0.08043  0.43866  1.0000 -0.1294331624
C   C150      1.0  0.46769  0.91957  0.56134  1.0000 -0.1294331624
C   C151      1.0  0.38726  0.08043  0.06134  1.0000 -0.1294331624
C   C152      1.0  0.61274  0.91957  0.93866  1.0000 -0.1294331624
C   C153      1.0  0.62751  0.01778  0.41810  1.0000 0.1214797394
C   C154      1.0  0.37249  0.98222  0.58190  1.0000 0.1214797394
C   C155      1.0  0.35471  0.01778  0.08190  1.0000 0.1214797394
C   C156      1.0  0.64529  0.98222  0.91810  1.0000 0.1214797394
C   C157      1.0  0.65401  0.97134  0.35844  1.0000 0.6095050475
C   C158      1.0  0.34599  0.02866  0.64156  1.0000 0.6095050475
C   C159      1.0  0.37465  0.97134  0.14156  1.0000 0.6095050475
C   C160      1.0  0.62535  0.02866  0.85844  1.0000 0.6095050475
C   C161      1.0  0.78774  0.15077  0.75202  1.0000 0.1297990096
C   C162      1.0  0.21226  0.84923  0.24798  1.0000 0.1297990096
C   C163      1.0  0.06149  0.15077  0.74798  1.0000 0.1297990096
C   C164      1.0  0.93851  0.84923  0.25202  1.0000 0.1297990096
C   C165      1.0  0.79601  0.12402  0.69382  1.0000 -0.1584247579
C   C166      1.0  0.20399  0.87598  0.30618  1.0000 -0.1584247579
C   C167      1.0  0.07997  0.12402  0.80618  1.0000 -0.1584247579
C   C168      1.0  0.92003  0.87598  0.19382  1.0000 -0.1584247579
C   C169      1.0  0.85424  0.03299  0.67886  1.0000 0.1214797394
C   C170      1.0  0.14576  0.96701  0.32114  1.0000 0.1214797394
C   C171      1.0  0.11277  0.03299  0.82114  1.0000 0.1214797394
C   C172      1.0  0.88723  0.96701  0.17886  1.0000 0.1214797394
C   C173      1.0  0.90449  0.97205  0.72255  1.0000 -0.1684988761
C   C174      1.0  0.09551  0.02795  0.27745  1.0000 -0.1684988761
C   C175      1.0  0.12346  0.97205  0.77745  1.0000 -0.1684988761
C   C176      1.0  0.87654  0.02795  0.22255  1.0000 -0.1684988761
C   C177      1.0  0.88952  0.00349  0.78035  1.0000 0.1110439488
C   C178      1.0  0.11048  0.99651  0.21965  1.0000 0.1110439488
C   C179      1.0  0.10699  0.00349  0.71965  1.0000 0.1110439488
C   C180      1.0  0.89301  0.99651  0.28035  1.0000 0.1110439488
C   C181      1.0  0.93233  0.94154  0.83205  1.0000 0.5434402129
C   C182      1.0  0.06767  0.05846  0.16795  1.0000 0.5434402129
C   C183      1.0  0.12613  0.94154  0.66795  1.0000 0.5434402129
C   C184      1.0  0.87387  0.05846  0.33205  1.0000 0.5434402129
C   C185      1.0  0.78234  0.78928  0.50810  1.0000 0.5855980119
C   C186      1.0  0.21766  0.21072  0.49190  1.0000 0.5849274597
C   C187      1.0  0.42837  0.78928  0.99190  1.0000 0.5855980119
C   C188      1.0  0.57163  0.21072  0.00810  1.0000 0.5849274597
C   C189      1.0  0.72101  0.55797  0.75000  1.0000 0.3548570177
C   C190      1.0  0.27899  0.44203  0.25000  1.0000 0.3558812639
N   N1        1.0  0.81771  0.53474  0.53635  1.0000 -0.3691449934
N   N2        1.0  0.18229  0.46526  0.46365  1.0000 -0.3691449934
N   N3        1.0  0.64755  0.53474  0.96365  1.0000 -0.3691449934
N   N4        1.0  0.35245  0.46526  0.03635  1.0000 -0.3691449934
N   N5        1.0  0.90985  0.55325  0.62285  1.0000 -0.4133107934
N   N6        1.0  0.09015  0.44675  0.37715  1.0000 -0.4133107934
N   N7        1.0  0.53690  0.55325  0.87715  1.0000 -0.4133107934
N   N8        1.0  0.46310  0.44675  0.12285  1.0000 -0.4133107934
N   N9        1.0  0.81228  0.70842  0.68105  1.0000 -0.4133107934
N   N10       1.0  0.18772  0.29158  0.31895  1.0000 -0.4133107934
N   N11       1.0  0.47930  0.70842  0.81895  1.0000 -0.4133107934
N   N12       1.0  0.52070  0.29158  0.18105  1.0000 -0.4133107934
N   N13       1.0  0.34083  0.19073  0.70961  1.0000 -0.3691449934
N   N14       1.0  0.65917  0.80927  0.29039  1.0000 -0.3691449934
N   N15       1.0  0.46844  0.19073  0.79039  1.0000 -0.3691449934
N   N16       1.0  0.53156  0.80927  0.20961  1.0000 -0.3691449934
N   N17       1.0  0.02804  0.81729  0.44725  1.0000 -0.3998607942
N   N18       1.0  0.97196  0.18271  0.55275  1.0000 -0.3998607942
N   N19       1.0  0.15466  0.81729  0.05275  1.0000 -0.3998607942
N   N20       1.0  0.84534  0.18271  0.94725  1.0000 -0.3998607942
N   N21       1.0  0.86500  0.94569  0.50348  1.0000 -0.4133107934
N   N22       1.0  0.13500  0.05431  0.49652  1.0000 -0.4133107934
N   N23       1.0  0.18931  0.94569  0.99652  1.0000 -0.4133107934
N   N24       1.0  0.81069  0.05431  0.00348  1.0000 -0.4133107934
N   N25       1.0  0.70449  0.99451  0.44928  1.0000 -0.3998607942
N   N26       1.0  0.29551  0.00549  0.55072  1.0000 -0.3998607942
N   N27       1.0  0.30100  0.99451  0.05072  1.0000 -0.3998607942
N   N28       1.0  0.69900  0.00549  0.94928  1.0000 -0.3998607942
N   N29       1.0  0.83152  0.09137  0.79500  1.0000 -0.3691449934
N   N30       1.0  0.16848  0.90863  0.20500  1.0000 -0.3691449934
N   N31       1.0  0.07711  0.09137  0.70500  1.0000 -0.3691449934
N   N32       1.0  0.92289  0.90863  0.29500  1.0000 -0.3691449934
O   O1        1.0  0.64495  0.67507  0.53166  1.0000 -0.696110765
O   O2        1.0  0.35505  0.32493  0.46834  1.0000 -0.696110765
O   O3        1.0  0.67998  0.67507  0.96834  1.0000 -0.696110765
O   O4        1.0  0.32002  0.32493  0.03166  1.0000 -0.696110765
O   O5        1.0  0.61018  0.61231  0.45698  1.0000 -0.4834868858
O   O6        1.0  0.38982  0.38769  0.54302  1.0000 -0.4834868858
O   O7        1.0  0.77751  0.61231  0.04302  1.0000 -0.4834868858
O   O8        1.0  0.22249  0.38769  0.95698  1.0000 -0.4834868858
O   O9        1.0  0.63823  0.80767  0.64547  1.0000 -0.6635834673
O   O10       1.0  0.36177  0.19233  0.35453  1.0000 -0.6635834673
O   O11       1.0  0.55410  0.80767  0.85453  1.0000 -0.6635834673
O   O12       1.0  0.44590  0.19233  0.14547  1.0000 -0.6635834673
O   O13       1.0  0.61202  0.92489  0.70358  1.0000 -0.5963234776
O   O14       1.0  0.38798  0.07511  0.29642  1.0000 -0.5963234776
O   O15       1.0  0.46308  0.92489  0.79642  1.0000 -0.5963234776
O   O16       1.0  0.53692  0.07511  0.20358  1.0000 -0.5963234776
O   O17       1.0  0.18753  0.22662  0.84637  1.0000 -0.5131374621
O   O18       1.0  0.81247  0.77338  0.15363  1.0000 -0.5131374621
O   O19       1.0  0.58585  0.22662  0.65363  1.0000 -0.5131374621
O   O20       1.0  0.41415  0.77338  0.34637  1.0000 -0.5131374621
O   O21       1.0  0.33364  0.11069  0.81350  1.0000 -0.6791286269
O   O22       1.0  0.66636  0.88931  0.18650  1.0000 -0.6791286269
O   O23       1.0  0.55566  0.11069  0.68650  1.0000 -0.6791286269
O   O24       1.0  0.44434  0.88931  0.31350  1.0000 -0.6791286269
O   O25       1.0  0.98546  0.74668  0.36350  1.0000 -0.6635834673
O   O26       1.0  0.01454  0.25332  0.63650  1.0000 -0.6635834673
O   O27       1.0  0.26786  0.74668  0.13650  1.0000 -0.6635834673
O   O28       1.0  0.73214  0.25332  0.86350  1.0000 -0.6635834673
O   O29       1.0  0.14395  0.64480  0.33809  1.0000 -0.4962018529
O   O30       1.0  0.85605  0.35520  0.66191  1.0000 -0.4962018529
O   O31       1.0  0.21125  0.64480  0.16191  1.0000 -0.4962018529
O   O32       1.0  0.78875  0.35520  0.83809  1.0000 -0.4962018529
O   O33       1.0  0.74394  0.91587  0.34501  1.0000 -0.621768313
O   O34       1.0  0.25606  0.08413  0.65499  1.0000 -0.621768313
O   O35       1.0  0.34019  0.91587  0.15499  1.0000 -0.621768313
O   O36       1.0  0.65981  0.08413  0.84501  1.0000 -0.621768313
O   O37       1.0  0.58591  0.99118  0.32620  1.0000 -0.621768313
O   O38       1.0  0.41409  0.00882  0.67380  1.0000 -0.621768313
O   O39       1.0  0.42292  0.99118  0.17380  1.0000 -0.621768313
O   O40       1.0  0.57708  0.00882  0.82620  1.0000 -0.621768313
O   O41       1.0  0.99668  0.86246  0.82263  1.0000 -0.5131374621
O   O42       1.0  0.00332  0.13754  0.17737  1.0000 -0.5131374621
O   O43       1.0  0.14086  0.86246  0.67737  1.0000 -0.5131374621
O   O44       1.0  0.85914  0.13754  0.32263  1.0000 -0.5131374621
O   O45       1.0  0.89611  0.97880  0.88433  1.0000 -0.6868803301
O   O46       1.0  0.10389  0.02120  0.11567  1.0000 -0.6868803301
O   O47       1.0  0.12509  0.97880  0.61567  1.0000 -0.6868803301
O   O48       1.0  0.87491  0.02120  0.38433  1.0000 -0.6868803301
O   O49       1.0  0.81623  0.71983  0.54086  1.0000 -0.6297487417
O   O50       1.0  0.18377  0.28017  0.45914  1.0000 -0.6297487417
O   O51       1.0  0.46395  0.71983  0.95914  1.0000 -0.6297487417
O   O52       1.0  0.53605  0.28017  0.04086  1.0000 -0.6297487417
O   O53       1.0  0.82543  0.79553  0.45871  1.0000 -0.5963234776
O   O54       1.0  0.17457  0.20447  0.54129  1.0000 -0.5963234776
O   O55       1.0  0.37904  0.79553  0.04129  1.0000 -0.5963234776
O   O56       1.0  0.62096  0.20447  0.95871  1.0000 -0.5963234776
O   O57       1.0  0.68018  0.60704  0.70532  1.0000 -0.0431531282
O   O58       1.0  0.31982  0.39296  0.29468  1.0000 -0.0431531282
O   O59       1.0  0.71279  0.60704  0.79468  1.0000 -0.0431531282
O   O60       1.0  0.28721  0.39296  0.20532  1.0000 -0.0431531282
O   O61       1.0  0.70439  0.55434  0.65092  1.0000 -0.5289746323
O   O62       1.0  0.29561  0.44566  0.34908  1.0000 -0.5289746323
O   O63       1.0  0.74127  0.55434  0.84908  1.0000 -0.5289746323
O   O64       1.0  0.25873  0.44566  0.15092  1.0000 -0.5289746323
