# DDEC6 charges by PACMAN v1.1 (https://github.com/mtap-research/PACMAN-charge/)
data_2014[Co][bcu]3[ASR]1
_chemical_formula_sum              "Co6 H32 C48 N52"
_cell_length_a       12.2143
_cell_length_b       13.8051
_cell_length_c       16.5293
_cell_angle_alpha    90
_cell_angle_beta     90
_cell_angle_gamma    90

_symmetry_space_group_name_H-M    "P 1"
_symmetry_Int_Tables_number       1

loop_
  _symmetry_equiv_pos_as_xyz
  'x, y, z'

loop_
  _atom_site_type_symbol
  _atom_site_label
  _atom_site_symmetry_multiplicity
  _atom_site_fract_x
  _atom_site_fract_y
  _atom_site_fract_z
  _atom_site_occupancy
  _atom_site_charge
Co  Co1       1.0  0.00000  0.00000  0.50000  1.0000 0.5421280429
Co  Co2       1.0  0.50000  0.50000  0.00000  1.0000 0.5421280429
Co  Co3       1.0  0.06712  0.23159  0.50000  1.0000 0.5421280429
Co  Co4       1.0  0.93288  0.76841  0.50000  1.0000 0.5421280429
Co  Co5       1.0  0.43288  0.73160  0.00000  1.0000 0.5421280429
Co  Co6       1.0  0.56712  0.26840  0.00000  1.0000 0.5421280429
H   H1        1.0  0.66188  0.36522  0.85899  1.0000 0.0892880417
H   H2        1.0  0.33812  0.63478  0.14101  1.0000 0.0892880417
H   H3        1.0  0.33812  0.63478  0.85899  1.0000 0.0892880417
H   H4        1.0  0.66188  0.36522  0.14101  1.0000 0.0892880417
H   H5        1.0  0.83812  0.86522  0.64101  1.0000 0.0892880417
H   H6        1.0  0.16188  0.13478  0.35899  1.0000 0.0892880417
H   H7        1.0  0.16188  0.13478  0.64101  1.0000 0.0892880417
H   H8        1.0  0.83812  0.86522  0.35899  1.0000 0.0892880417
H   H9        1.0  0.76976  0.33256  0.73554  1.0000 0.1175064382
H   H10       1.0  0.23024  0.66744  0.26446  1.0000 0.1175064382
H   H11       1.0  0.23024  0.66744  0.73554  1.0000 0.1175064382
H   H12       1.0  0.76976  0.33256  0.26446  1.0000 0.1175064382
H   H13       1.0  0.73024  0.83256  0.76446  1.0000 0.1175064382
H   H14       1.0  0.26976  0.16744  0.23554  1.0000 0.1175064382
H   H15       1.0  0.26976  0.16744  0.76446  1.0000 0.1175064382
H   H16       1.0  0.73024  0.83256  0.23554  1.0000 0.1175064382
H   H17       1.0  0.79458  0.03329  0.81115  1.0000 0.1175064382
H   H18       1.0  0.20542  0.96671  0.18885  1.0000 0.1175064382
H   H19       1.0  0.20542  0.96671  0.81115  1.0000 0.1175064382
H   H20       1.0  0.79458  0.03329  0.18885  1.0000 0.1175064382
H   H21       1.0  0.70542  0.53329  0.68885  1.0000 0.1175064382
H   H22       1.0  0.29458  0.46671  0.31115  1.0000 0.1175064382
H   H23       1.0  0.29458  0.46671  0.68885  1.0000 0.1175064382
H   H24       1.0  0.70542  0.53329  0.31115  1.0000 0.1175064382
H   H25       1.0  0.68763  0.07609  0.93284  1.0000 0.0760287682
H   H26       1.0  0.31237  0.92391  0.06716  1.0000 0.0760287682
H   H27       1.0  0.31237  0.92391  0.93284  1.0000 0.0760287682
H   H28       1.0  0.68763  0.07609  0.06716  1.0000 0.0760287682
H   H29       1.0  0.81237  0.57609  0.56716  1.0000 0.0760287682
H   H30       1.0  0.18763  0.42391  0.43284  1.0000 0.0760287682
H   H31       1.0  0.18763  0.42391  0.56716  1.0000 0.0760287682
H   H32       1.0  0.81237  0.57609  0.43284  1.0000 0.0760287682
C   C1        1.0  0.69209  0.29169  0.84694  1.0000 0.1025008561
C   C2        1.0  0.30791  0.70831  0.15306  1.0000 0.1025008561
C   C3        1.0  0.30791  0.70831  0.84694  1.0000 0.1025008561
C   C4        1.0  0.69209  0.29169  0.15306  1.0000 0.1025008561
C   C5        1.0  0.80790  0.79169  0.65306  1.0000 0.1025008561
C   C6        1.0  0.19210  0.20831  0.34694  1.0000 0.1025008561
C   C7        1.0  0.19210  0.20831  0.65306  1.0000 0.1025008561
C   C8        1.0  0.80790  0.79169  0.34694  1.0000 0.1025008561
C   C9        1.0  0.75311  0.27266  0.77712  1.0000 -0.1545251159
C   C10       1.0  0.24689  0.72734  0.22288  1.0000 -0.1545251159
C   C11       1.0  0.24689  0.72734  0.77712  1.0000 -0.1545251159
C   C12       1.0  0.75311  0.27266  0.22288  1.0000 -0.1545251159
C   C13       1.0  0.74689  0.77266  0.72288  1.0000 -0.1545251159
C   C14       1.0  0.25311  0.22734  0.27712  1.0000 -0.1545251159
C   C15       1.0  0.25311  0.22734  0.72288  1.0000 -0.1545251159
C   C16       1.0  0.74689  0.77266  0.27712  1.0000 -0.1545251159
C   C17       1.0  0.79277  0.17900  0.75930  1.0000 0.1025008561
C   C18       1.0  0.20723  0.82100  0.24070  1.0000 0.1025008561
C   C19       1.0  0.20723  0.82100  0.75930  1.0000 0.1025008561
C   C20       1.0  0.79277  0.17900  0.24070  1.0000 0.1025008561
C   C21       1.0  0.70722  0.67900  0.74070  1.0000 0.1025008561
C   C22       1.0  0.29278  0.32100  0.25930  1.0000 0.1025008561
C   C23       1.0  0.29278  0.32100  0.74070  1.0000 0.1025008561
C   C24       1.0  0.70722  0.67900  0.25930  1.0000 0.1025008561
C   C25       1.0  0.76668  0.10819  0.81838  1.0000 -0.1716897038
C   C26       1.0  0.23332  0.89181  0.18162  1.0000 -0.1716897038
C   C27       1.0  0.23332  0.89181  0.81838  1.0000 -0.1716897038
C   C28       1.0  0.76668  0.10819  0.18162  1.0000 -0.1716897038
C   C29       1.0  0.73332  0.60819  0.68162  1.0000 -0.1716897038
C   C30       1.0  0.26668  0.39181  0.31838  1.0000 -0.1716897038
C   C31       1.0  0.26668  0.39181  0.68162  1.0000 -0.1716897038
C   C32       1.0  0.73332  0.60819  0.31838  1.0000 -0.1716897038
C   C33       1.0  0.70585  0.13236  0.88768  1.0000 0.0892880417
C   C34       1.0  0.29415  0.86764  0.11232  1.0000 0.0892880417
C   C35       1.0  0.29415  0.86764  0.88768  1.0000 0.0892880417
C   C36       1.0  0.70585  0.13236  0.11232  1.0000 0.0892880417
C   C37       1.0  0.79415  0.63236  0.61232  1.0000 0.0892880417
C   C38       1.0  0.20585  0.36764  0.38768  1.0000 0.0892880417
C   C39       1.0  0.20585  0.36764  0.61232  1.0000 0.0892880417
C   C40       1.0  0.79415  0.63236  0.38768  1.0000 0.0892880417
C   C41       1.0  0.85745  0.15993  0.68472  1.0000 0.2162263918
C   C42       1.0  0.14255  0.84007  0.31528  1.0000 0.2162263918
C   C43       1.0  0.14255  0.84007  0.68472  1.0000 0.2162263918
C   C44       1.0  0.85745  0.15993  0.31528  1.0000 0.2162263918
C   C45       1.0  0.64255  0.65993  0.81528  1.0000 0.2162263918
C   C46       1.0  0.35745  0.34007  0.18472  1.0000 0.2162263918
C   C47       1.0  0.35745  0.34007  0.81528  1.0000 0.2162263918
C   C48       1.0  0.64255  0.65993  0.18472  1.0000 0.2162263918
N   N1        1.0  0.66622  0.22320  0.90405  1.0000 -0.2375485261
N   N2        1.0  0.33378  0.77680  0.09595  1.0000 -0.2375485261
N   N3        1.0  0.33378  0.77680  0.90405  1.0000 -0.2375485261
N   N4        1.0  0.66622  0.22320  0.09595  1.0000 -0.2375485261
N   N5        1.0  0.83378  0.72320  0.59595  1.0000 -0.2375485261
N   N6        1.0  0.16622  0.27680  0.40405  1.0000 -0.2375485261
N   N7        1.0  0.16622  0.27680  0.59595  1.0000 -0.2375485261
N   N8        1.0  0.83378  0.72320  0.40405  1.0000 -0.2375485261
N   N9        1.0  0.87213  0.07093  0.64936  1.0000 -0.260732535
N   N10       1.0  0.12787  0.92907  0.35064  1.0000 -0.260732535
N   N11       1.0  0.12787  0.92907  0.64936  1.0000 -0.260732535
N   N12       1.0  0.87213  0.07093  0.35064  1.0000 -0.260732535
N   N13       1.0  0.62787  0.57093  0.85064  1.0000 -0.260732535
N   N14       1.0  0.37213  0.42907  0.14936  1.0000 -0.260732535
N   N15       1.0  0.37213  0.42907  0.85064  1.0000 -0.260732535
N   N16       1.0  0.62787  0.57093  0.14936  1.0000 -0.260732535
N   N17       1.0  0.93742  0.08872  0.58512  1.0000 -0.0064754879
N   N18       1.0  0.06258  0.91128  0.41488  1.0000 -0.0064754879
N   N19       1.0  0.06258  0.91128  0.58512  1.0000 -0.0064754879
N   N20       1.0  0.93742  0.08872  0.41488  1.0000 -0.0064754879
N   N21       1.0  0.56258  0.58872  0.91488  1.0000 -0.0064754879
N   N22       1.0  0.43742  0.41128  0.08512  1.0000 -0.0064754879
N   N23       1.0  0.43742  0.41128  0.91488  1.0000 -0.0064754879
N   N24       1.0  0.56258  0.58872  0.08512  1.0000 -0.0064754879
N   N25       1.0  0.96197  0.18589  0.58171  1.0000 -0.0270511468
N   N26       1.0  0.03803  0.81411  0.41829  1.0000 -0.0270511468
N   N27       1.0  0.03803  0.81411  0.58171  1.0000 -0.0270511468
N   N28       1.0  0.96197  0.18589  0.41829  1.0000 -0.0270511468
N   N29       1.0  0.53803  0.68589  0.91829  1.0000 -0.0270511468
N   N30       1.0  0.46197  0.31411  0.08171  1.0000 -0.0270511468
N   N31       1.0  0.46197  0.31411  0.91829  1.0000 -0.0270511468
N   N32       1.0  0.53803  0.68589  0.08171  1.0000 -0.0270511468
N   N33       1.0  0.91147  0.23207  0.64331  1.0000 -0.2650241291
N   N34       1.0  0.08853  0.76793  0.35669  1.0000 -0.2650241291
N   N35       1.0  0.08853  0.76793  0.64331  1.0000 -0.2650241291
N   N36       1.0  0.91147  0.23207  0.35669  1.0000 -0.2650241291
N   N37       1.0  0.58853  0.73207  0.85669  1.0000 -0.2650241291
N   N38       1.0  0.41147  0.26793  0.14331  1.0000 -0.2650241291
N   N39       1.0  0.41147  0.26793  0.85669  1.0000 -0.2650241291
N   N40       1.0  0.58853  0.73207  0.14331  1.0000 -0.2650241291
N   N41       1.0  0.12349  0.08703  0.50000  1.0000 -0.4990987291
N   N42       1.0  0.87651  0.91297  0.50000  1.0000 -0.4990987291
N   N43       1.0  0.37651  0.58703  0.00000  1.0000 -0.4990987291
N   N44       1.0  0.62349  0.41297  0.00000  1.0000 -0.4990987291
N   N45       1.0  0.22190  0.06442  0.50000  1.0000 0.4224155808
N   N46       1.0  0.77810  0.93558  0.50000  1.0000 0.4224155808
N   N47       1.0  0.27809  0.56442  0.00000  1.0000 0.4224155808
N   N48       1.0  0.72191  0.43558  0.00000  1.0000 0.4224155808
N   N49       1.0  0.31730  0.05482  0.50000  1.0000 -0.3121072908
N   N50       1.0  0.68270  0.94518  0.50000  1.0000 -0.3121072908
N   N51       1.0  0.18271  0.55483  0.00000  1.0000 -0.3121072908
N   N52       1.0  0.81729  0.44517  0.00000  1.0000 -0.3121072908
