# DDEC6 charges by PACMAN v1.1 (https://github.com/mtap-research/PACMAN-charge/)
data_2014[Ce][nan]3[ASR]4
_chemical_formula_sum              "Ce16 H160 C288 N48 O108"
_cell_length_a       29.9404
_cell_length_b       29.9404
_cell_length_c       16.9133
_cell_angle_alpha    82.5738
_cell_angle_beta     97.4262
_cell_angle_gamma    122.635

_symmetry_space_group_name_H-M    "P 1"
_symmetry_Int_Tables_number       1

loop_
  _symmetry_equiv_pos_as_xyz
  'x, y, z'

loop_
  _atom_site_type_symbol
  _atom_site_label
  _atom_site_symmetry_multiplicity
  _atom_site_fract_x
  _atom_site_fract_y
  _atom_site_fract_z
  _atom_site_occupancy
  _atom_site_charge
Ce  Ce1       1.0  0.28060  0.28606  0.11847  1.0000 2.0021267349
Ce  Ce2       1.0  0.28606  0.28060  0.38153  1.0000 2.0021267349
Ce  Ce3       1.0  0.71940  0.71394  0.88153  1.0000 2.0021267349
Ce  Ce4       1.0  0.71394  0.71940  0.61847  1.0000 2.0021267349
Ce  Ce5       1.0  0.22407  0.22347  0.88073  1.0000 1.9839034492
Ce  Ce6       1.0  0.22347  0.22407  0.61927  1.0000 1.9839034492
Ce  Ce7       1.0  0.77593  0.77653  0.11927  1.0000 1.9839034492
Ce  Ce8       1.0  0.77653  0.77593  0.38073  1.0000 1.9839034492
Ce  Ce9       1.0  0.29409  0.79579  0.23706  1.0000 1.9703057522
Ce  Ce10      1.0  0.79579  0.29409  0.26294  1.0000 1.9703057522
Ce  Ce11      1.0  0.70591  0.20421  0.76294  1.0000 1.9703057522
Ce  Ce12      1.0  0.20421  0.70591  0.73706  1.0000 1.9703057522
Ce  Ce13      1.0  0.27084  0.77116  0.95954  1.0000 1.9888861293
Ce  Ce14      1.0  0.77116  0.27084  0.54046  1.0000 1.9888861293
Ce  Ce15      1.0  0.72916  0.22884  0.04046  1.0000 1.9888861293
Ce  Ce16      1.0  0.22884  0.72916  0.45954  1.0000 1.9888861293
H   H1        1.0  0.21020  0.18500  0.25640  1.0000 0.3614570016
H   H2        1.0  0.18500  0.21020  0.24360  1.0000 0.3614570016
H   H3        1.0  0.78980  0.81500  0.74360  1.0000 0.3614570016
H   H4        1.0  0.81500  0.78980  0.75640  1.0000 0.3614570016
H   H5        1.0  0.39320  0.39920  0.13060  1.0000 0.3778576666
H   H6        1.0  0.39920  0.39320  0.36940  1.0000 0.3778576666
H   H7        1.0  0.60680  0.60080  0.86940  1.0000 0.3778576666
H   H8        1.0  0.60080  0.60680  0.63060  1.0000 0.3778576666
H   H9        1.0  0.36260  0.38260  0.06170  1.0000 0.3504729086
H   H10       1.0  0.38260  0.36260  0.43830  1.0000 0.3504729086
H   H11       1.0  0.63740  0.61740  0.93830  1.0000 0.3504729086
H   H12       1.0  0.61740  0.63740  0.56170  1.0000 0.3504729086
H   H13       1.0  0.28970  0.12890  0.19190  1.0000 0.1261370456
H   H14       1.0  0.12890  0.28970  0.30810  1.0000 0.1261370456
H   H15       1.0  0.71030  0.87110  0.80810  1.0000 0.1261370456
H   H16       1.0  0.87110  0.71030  0.69190  1.0000 0.1261370456
H   H17       1.0  0.21320  0.10260  0.97230  1.0000 0.1023651251
H   H18       1.0  0.10260  0.21320  0.52770  1.0000 0.1023651251
H   H19       1.0  0.78680  0.89740  0.02770  1.0000 0.1023651251
H   H20       1.0  0.89740  0.78680  0.47230  1.0000 0.1023651251
H   H21       1.0  0.40610  0.22470  0.36930  1.0000 0.1023651251
H   H22       1.0  0.22470  0.40610  0.13070  1.0000 0.1023651251
H   H23       1.0  0.59390  0.77530  0.63070  1.0000 0.1023651251
H   H24       1.0  0.77530  0.59390  0.86930  1.0000 0.1023651251
H   H25       1.0  0.39750  0.26970  0.13750  1.0000 0.1200888179
H   H26       1.0  0.26970  0.39750  0.36250  1.0000 0.1200888179
H   H27       1.0  0.60250  0.73030  0.86250  1.0000 0.1200888179
H   H28       1.0  0.73030  0.60250  0.63750  1.0000 0.1200888179
H   H29       1.0  0.14470  0.27630  0.13940  1.0000 0.1261370456
H   H30       1.0  0.27630  0.14470  0.36060  1.0000 0.1261370456
H   H31       1.0  0.85530  0.72370  0.86060  1.0000 0.1261370456
H   H32       1.0  0.72370  0.85530  0.63940  1.0000 0.1261370456
H   H33       1.0  0.05120  0.18100  0.96540  1.0000 0.1084022377
H   H34       1.0  0.18100  0.05120  0.53460  1.0000 0.1084022377
H   H35       1.0  0.94880  0.81900  0.03460  1.0000 0.1084022377
H   H36       1.0  0.81900  0.94880  0.46540  1.0000 0.1084022377
H   H37       1.0  0.22150  0.38570  0.80250  1.0000 0.1261370456
H   H38       1.0  0.38570  0.22150  0.69750  1.0000 0.1261370456
H   H39       1.0  0.77850  0.61430  0.19750  1.0000 0.1261370456
H   H40       1.0  0.61430  0.77850  0.30250  1.0000 0.1261370456
H   H41       1.0  0.27230  0.39710  0.03250  1.0000 0.1084022377
H   H42       1.0  0.39710  0.27230  0.46750  1.0000 0.1084022377
H   H43       1.0  0.72770  0.60290  0.96750  1.0000 0.1084022377
H   H44       1.0  0.60290  0.72770  0.53250  1.0000 0.1084022377
H   H45       1.0  0.35960  0.23800  0.85680  1.0000 0.1261370456
H   H46       1.0  0.23800  0.35960  0.64320  1.0000 0.1261370456
H   H47       1.0  0.64040  0.76200  0.14320  1.0000 0.1261370456
H   H48       1.0  0.76200  0.64040  0.35680  1.0000 0.1261370456
H   H49       1.0  0.45480  0.33420  0.02920  1.0000 0.1023651251
H   H50       1.0  0.33420  0.45480  0.47080  1.0000 0.1023651251
H   H51       1.0  0.54520  0.66580  0.97080  1.0000 0.1023651251
H   H52       1.0  0.66580  0.54520  0.52920  1.0000 0.1023651251
H   H53       1.0  0.28430  0.04870  0.19570  1.0000 0.1200888179
H   H54       1.0  0.04870  0.28430  0.30430  1.0000 0.1200888179
H   H55       1.0  0.71570  0.95130  0.80430  1.0000 0.1200888179
H   H56       1.0  0.95130  0.71570  0.69570  1.0000 0.1200888179
H   H57       1.0  0.32160  0.30140  0.74840  1.0000 0.3229199017
H   H58       1.0  0.30140  0.32160  0.75160  1.0000 0.3229199017
H   H59       1.0  0.67840  0.69860  0.25160  1.0000 0.3229199017
H   H60       1.0  0.69860  0.67840  0.24840  1.0000 0.3229199017
H   H61       1.0  0.46360  0.25400  0.11760  1.0000 0.1084022377
H   H62       1.0  0.25400  0.46360  0.38240  1.0000 0.1084022377
H   H63       1.0  0.53640  0.74600  0.88240  1.0000 0.1084022377
H   H64       1.0  0.74600  0.53640  0.61760  1.0000 0.1084022377
H   H65       1.0  0.07730  0.29030  0.15630  1.0000 0.1200888179
H   H66       1.0  0.29030  0.07730  0.34370  1.0000 0.1200888179
H   H67       1.0  0.92270  0.70970  0.84370  1.0000 0.1200888179
H   H68       1.0  0.70970  0.92270  0.65630  1.0000 0.1200888179
H   H69       1.0  0.21070  0.45670  0.80450  1.0000 0.1200888179
H   H70       1.0  0.45670  0.21070  0.69550  1.0000 0.1200888179
H   H71       1.0  0.78930  0.54330  0.19550  1.0000 0.1200888179
H   H72       1.0  0.54330  0.78930  0.30450  1.0000 0.1200888179
H   H73       1.0  0.42870  0.22730  0.83510  1.0000 0.1200888179
H   H74       1.0  0.22730  0.42870  0.66490  1.0000 0.1200888179
H   H75       1.0  0.57130  0.77270  0.16490  1.0000 0.1200888179
H   H76       1.0  0.77270  0.57130  0.33510  1.0000 0.1200888179
H   H77       1.0  0.19650  0.95530  0.98490  1.0000 0.1261370456
H   H78       1.0  0.95530  0.19650  0.51510  1.0000 0.1261370456
H   H79       1.0  0.80350  0.04470  0.01510  1.0000 0.1261370456
H   H80       1.0  0.04470  0.80350  0.48490  1.0000 0.1200888179
H   H81       1.0  0.21960  0.09380  0.65530  1.0000 0.1200888179
H   H82       1.0  0.09380  0.21960  0.84470  1.0000 0.1200888179
H   H83       1.0  0.78040  0.90620  0.34470  1.0000 0.1200888179
H   H84       1.0  0.90620  0.78040  0.15530  1.0000 0.1200888179
H   H85       1.0  0.28460  0.10520  0.87820  1.0000 0.1023651251
H   H86       1.0  0.10520  0.28460  0.62180  1.0000 0.1023651251
H   H87       1.0  0.71540  0.89480  0.12180  1.0000 0.1023651251
H   H88       1.0  0.89480  0.71540  0.37820  1.0000 0.1023651251
H   H89       1.0  0.55740  0.25320  0.34090  1.0000 0.1084022377
H   H90       1.0  0.25320  0.55740  0.15910  1.0000 0.1084022377
H   H91       1.0  0.44260  0.74680  0.65910  1.0000 0.1084022377
H   H92       1.0  0.74680  0.44260  0.84090  1.0000 0.1084022377
H   H93       1.0  0.93110  0.20850  0.98940  1.0000 0.1200888179
H   H94       1.0  0.20850  0.93110  0.51060  1.0000 0.1200888179
H   H95       1.0  0.06890  0.79150  0.01060  1.0000 0.1200888179
H   H96       1.0  0.79150  0.06890  0.48940  1.0000 0.1200888179
H   H97       1.0  0.26880  0.53060  0.04080  1.0000 0.1200888179
H   H98       1.0  0.53060  0.26880  0.45920  1.0000 0.1200888179
H   H99       1.0  0.73120  0.46940  0.95920  1.0000 0.1200888179
H   H100      1.0  0.46940  0.73120  0.54080  1.0000 0.1200888179
H   H101      1.0  0.57360  0.30680  0.00310  1.0000 0.1200888179
H   H102      1.0  0.30680  0.57360  0.49690  1.0000 0.1200888179
H   H103      1.0  0.42640  0.69320  0.99690  1.0000 0.1200888179
H   H104      1.0  0.69320  0.42640  0.50310  1.0000 0.1200888179
H   H105      1.0  0.20790  0.88450  0.97560  1.0000 0.1200888179
H   H106      1.0  0.88450  0.20790  0.52440  1.0000 0.1200888179
H   H107      1.0  0.79210  0.11550  0.02440  1.0000 0.1200888179
H   H108      1.0  0.11550  0.79210  0.47560  1.0000 0.1200888179
H   H109      1.0  0.30550  0.92590  0.17340  1.0000 0.1084022377
H   H110      1.0  0.92590  0.30550  0.32660  1.0000 0.1084022377
H   H111      1.0  0.69450  0.07410  0.82660  1.0000 0.1084022377
H   H112      1.0  0.07410  0.69450  0.67340  1.0000 0.1084022377
H   H113      1.0  0.22610  0.01970  0.64660  1.0000 0.1200888179
H   H114      1.0  0.01970  0.22610  0.85340  1.0000 0.1200888179
H   H115      1.0  0.77390  0.98030  0.35340  1.0000 0.1200888179
H   H116      1.0  0.98030  0.77390  0.14660  1.0000 0.1200888179
H   H117      1.0  0.63710  0.25830  0.32200  1.0000 0.1261370456
H   H118      1.0  0.25830  0.63710  0.17800  1.0000 0.1261370456
H   H119      1.0  0.36290  0.74170  0.67800  1.0000 0.1261370456
H   H120      1.0  0.74170  0.36290  0.82200  1.0000 0.1261370456
H   H121      1.0  0.57620  0.21180  0.10060  1.0000 0.1084022377
H   H122      1.0  0.21180  0.57620  0.39940  1.0000 0.1084022377
H   H123      1.0  0.42380  0.78820  0.89940  1.0000 0.1084022377
H   H124      1.0  0.78820  0.42380  0.60060  1.0000 0.1084022377
H   H125      1.0  0.86440  0.22440  0.00580  1.0000 0.1200888179
H   H126      1.0  0.22440  0.86440  0.49420  1.0000 0.1200888179
H   H127      1.0  0.13560  0.77560  0.99420  1.0000 0.1200888179
H   H128      1.0  0.77560  0.13560  0.50580  1.0000 0.1200888179
H   H129      1.0  0.95300  0.30340  0.19800  1.0000 0.1023651251
H   H130      1.0  0.30340  0.95300  0.30200  1.0000 0.1023651251
H   H131      1.0  0.04700  0.69660  0.80200  1.0000 0.1023651251
H   H132      1.0  0.69660  0.04700  0.69800  1.0000 0.1023651251
H   H133      1.0  0.26190  0.60490  0.04680  1.0000 0.1200888179
H   H134      1.0  0.60490  0.26190  0.45320  1.0000 0.1200888179
H   H135      1.0  0.73810  0.39510  0.95320  1.0000 0.1200888179
H   H136      1.0  0.39510  0.73810  0.54680  1.0000 0.1200888179
H   H137      1.0  0.21500  0.59700  0.81550  1.0000 0.1084022377
H   H138      1.0  0.59700  0.21500  0.68450  1.0000 0.1084022377
H   H139      1.0  0.78500  0.40300  0.18450  1.0000 0.1084022377
H   H140      1.0  0.40300  0.78500  0.31550  1.0000 0.1084022377
H   H141      1.0  0.63550  0.28330  0.99170  1.0000 0.1200888179
H   H142      1.0  0.28330  0.63550  0.50830  1.0000 0.1261370456
H   H143      1.0  0.36450  0.71670  0.00830  1.0000 0.1261370456
H   H144      1.0  0.71670  0.36450  0.49170  1.0000 0.1261370456
H   H145      1.0  0.55040  0.20980  0.79570  1.0000 0.1023651251
H   H146      1.0  0.20980  0.55040  0.70430  1.0000 0.1023651251
H   H147      1.0  0.44960  0.79020  0.20430  1.0000 0.1023651251
H   H148      1.0  0.79020  0.44960  0.29570  1.0000 0.1023651251
H   H149      1.0  0.28140  0.96640  0.87650  1.0000 0.1200888179
H   H150      1.0  0.96640  0.28140  0.62350  1.0000 0.1200888179
H   H151      1.0  0.71860  0.03360  0.12350  1.0000 0.1200888179
H   H152      1.0  0.03360  0.71860  0.37650  1.0000 0.1200888179
H   H153      1.0  0.27460  0.88540  0.87720  1.0000 0.1200888179
H   H154      1.0  0.88540  0.27460  0.62280  1.0000 0.1200888179
H   H155      1.0  0.72540  0.11460  0.12280  1.0000 0.1200888179
H   H156      1.0  0.11460  0.72540  0.37720  1.0000 0.1200888179
H   H157      1.0  0.21920  0.87780  0.64830  1.0000 0.1084022377
H   H158      1.0  0.87780  0.21920  0.85170  1.0000 0.1084022377
H   H159      1.0  0.78080  0.12220  0.35170  1.0000 0.1084022377
H   H160      1.0  0.12220  0.78080  0.14830  1.0000 0.1084022377
C   C1        1.0  0.25767  0.17553  0.07730  1.0000 0.610477584
C   C2        1.0  0.17553  0.25767  0.42270  1.0000 0.610477584
C   C3        1.0  0.74233  0.82447  0.92270  1.0000 0.610477584
C   C4        1.0  0.82447  0.74233  0.57730  1.0000 0.610477584
C   C5        1.0  0.35665  0.26215  0.27370  1.0000 0.6186768352
C   C6        1.0  0.26215  0.35665  0.22630  1.0000 0.6186768352
C   C7        1.0  0.64335  0.73785  0.72630  1.0000 0.6186768352
C   C8        1.0  0.73785  0.64335  0.77370  1.0000 0.6186768352
C   C9        1.0  0.15103  0.22317  0.03170  1.0000 0.6186768352
C   C10       1.0  0.22317  0.15103  0.46830  1.0000 0.6186768352
C   C11       1.0  0.84897  0.77683  0.96830  1.0000 0.6186768352
C   C12       1.0  0.77683  0.84897  0.53170  1.0000 0.6186768352
C   C13       1.0  0.24164  0.33136  0.92140  1.0000 0.610477584
C   C14       1.0  0.33136  0.24164  0.57860  1.0000 0.610477584
C   C15       1.0  0.75836  0.66864  0.07860  1.0000 0.610477584
C   C16       1.0  0.66864  0.75836  0.42140  1.0000 0.610477584
C   C17       1.0  0.35259  0.28881  0.96700  1.0000 0.610477584
C   C18       1.0  0.28881  0.35259  0.53300  1.0000 0.610477584
C   C19       1.0  0.64741  0.71119  0.03300  1.0000 0.610477584
C   C20       1.0  0.71119  0.64741  0.46700  1.0000 0.610477584
C   C21       1.0  0.25344  0.12416  0.08120  1.0000 -0.0987980774
C   C22       1.0  0.12416  0.25344  0.41880  1.0000 -0.0987980774
C   C23       1.0  0.74656  0.87584  0.91880  1.0000 -0.0987980774
C   C24       1.0  0.87584  0.74656  0.58120  1.0000 -0.0987980774
C   C25       1.0  0.39714  0.25006  0.25690  1.0000 -0.0699296296
C   C26       1.0  0.25006  0.39714  0.24310  1.0000 -0.0699296296
C   C27       1.0  0.60286  0.74994  0.74310  1.0000 -0.0699296296
C   C28       1.0  0.74994  0.60286  0.75690  1.0000 -0.0699296296
C   C29       1.0  0.10525  0.22811  0.04830  1.0000 -0.0699296296
C   C30       1.0  0.22811  0.10525  0.45170  1.0000 -0.0699296296
C   C31       1.0  0.89475  0.77189  0.95170  1.0000 -0.0699296296
C   C32       1.0  0.77189  0.89475  0.54830  1.0000 -0.0699296296
C   C33       1.0  0.24150  0.38150  0.91900  1.0000 -0.0699296296
C   C34       1.0  0.38150  0.24150  0.58100  1.0000 -0.0699296296
C   C35       1.0  0.75850  0.61850  0.08100  1.0000 -0.0699296296
C   C36       1.0  0.61850  0.75850  0.41900  1.0000 -0.0699296296
C   C37       1.0  0.39826  0.28554  0.94770  1.0000 -0.0699296296
C   C38       1.0  0.28554  0.39826  0.55230  1.0000 -0.0699296296
C   C39       1.0  0.60174  0.71446  0.05230  1.0000 -0.0699296296
C   C40       1.0  0.71446  0.60174  0.44770  1.0000 -0.0699296296
C   C41       1.0  0.27360  0.10760  0.14750  1.0000 -0.0615270113
C   C42       1.0  0.10760  0.27360  0.35250  1.0000 -0.0615270113
C   C43       1.0  0.72640  0.89240  0.85250  1.0000 -0.0615270113
C   C44       1.0  0.89240  0.72640  0.64750  1.0000 -0.0615270113
C   C45       1.0  0.22796  0.09144  0.01770  1.0000 0.0781930947
C   C46       1.0  0.09144  0.22796  0.48230  1.0000 0.0781930947
C   C47       1.0  0.77204  0.90856  0.98230  1.0000 0.0781930947
C   C48       1.0  0.90856  0.77204  0.51770  1.0000 0.0781930947
C   C49       1.0  0.41970  0.23270  0.31810  1.0000 0.0511163787
C   C50       1.0  0.23270  0.41970  0.18190  1.0000 0.0511163787
C   C51       1.0  0.58030  0.76730  0.68190  1.0000 0.0511163787
C   C52       1.0  0.76730  0.58030  0.81810  1.0000 0.0511163787
C   C53       1.0  0.41330  0.25850  0.18120  1.0000 -0.0615270113
C   C54       1.0  0.25850  0.41330  0.31880  1.0000 -0.0615270113
C   C55       1.0  0.58670  0.74150  0.81880  1.0000 -0.0615270113
C   C56       1.0  0.74150  0.58670  0.68120  1.0000 -0.0615270113
C   C57       1.0  0.11230  0.25970  0.10690  1.0000 -0.0699296296
C   C58       1.0  0.25970  0.11230  0.39310  1.0000 -0.0699296296
C   C59       1.0  0.88770  0.74030  0.89310  1.0000 -0.0699296296
C   C60       1.0  0.74030  0.88770  0.60690  1.0000 -0.0699296296
C   C61       1.0  0.05635  0.20305  0.00570  1.0000 0.0511163787
C   C62       1.0  0.20305  0.05635  0.49430  1.0000 0.0511163787
C   C63       1.0  0.94365  0.79695  0.99430  1.0000 0.0511163787
C   C64       1.0  0.79695  0.94365  0.50570  1.0000 0.0511163787
C   C65       1.0  0.22820  0.40180  0.85110  1.0000 -0.0615270113
C   C66       1.0  0.40180  0.22820  0.64890  1.0000 -0.0615270113
C   C67       1.0  0.77180  0.59820  0.14890  1.0000 -0.0615270113
C   C68       1.0  0.59820  0.77180  0.35110  1.0000 -0.0615270113
C   C69       1.0  0.25940  0.40940  0.98610  1.0000 0.0511163787
C   C70       1.0  0.40940  0.25940  0.51390  1.0000 0.0511163787
C   C71       1.0  0.74060  0.59060  0.01390  1.0000 0.0511163787
C   C72       1.0  0.59060  0.74060  0.48610  1.0000 0.0511163787
C   C73       1.0  0.39230  0.25530  0.88870  1.0000 -0.0699296296
C   C74       1.0  0.25530  0.39230  0.61130  1.0000 -0.0699296296
C   C75       1.0  0.60770  0.74470  0.11130  1.0000 -0.0615270113
C   C76       1.0  0.74470  0.60770  0.38870  1.0000 -0.0615270113
C   C77       1.0  0.44883  0.31177  0.98890  1.0000 0.0511163787
C   C78       1.0  0.31177  0.44883  0.51110  1.0000 0.0511163787
C   C79       1.0  0.55117  0.68823  0.01110  1.0000 0.0511163787
C   C80       1.0  0.68823  0.55117  0.48890  1.0000 0.0511163787
C   C81       1.0  0.27080  0.06080  0.14970  1.0000 -0.1516706025
C   C82       1.0  0.06080  0.27080  0.35030  1.0000 -0.1516706025
C   C83       1.0  0.72920  0.93920  0.85030  1.0000 -0.1516706025
C   C84       1.0  0.93920  0.72920  0.64970  1.0000 -0.1516706025
C   C85       1.0  0.45310  0.25050  0.16980  1.0000 -0.1516706025
C   C86       1.0  0.25050  0.45310  0.33020  1.0000 -0.1516706025
C   C87       1.0  0.54690  0.74950  0.83020  1.0000 -0.1516706025
C   C88       1.0  0.74950  0.54690  0.66980  1.0000 -0.1516706025
C   C89       1.0  0.07210  0.26710  0.11810  1.0000 -0.1582113192
C   C90       1.0  0.26710  0.07210  0.38190  1.0000 -0.1582113192
C   C91       1.0  0.92790  0.73290  0.88190  1.0000 -0.1582113192
C   C92       1.0  0.73290  0.92790  0.61810  1.0000 -0.1582113192
C   C93       1.0  0.22420  0.44480  0.85080  1.0000 -0.1516706025
C   C94       1.0  0.44480  0.22420  0.64920  1.0000 -0.1516706025
C   C95       1.0  0.77580  0.55520  0.14920  1.0000 -0.1516706025
C   C96       1.0  0.55520  0.77580  0.35080  1.0000 -0.1516706025
C   C97       1.0  0.43350  0.24950  0.87480  1.0000 -0.1582113192
C   C98       1.0  0.24950  0.43350  0.62520  1.0000 -0.1582113192
C   C99       1.0  0.56650  0.75050  0.12520  1.0000 -0.1582113192
C   C100      1.0  0.75050  0.56650  0.37480  1.0000 -0.1582113192
C   C101      1.0  0.24800  0.03120  0.08450  1.0000 0.170049006
C   C102      1.0  0.03120  0.24800  0.41550  1.0000 0.170049006
C   C103      1.0  0.75200  0.96880  0.91550  1.0000 0.170049006
C   C104      1.0  0.96880  0.75200  0.58450  1.0000 0.170049006
C   C105      1.0  0.24250  0.14990  0.78130  1.0000 0.6186768352
C   C106      1.0  0.14990  0.24250  0.71870  1.0000 0.6186768352
C   C107      1.0  0.75750  0.85010  0.21870  1.0000 0.6186768352
C   C108      1.0  0.85010  0.75750  0.28130  1.0000 0.6186768352
C   C109      1.0  0.47760  0.23720  0.23520  1.0000 0.1637271123
C   C110      1.0  0.23720  0.47760  0.26480  1.0000 0.1637271123
C   C111      1.0  0.52240  0.76280  0.76480  1.0000 0.1637271123
C   C112      1.0  0.76280  0.52240  0.73520  1.0000 0.1637271123
C   C113      1.0  0.02385  0.24035  0.07320  1.0000 0.180037709
C   C114      1.0  0.24035  0.02385  0.42680  1.0000 0.180037709
C   C115      1.0  0.97615  0.75965  0.92680  1.0000 0.180037709
C   C116      1.0  0.75965  0.97615  0.57320  1.0000 0.180037709
C   C117      1.0  0.24080  0.47100  0.92160  1.0000 0.1860767456
C   C118      1.0  0.47100  0.24080  0.57840  1.0000 0.1860767456
C   C119      1.0  0.75920  0.52900  0.07840  1.0000 0.1860767456
C   C120      1.0  0.52900  0.75920  0.42160  1.0000 0.1860767456
C   C121      1.0  0.48050  0.27570  0.91840  1.0000 0.170049006
C   C122      1.0  0.27570  0.48050  0.58160  1.0000 0.170049006
C   C123      1.0  0.51950  0.72430  0.08160  1.0000 0.180037709
C   C124      1.0  0.72430  0.51950  0.41840  1.0000 0.180037709
C   C125      1.0  0.24810  0.98210  0.08230  1.0000 0.1637271123
C   C126      1.0  0.98210  0.24810  0.41770  1.0000 0.1637271123
C   C127      1.0  0.75190  0.01790  0.91770  1.0000 0.1637271123
C   C128      1.0  0.01790  0.75190  0.58230  1.0000 0.1637271123
C   C129      1.0  0.25031  0.10569  0.76980  1.0000 -0.0699296296
C   C130      1.0  0.10569  0.25031  0.73020  1.0000 -0.0699296296
C   C131      1.0  0.74969  0.89431  0.23020  1.0000 -0.0699296296
C   C132      1.0  0.89431  0.74969  0.26980  1.0000 -0.0699296296
C   C133      1.0  0.52410  0.23310  0.22910  1.0000 0.180037709
C   C134      1.0  0.23310  0.52410  0.27090  1.0000 0.180037709
C   C135      1.0  0.47590  0.76690  0.77090  1.0000 0.180037709
C   C136      1.0  0.76690  0.47590  0.72910  1.0000 0.180037709
C   C137      1.0  0.97920  0.24760  0.08280  1.0000 0.170049006
C   C138      1.0  0.24760  0.97920  0.41720  1.0000 0.170049006
C   C139      1.0  0.02080  0.75240  0.91720  1.0000 0.170049006
C   C140      1.0  0.75240  0.02080  0.58280  1.0000 0.170049006
C   C141      1.0  0.23880  0.51960  0.92620  1.0000 0.180037709
C   C142      1.0  0.51960  0.23880  0.57380  1.0000 0.180037709
C   C143      1.0  0.76120  0.48040  0.07380  1.0000 0.180037709
C   C144      1.0  0.48040  0.76120  0.42620  1.0000 0.180037709
C   C145      1.0  0.52430  0.26770  0.90740  1.0000 0.170049006
C   C146      1.0  0.26770  0.52430  0.59260  1.0000 0.170049006
C   C147      1.0  0.47570  0.73230  0.09260  1.0000 0.170049006
C   C148      1.0  0.73230  0.47570  0.40740  1.0000 0.170049006
C   C149      1.0  0.21970  0.94950  0.02240  1.0000 -0.1516706025
C   C150      1.0  0.94950  0.21970  0.47760  1.0000 -0.1516706025
C   C151      1.0  0.78030  0.05050  0.97760  1.0000 -0.1516706025
C   C152      1.0  0.05050  0.78030  0.52240  1.0000 -0.1516706025
C   C153      1.0  0.23340  0.08100  0.69990  1.0000 -0.0548411718
C   C154      1.0  0.08100  0.23340  0.80010  1.0000 -0.0548411718
C   C155      1.0  0.76660  0.91900  0.30010  1.0000 -0.0548411718
C   C156      1.0  0.91900  0.76660  0.19990  1.0000 -0.0548411718
C   C157      1.0  0.27118  0.08682  0.83070  1.0000 0.0511163787
C   C158      1.0  0.08682  0.27118  0.66930  1.0000 0.0511163787
C   C159      1.0  0.72882  0.91318  0.16930  1.0000 0.0511163787
C   C160      1.0  0.91318  0.72882  0.33070  1.0000 0.0511163787
C   C161      1.0  0.56260  0.24600  0.29090  1.0000 -0.1676545328
C   C162      1.0  0.24600  0.56260  0.20910  1.0000 -0.1676545328
C   C163      1.0  0.43740  0.75400  0.70910  1.0000 -0.1676545328
C   C164      1.0  0.75400  0.43740  0.79090  1.0000 -0.1676545328
C   C165      1.0  0.93490  0.22830  0.03210  1.0000 -0.1516706025
C   C166      1.0  0.22830  0.93490  0.46790  1.0000 -0.1516706025
C   C167      1.0  0.06510  0.77170  0.96790  1.0000 -0.1516706025
C   C168      1.0  0.77170  0.06510  0.53210  1.0000 -0.1516706025
C   C169      1.0  0.25590  0.54370  0.99550  1.0000 -0.1582113192
C   C170      1.0  0.54370  0.25590  0.50450  1.0000 -0.1582113192
C   C171      1.0  0.74410  0.45630  0.00450  1.0000 -0.1582113192
C   C172      1.0  0.45630  0.74410  0.49550  1.0000 -0.1582113192
C   C173      1.0  0.56870  0.28590  0.96140  1.0000 -0.1516706025
C   C174      1.0  0.28590  0.56870  0.53860  1.0000 -0.1516706025
C   C175      1.0  0.43130  0.71410  0.03860  1.0000 -0.1516706025
C   C176      1.0  0.71410  0.43130  0.46140  1.0000 -0.1516706025
C   C177      1.0  0.22600  0.90740  0.01800  1.0000 -0.0615270113
C   C178      1.0  0.90740  0.22600  0.48200  1.0000 -0.0615270113
C   C179      1.0  0.77400  0.09260  0.98200  1.0000 -0.0615270113
C   C180      1.0  0.09260  0.77400  0.51800  1.0000 -0.0699296296
C   C181      1.0  0.28310  0.93190  0.13430  1.0000 0.0781930947
C   C182      1.0  0.93190  0.28310  0.36570  1.0000 0.0781930947
C   C183      1.0  0.71690  0.06810  0.86570  1.0000 0.0781930947
C   C184      1.0  0.06810  0.71690  0.63430  1.0000 0.0781930947
C   C185      1.0  0.23690  0.03690  0.69490  1.0000 -0.1516706025
C   C186      1.0  0.03690  0.23690  0.80510  1.0000 -0.1516706025
C   C187      1.0  0.76310  0.96310  0.30510  1.0000 -0.1516706025
C   C188      1.0  0.96310  0.76310  0.19490  1.0000 -0.1516706025
C   C189      1.0  0.60970  0.24870  0.28020  1.0000 -0.0615270113
C   C190      1.0  0.24870  0.60970  0.21980  1.0000 -0.0615270113
C   C191      1.0  0.39030  0.75130  0.71980  1.0000 -0.0615270113
C   C192      1.0  0.75130  0.39030  0.78020  1.0000 -0.0615270113
C   C193      1.0  0.57360  0.22260  0.14940  1.0000 0.0400491098
C   C194      1.0  0.22260  0.57360  0.35060  1.0000 0.0400491098
C   C195      1.0  0.42640  0.77740  0.85060  1.0000 0.0400491098
C   C196      1.0  0.77740  0.42640  0.64940  1.0000 0.0400491098
C   C197      1.0  0.89500  0.23720  0.04200  1.0000 -0.0615270113
C   C198      1.0  0.23720  0.89500  0.45800  1.0000 -0.0615270113
C   C199      1.0  0.10500  0.76280  0.95800  1.0000 -0.0615270113
C   C200      1.0  0.76280  0.10500  0.54200  1.0000 -0.0615270113
C   C201      1.0  0.94790  0.28370  0.15430  1.0000 0.0600873519
C   C202      1.0  0.28370  0.94790  0.34570  1.0000 0.0600873519
C   C203      1.0  0.05210  0.71630  0.84570  1.0000 0.0600873519
C   C204      1.0  0.71630  0.05210  0.65430  1.0000 0.0600873519
C   C205      1.0  0.25350  0.58870  0.99780  1.0000 -0.0615270113
C   C206      1.0  0.58870  0.25350  0.50220  1.0000 -0.0615270113
C   C207      1.0  0.74650  0.41130  0.00220  1.0000 -0.0615270113
C   C208      1.0  0.41130  0.74650  0.49780  1.0000 -0.0615270113
C   C209      1.0  0.22550  0.58330  0.86320  1.0000 0.0511163787
C   C210      1.0  0.58330  0.22550  0.63680  1.0000 0.0511163787
C   C211      1.0  0.77450  0.41670  0.13680  1.0000 0.0511163787
C   C212      1.0  0.41670  0.77450  0.36320  1.0000 0.0511163787
C   C213      1.0  0.60600  0.27320  0.95350  1.0000 -0.0699296296
C   C214      1.0  0.27320  0.60600  0.54650  1.0000 -0.0699296296
C   C215      1.0  0.39400  0.72680  0.04650  1.0000 -0.0699296296
C   C216      1.0  0.72680  0.39400  0.45350  1.0000 -0.0615270113
C   C217      1.0  0.55500  0.22960  0.83880  1.0000 0.0600873519
C   C218      1.0  0.22960  0.55500  0.66120  1.0000 0.0600873519
C   C219      1.0  0.44500  0.77040  0.16120  1.0000 0.0600873519
C   C220      1.0  0.77040  0.44500  0.33880  1.0000 0.0600873519
C   C221      1.0  0.25790  0.89830  0.07410  1.0000 -0.0893940868
C   C222      1.0  0.89830  0.25790  0.42590  1.0000 -0.0893940868
C   C223      1.0  0.74210  0.10170  0.92590  1.0000 -0.0893940868
C   C224      1.0  0.10170  0.74210  0.57410  1.0000 -0.0893940868
C   C225      1.0  0.25600  0.01880  0.76110  1.0000 0.180037709
C   C226      1.0  0.01880  0.25600  0.73890  1.0000 0.180037709
C   C227      1.0  0.74400  0.98120  0.23890  1.0000 0.180037709
C   C228      1.0  0.98120  0.74400  0.26110  1.0000 0.180037709
C   C229      1.0  0.61500  0.23700  0.20740  1.0000 -0.0699296296
C   C230      1.0  0.23700  0.61500  0.29260  1.0000 -0.0699296296
C   C231      1.0  0.38500  0.76300  0.79260  1.0000 -0.0699296296
C   C232      1.0  0.76300  0.38500  0.70740  1.0000 -0.0699296296
C   C233      1.0  0.90120  0.26580  0.10760  1.0000 -0.0893940868
C   C234      1.0  0.26580  0.90120  0.39240  1.0000 -0.0893940868
C   C235      1.0  0.09880  0.73420  0.89240  1.0000 -0.0893940868
C   C236      1.0  0.73420  0.09880  0.60760  1.0000 -0.0893940868
C   C237      1.0  0.23900  0.60980  0.93000  1.0000 -0.0699296296
C   C238      1.0  0.60980  0.23900  0.57000  1.0000 -0.0699296296
C   C239      1.0  0.76100  0.39020  0.07000  1.0000 -0.0699296296
C   C240      1.0  0.39020  0.76100  0.43000  1.0000 -0.0699296296
C   C241      1.0  0.60000  0.24600  0.89060  1.0000 -0.0699296296
C   C242      1.0  0.24600  0.60000  0.60940  1.0000 -0.0699296296
C   C243      1.0  0.40000  0.75400  0.10940  1.0000 -0.0699296296
C   C244      1.0  0.75400  0.40000  0.39060  1.0000 -0.0699296296
C   C245      1.0  0.26884  0.85616  0.06680  1.0000 0.610477584
C   C246      1.0  0.85616  0.26884  0.43320  1.0000 0.610477584
C   C247      1.0  0.73116  0.14384  0.93320  1.0000 0.610477584
C   C248      1.0  0.14384  0.73116  0.56680  1.0000 0.610477584
C   C249      1.0  0.25500  0.96820  0.76180  1.0000 0.180037709
C   C250      1.0  0.96820  0.25500  0.73820  1.0000 0.180037709
C   C251      1.0  0.74500  0.03180  0.23820  1.0000 0.180037709
C   C252      1.0  0.03180  0.74500  0.26180  1.0000 0.180037709
C   C253      1.0  0.66475  0.23925  0.19130  1.0000 0.6186768352
C   C254      1.0  0.23925  0.66475  0.30870  1.0000 0.6186768352
C   C255      1.0  0.33525  0.76075  0.80870  1.0000 0.6186768352
C   C256      1.0  0.76075  0.33525  0.69130  1.0000 0.6186768352
C   C257      1.0  0.86000  0.27640  0.12140  1.0000 0.6186768352
C   C258      1.0  0.27640  0.86000  0.37860  1.0000 0.6186768352
C   C259      1.0  0.14000  0.72360  0.87860  1.0000 0.6186768352
C   C260      1.0  0.72360  0.14000  0.62140  1.0000 0.6186768352
C   C261      1.0  0.23810  0.65890  0.93290  1.0000 0.610477584
C   C262      1.0  0.65890  0.23810  0.56710  1.0000 0.610477584
C   C263      1.0  0.76190  0.34110  0.06710  1.0000 0.610477584
C   C264      1.0  0.34110  0.76190  0.43290  1.0000 0.610477584
C   C265      1.0  0.63770  0.22810  0.88160  1.0000 0.6186768352
C   C266      1.0  0.22810  0.63770  0.61840  1.0000 0.6186768352
C   C267      1.0  0.36230  0.77190  0.11840  1.0000 0.6186768352
C   C268      1.0  0.77190  0.36230  0.38160  1.0000 0.6186768352
C   C269      1.0  0.26860  0.94760  0.82950  1.0000 -0.1516706025
C   C270      1.0  0.94760  0.26860  0.67050  1.0000 -0.1516706025
C   C271      1.0  0.73140  0.05240  0.17050  1.0000 -0.1516706025
C   C272      1.0  0.05240  0.73140  0.32950  1.0000 -0.1516706025
C   C273      1.0  0.26410  0.89950  0.83030  1.0000 -0.0615270113
C   C274      1.0  0.89950  0.26410  0.66970  1.0000 -0.0615270113
C   C275      1.0  0.73590  0.10050  0.16970  1.0000 -0.0615270113
C   C276      1.0  0.10050  0.73590  0.33030  1.0000 -0.0615270113
C   C277      1.0  0.23180  0.89580  0.69620  1.0000 0.0600873519
C   C278      1.0  0.89580  0.23180  0.80380  1.0000 0.0600873519
C   C279      1.0  0.76820  0.10420  0.30380  1.0000 0.0600873519
C   C280      1.0  0.10420  0.76820  0.19620  1.0000 0.0600873519
C   C281      1.0  0.24404  0.87196  0.76300  1.0000 -0.0699296296
C   C282      1.0  0.87196  0.24404  0.73700  1.0000 -0.0699296296
C   C283      1.0  0.75596  0.12804  0.23700  1.0000 -0.0699296296
C   C284      1.0  0.12804  0.75596  0.26300  1.0000 -0.0699296296
C   C285      1.0  0.23687  0.81873  0.76090  1.0000 0.5996788556
C   C286      1.0  0.81873  0.23687  0.73910  1.0000 0.5996788556
C   C287      1.0  0.76313  0.18127  0.23910  1.0000 0.5996788556
C   C288      1.0  0.18127  0.76313  0.26090  1.0000 0.5996788556
N   N1        1.0  0.22390  0.04450  0.02000  1.0000 -0.2900051862
N   N2        1.0  0.04450  0.22390  0.48000  1.0000 -0.2900051862
N   N3        1.0  0.77610  0.95550  0.98000  1.0000 -0.2900051862
N   N4        1.0  0.95550  0.77610  0.52000  1.0000 -0.2900051862
N   N5        1.0  0.46040  0.22640  0.30990  1.0000 -0.2900051862
N   N6        1.0  0.22640  0.46040  0.19010  1.0000 -0.2900051862
N   N7        1.0  0.53960  0.77360  0.69010  1.0000 -0.2900051862
N   N8        1.0  0.77360  0.53960  0.80990  1.0000 -0.2900051862
N   N9        1.0  0.01535  0.20785  0.01750  1.0000 -0.2900051862
N   N10       1.0  0.20785  0.01535  0.48250  1.0000 -0.2900051862
N   N11       1.0  0.98465  0.79215  0.98250  1.0000 -0.2900051862
N   N12       1.0  0.79215  0.98465  0.51750  1.0000 -0.2900051862
N   N13       1.0  0.25900  0.45420  0.98670  1.0000 -0.2785729702
N   N14       1.0  0.45420  0.25900  0.51330  1.0000 -0.2785729702
N   N15       1.0  0.74100  0.54580  0.01330  1.0000 -0.2785729702
N   N16       1.0  0.54580  0.74100  0.48670  1.0000 -0.2785729702
N   N17       1.0  0.48908  0.30692  0.97480  1.0000 -0.2900051862
N   N18       1.0  0.30692  0.48908  0.52520  1.0000 -0.2900051862
N   N19       1.0  0.51092  0.69308  0.02520  1.0000 -0.2900051862
N   N20       1.0  0.69308  0.51092  0.47480  1.0000 -0.2900051862
N   N21       1.0  0.27800  0.97220  0.14070  1.0000 -0.273385722
N   N22       1.0  0.97220  0.27800  0.35930  1.0000 -0.273385722
N   N23       1.0  0.72200  0.02780  0.85930  1.0000 -0.273385722
N   N24       1.0  0.02780  0.72200  0.64070  1.0000 -0.273385722
N   N25       1.0  0.52920  0.22300  0.15820  1.0000 -0.2900051862
N   N26       1.0  0.22300  0.52920  0.34180  1.0000 -0.2900051862
N   N27       1.0  0.47080  0.77700  0.84180  1.0000 -0.2900051862
N   N28       1.0  0.77700  0.47080  0.65820  1.0000 -0.2900051862
N   N29       1.0  0.98697  0.27603  0.14430  1.0000 -0.2900051862
N   N30       1.0  0.27603  0.98697  0.35570  1.0000 -0.2900051862
N   N31       1.0  0.01303  0.72397  0.85570  1.0000 -0.2900051862
N   N32       1.0  0.72397  0.01303  0.64430  1.0000 -0.2900051862
N   N33       1.0  0.22610  0.53930  0.86030  1.0000 -0.273385722
N   N34       1.0  0.53930  0.22610  0.63970  1.0000 -0.273385722
N   N35       1.0  0.77390  0.46070  0.13970  1.0000 -0.273385722
N   N36       1.0  0.46070  0.77390  0.36030  1.0000 -0.273385722
N   N37       1.0  0.51729  0.24011  0.84560  1.0000 -0.2900051862
N   N38       1.0  0.24011  0.51729  0.65440  1.0000 -0.2900051862
N   N39       1.0  0.48271  0.75989  0.15440  1.0000 -0.2900051862
N   N40       1.0  0.75989  0.48271  0.34560  1.0000 -0.2900051862
N   N41       1.0  0.27409  0.04351  0.82840  1.0000 -0.2785729702
N   N42       1.0  0.04351  0.27409  0.67160  1.0000 -0.2785729702
N   N43       1.0  0.72591  0.95649  0.17160  1.0000 -0.2785729702
N   N44       1.0  0.95649  0.72591  0.32840  1.0000 -0.2785729702
N   N45       1.0  0.23640  0.94260  0.69480  1.0000 -0.2785729702
N   N46       1.0  0.94260  0.23640  0.80520  1.0000 -0.2785729702
N   N47       1.0  0.76360  0.05740  0.30520  1.0000 -0.2785729702
N   N48       1.0  0.05740  0.76360  0.19480  1.0000 -0.2785729702
O   O1        1.0  0.27628  0.20092  0.14000  1.0000 -0.6101990701
O   O2        1.0  0.20092  0.27628  0.36000  1.0000 -0.6101990701
O   O3        1.0  0.72372  0.79908  0.86000  1.0000 -0.6101990701
O   O4        1.0  0.79908  0.72372  0.64000  1.0000 -0.6101990701
O   O5        1.0  0.34806  0.29274  0.22330  1.0000 -0.6680353021
O   O6        1.0  0.29274  0.34806  0.27670  1.0000 -0.6680353021
O   O7        1.0  0.65194  0.70726  0.77670  1.0000 -0.6680353021
O   O8        1.0  0.70726  0.65194  0.72330  1.0000 -0.6680353021
O   O9        1.0  0.18480  0.23000  0.08720  1.0000 -0.6101990701
O   O10       1.0  0.23000  0.18480  0.41280  1.0000 -0.6101990701
O   O11       1.0  0.81520  0.77000  0.91280  1.0000 -0.6101990701
O   O12       1.0  0.77000  0.81520  0.58720  1.0000 -0.6101990701
O   O13       1.0  0.25683  0.31457  0.98580  1.0000 -0.6914311236
O   O14       1.0  0.31457  0.25683  0.51420  1.0000 -0.6914311236
O   O15       1.0  0.74317  0.68543  0.01420  1.0000 -0.6914311236
O   O16       1.0  0.68543  0.74317  0.48580  1.0000 -0.6914311236
O   O17       1.0  0.35269  0.29871  0.03720  1.0000 -0.6523510551
O   O18       1.0  0.29871  0.35269  0.46280  1.0000 -0.6523510551
O   O19       1.0  0.64731  0.70129  0.96280  1.0000 -0.6523510551
O   O20       1.0  0.70129  0.64731  0.53720  1.0000 -0.6523510551
O   O21       1.0  0.23230  0.23230  0.25000  1.0000 -0.8199456518
O   O22       1.0  0.76770  0.76770  0.75000  1.0000 -0.8199456518
O   O23       1.0  0.35163  0.38157  0.11380  1.0000 -0.7510063535
O   O24       1.0  0.38157  0.35163  0.38620  1.0000 -0.7510063535
O   O25       1.0  0.64837  0.61843  0.88620  1.0000 -0.7510063535
O   O26       1.0  0.61843  0.64837  0.61380  1.0000 -0.7510063535
O   O27       1.0  0.24339  0.33541  0.16120  1.0000 -0.6101990701
O   O28       1.0  0.33541  0.24339  0.33880  1.0000 -0.6101990701
O   O29       1.0  0.75661  0.66459  0.83880  1.0000 -0.6101990701
O   O30       1.0  0.66459  0.75661  0.66120  1.0000 -0.6101990701
O   O31       1.0  0.24402  0.19418  0.01330  1.0000 -0.6914311236
O   O32       1.0  0.19418  0.24402  0.48670  1.0000 -0.6914311236
O   O33       1.0  0.75598  0.80582  0.98670  1.0000 -0.6914311236
O   O34       1.0  0.80582  0.75598  0.51330  1.0000 -0.6914311236
O   O35       1.0  0.15095  0.21105  0.96120  1.0000 -0.6637979483
O   O36       1.0  0.21105  0.15095  0.53880  1.0000 -0.6637979483
O   O37       1.0  0.84905  0.78895  0.03880  1.0000 -0.6637979483
O   O38       1.0  0.78895  0.84905  0.46120  1.0000 -0.6637979483
O   O39       1.0  0.22713  0.30807  0.85890  1.0000 -0.5787051504
O   O40       1.0  0.30807  0.22713  0.64110  1.0000 -0.5787051504
O   O41       1.0  0.77287  0.69193  0.14110  1.0000 -0.5787051504
O   O42       1.0  0.69193  0.77287  0.35890  1.0000 -0.5787051504
O   O43       1.0  0.31866  0.28114  0.91200  1.0000 -0.6042962259
O   O44       1.0  0.28114  0.31866  0.58800  1.0000 -0.6042962259
O   O45       1.0  0.68134  0.71886  0.08800  1.0000 -0.6042962259
O   O46       1.0  0.71886  0.68134  0.41200  1.0000 -0.6042962259
O   O47       1.0  0.26221  0.17259  0.84470  1.0000 -0.6101990701
O   O48       1.0  0.17259  0.26221  0.65530  1.0000 -0.6101990701
O   O49       1.0  0.73779  0.82741  0.15530  1.0000 -0.6101990701
O   O50       1.0  0.82741  0.73779  0.34470  1.0000 -0.6101990701
O   O51       1.0  0.27560  0.27560  0.75000  1.0000 -0.802774865
O   O52       1.0  0.72440  0.72440  0.25000  1.0000 -0.802774865
O   O53       1.0  0.15883  0.21437  0.77240  1.0000 -0.6523510551
O   O54       1.0  0.21437  0.15883  0.72760  1.0000 -0.6523510551
O   O55       1.0  0.84117  0.78563  0.22760  1.0000 -0.6523510551
O   O56       1.0  0.78563  0.84117  0.27240  1.0000 -0.6523510551
O   O57       1.0  0.29947  0.85013  0.11680  1.0000 -0.6248272842
O   O58       1.0  0.85013  0.29947  0.38320  1.0000 -0.6248272842
O   O59       1.0  0.70053  0.14987  0.88320  1.0000 -0.6248272842
O   O60       1.0  0.14987  0.70053  0.61680  1.0000 -0.6248272842
O   O61       1.0  0.24500  0.82840  0.00610  1.0000 -0.6101990701
O   O62       1.0  0.82840  0.24500  0.49390  1.0000 -0.6101990701
O   O63       1.0  0.75500  0.17160  0.99390  1.0000 -0.6101990701
O   O64       1.0  0.17160  0.75500  0.50610  1.0000 -0.6101990701
O   O65       1.0  0.69940  0.25200  0.24760  1.0000 -0.571381349
O   O66       1.0  0.25200  0.69940  0.25240  1.0000 -0.571381349
O   O67       1.0  0.30060  0.74800  0.75240  1.0000 -0.571381349
O   O68       1.0  0.74800  0.30060  0.74760  1.0000 -0.571381349
O   O69       1.0  0.66615  0.22965  0.12210  1.0000 -0.6376985794
O   O70       1.0  0.22965  0.66615  0.37790  1.0000 -0.6376985794
O   O71       1.0  0.33385  0.77035  0.87790  1.0000 -0.6376985794
O   O72       1.0  0.77035  0.33385  0.62210  1.0000 -0.6376985794
O   O73       1.0  0.86226  0.29174  0.18880  1.0000 -0.6376985794
O   O74       1.0  0.29174  0.86226  0.31120  1.0000 -0.6376985794
O   O75       1.0  0.13774  0.70826  0.81120  1.0000 -0.6376985794
O   O76       1.0  0.70826  0.13774  0.68880  1.0000 -0.6376985794
O   O77       1.0  0.82679  0.27081  0.06400  1.0000 -0.5889214462
O   O78       1.0  0.27081  0.82679  0.43600  1.0000 -0.5889214462
O   O79       1.0  0.17321  0.72919  0.93600  1.0000 -0.5889214462
O   O80       1.0  0.72919  0.17321  0.56400  1.0000 -0.5889214462
O   O81       1.0  0.22554  0.67746  0.87080  1.0000 -0.6637979483
O   O82       1.0  0.67746  0.22554  0.62920  1.0000 -0.6637979483
O   O83       1.0  0.77446  0.32254  0.12920  1.0000 -0.6637979483
O   O84       1.0  0.32254  0.77446  0.37080  1.0000 -0.6637979483
O   O85       1.0  0.25488  0.68112  0.99640  1.0000 -0.5385711378
O   O86       1.0  0.68112  0.25488  0.50360  1.0000 -0.5385711378
O   O87       1.0  0.74512  0.31888  0.00360  1.0000 -0.5385711378
O   O88       1.0  0.31888  0.74512  0.49640  1.0000 -0.5385711378
O   O89       1.0  0.64462  0.22298  0.81320  1.0000 -0.6101990701
O   O90       1.0  0.22298  0.64462  0.68680  1.0000 -0.6101990701
O   O91       1.0  0.35538  0.77702  0.18680  1.0000 -0.6101990701
O   O92       1.0  0.77702  0.35538  0.31320  1.0000 -0.6101990701
O   O93       1.0  0.65936  0.22044  0.94220  1.0000 -0.5787051504
O   O94       1.0  0.22044  0.65936  0.55780  1.0000 -0.5787051504
O   O95       1.0  0.34064  0.77956  0.05780  1.0000 -0.5787051504
O   O96       1.0  0.77956  0.34064  0.44220  1.0000 -0.5787051504
O   O97       1.0  0.23051  0.73409  0.09970  1.0000 -0.238050524
O   O98       1.0  0.73409  0.23051  0.40030  1.0000 -0.238050524
O   O99       1.0  0.76949  0.26591  0.90030  1.0000 -0.238050524
O   O100      1.0  0.26591  0.76949  0.59970  1.0000 -0.238050524
O   O101      1.0  0.24906  0.79774  0.82210  1.0000 -0.6826725787
O   O102      1.0  0.79774  0.24906  0.67790  1.0000 -0.6826725787
O   O103      1.0  0.75094  0.20226  0.17790  1.0000 -0.6826725787
O   O104      1.0  0.20226  0.75094  0.32210  1.0000 -0.6826725787
O   O105      1.0  0.21673  0.79567  0.69610  1.0000 -0.5509766525
O   O106      1.0  0.79567  0.21673  0.80390  1.0000 -0.5509766525
O   O107      1.0  0.78327  0.20433  0.30390  1.0000 -0.5509766525
O   O108      1.0  0.20433  0.78327  0.19610  1.0000 -0.5509766525
