# DDEC6 charges by PACMAN v1.1 (https://github.com/mtap-research/PACMAN-charge/)
data_2014[Gd][fsc]3[ASR]1
_chemical_formula_sum              "Gd2 H6 C12 O14"
_cell_length_a       6.0867
_cell_length_b       9.483
_cell_length_c       10.096
_cell_angle_alpha    88.612
_cell_angle_beta     105.615
_cell_angle_gamma    102.868

_symmetry_space_group_name_H-M    "P 1"
_symmetry_Int_Tables_number       1

loop_
  _symmetry_equiv_pos_as_xyz
  'x, y, z'

loop_
  _atom_site_type_symbol
  _atom_site_label
  _atom_site_symmetry_multiplicity
  _atom_site_fract_x
  _atom_site_fract_y
  _atom_site_fract_z
  _atom_site_occupancy
  _atom_site_charge
Gd  Gd1       1.0  0.65480  0.94175  0.70299  1.0000 1.8830635602
Gd  Gd2       1.0  0.34520  0.05825  0.29701  1.0000 1.8830635602
H   H1        1.0  0.26700  0.11630  0.70460  1.0000 0.3977140839
H   H2        1.0  0.73300  0.88370  0.29540  1.0000 0.3977140839
H   H3        1.0  0.37840  0.03140  0.64860  1.0000 0.3130327518
H   H4        1.0  0.62160  0.96860  0.35140  1.0000 0.3130327518
H   H5        1.0  0.72850  0.44150  0.62620  1.0000 0.1482999975
H   H6        1.0  0.27150  0.55850  0.37380  1.0000 0.1482999975
C   C1        1.0  0.83800  0.46590  0.57570  1.0000 -0.1084783545
C   C2        1.0  0.16200  0.53410  0.42430  1.0000 -0.1084783545
C   C3        1.0  0.92700  0.35880  0.53390  1.0000 -0.0142607825
C   C4        1.0  0.07300  0.64120  0.46610  1.0000 -0.0142607825
C   C5        1.0  0.83900  0.20640  0.57750  1.0000 0.6393245513
C   C6        1.0  0.16100  0.79360  0.42250  1.0000 0.6393245513
C   C7        1.0  0.09300  0.39140  0.45530  1.0000 -0.0353681614
C   C8        1.0  0.90700  0.60860  0.54470  1.0000 -0.033766702
C   C9        1.0  0.19200  0.27830  0.40780  1.0000 0.5766193921
C   C10       1.0  0.80800  0.72170  0.59220  1.0000 0.5766193921
C   C11       1.0  0.92700  0.04740  0.01660  1.0000 0.5005637461
C   C12       1.0  0.07300  0.95260  0.98340  1.0000 0.5005637461
O   O1        1.0  0.99540  0.10590  0.13920  1.0000 -0.5894996172
O   O2        1.0  0.00460  0.89410  0.86080  1.0000 -0.5894996172
O   O3        1.0  0.93710  0.16990  0.69330  1.0000 -0.5562291091
O   O4        1.0  0.06290  0.83010  0.30670  1.0000 -0.5562291091
O   O5        1.0  0.66350  0.12370  0.49790  1.0000 -0.7004480307
O   O6        1.0  0.33650  0.87630  0.50210  1.0000 -0.7004480307
O   O7        1.0  0.13480  0.14760  0.44210  1.0000 -0.5844903832
O   O8        1.0  0.86520  0.85240  0.55790  1.0000 -0.5844903832
O   O9        1.0  0.32660  0.31150  0.33110  1.0000 -0.5994275158
O   O10       1.0  0.67340  0.68850  0.66890  1.0000 -0.5994275158
O   O11       1.0  0.74720  0.06210  0.92620  1.0000 -0.5451769178
O   O12       1.0  0.25280  0.93790  0.07380  1.0000 -0.5451769178
O   O13       1.0  0.39820  0.09600  0.71020  1.0000 -0.7260399406
O   O14       1.0  0.60180  0.90400  0.28980  1.0000 -0.7260399406
