# DDEC6 charges by PACMAN v1.1 (https://github.com/mtap-research/PACMAN-charge/)
data_2014[FeMn][nan]3[ASR]1
_chemical_formula_sum              "Mn4 Fe6 H96 C192 N16 O32"
_cell_length_a       14.908
_cell_length_b       15.345
_cell_length_c       27.753
_cell_angle_alpha    90
_cell_angle_beta     90.424
_cell_angle_gamma    90

_symmetry_space_group_name_H-M    "P 1"
_symmetry_Int_Tables_number       1

loop_
  _symmetry_equiv_pos_as_xyz
  'x, y, z'

loop_
  _atom_site_type_symbol
  _atom_site_label
  _atom_site_symmetry_multiplicity
  _atom_site_fract_x
  _atom_site_fract_y
  _atom_site_fract_z
  _atom_site_occupancy
  _atom_site_charge
Mn  Mn1       1.0  0.72386  0.97811  0.51170  1.0000 0.7229324481
Mn  Mn2       1.0  0.27614  0.97811  0.98830  1.0000 0.7229324481
Mn  Mn3       1.0  0.27614  0.02189  0.48830  1.0000 0.7229324481
Mn  Mn4       1.0  0.72386  0.02189  0.01170  1.0000 0.7229324481
Fe  Fe1       1.0  0.50000  0.44088  0.25000  1.0000 1.0546694001
Fe  Fe2       1.0  0.50000  0.55912  0.75000  1.0000 1.0546694001
Fe  Fe3       1.0  0.26858  0.37803  0.24476  1.0000 0.9962750873
Fe  Fe4       1.0  0.73142  0.37803  0.25524  1.0000 0.9962750873
Fe  Fe5       1.0  0.73142  0.62197  0.75524  1.0000 0.9962750873
Fe  Fe6       1.0  0.26858  0.62197  0.74476  1.0000 0.9962750873
H   H1        1.0  0.90450  0.97740  0.66780  1.0000 0.1392648688
H   H2        1.0  0.09550  0.97740  0.83220  1.0000 0.1392648688
H   H3        1.0  0.09550  0.02260  0.33220  1.0000 0.1392648688
H   H4        1.0  0.90450  0.02260  0.16780  1.0000 0.1392648688
H   H5        1.0  0.82370  0.11450  0.67250  1.0000 0.1308958371
H   H6        1.0  0.17630  0.11450  0.82750  1.0000 0.1308958371
H   H7        1.0  0.17630  0.88550  0.32750  1.0000 0.1308958371
H   H8        1.0  0.82370  0.88550  0.17250  1.0000 0.1308958371
H   H9        1.0  0.60790  0.28210  0.55260  1.0000 0.1308958371
H   H10       1.0  0.39210  0.28210  0.94740  1.0000 0.1308958371
H   H11       1.0  0.39210  0.71790  0.44740  1.0000 0.1308958371
H   H12       1.0  0.60790  0.71790  0.05260  1.0000 0.1308958371
H   H13       1.0  0.54670  0.25160  0.47160  1.0000 0.1308958371
H   H14       1.0  0.45330  0.25160  0.02840  1.0000 0.1308958371
H   H15       1.0  0.45330  0.74840  0.52840  1.0000 0.1308958371
H   H16       1.0  0.54670  0.74840  0.97160  1.0000 0.1308958371
H   H17       1.0  0.52610  0.97190  0.36180  1.0000 0.1308958371
H   H18       1.0  0.47390  0.97190  0.13820  1.0000 0.1308958371
H   H19       1.0  0.47390  0.02810  0.63820  1.0000 0.1308958371
H   H20       1.0  0.52610  0.02810  0.86180  1.0000 0.1308958371
H   H21       1.0  0.57330  0.81860  0.37060  1.0000 0.1308958371
H   H22       1.0  0.42670  0.81860  0.12940  1.0000 0.1308958371
H   H23       1.0  0.42670  0.18140  0.62940  1.0000 0.1308958371
H   H24       1.0  0.57330  0.18140  0.87060  1.0000 0.1308958371
H   H25       1.0  0.79290  0.65360  0.48990  1.0000 0.1308958371
H   H26       1.0  0.20710  0.65360  0.01010  1.0000 0.1308958371
H   H27       1.0  0.20710  0.34640  0.51010  1.0000 0.1308958371
H   H28       1.0  0.79290  0.34640  0.98990  1.0000 0.1308958371
H   H29       1.0  0.88850  0.69880  0.55750  1.0000 0.1392648688
H   H30       1.0  0.11150  0.69880  0.94250  1.0000 0.1392648688
H   H31       1.0  0.11150  0.30120  0.44250  1.0000 0.1392648688
H   H32       1.0  0.88850  0.30120  0.05750  1.0000 0.1392648688
H   H33       1.0  0.80910  0.40370  0.65410  1.0000 0.1308958371
H   H34       1.0  0.19090  0.40370  0.84590  1.0000 0.1308958371
H   H35       1.0  0.19090  0.59630  0.34590  1.0000 0.1308958371
H   H36       1.0  0.80910  0.59630  0.15410  1.0000 0.1308958371
H   H37       1.0  0.82000  0.28060  0.60670  1.0000 0.1216549056
H   H38       1.0  0.18000  0.28060  0.89330  1.0000 0.1216549056
H   H39       1.0  0.18000  0.71940  0.39330  1.0000 0.1216549056
H   H40       1.0  0.82000  0.71940  0.10670  1.0000 0.1216549056
H   H41       1.0  0.58940  0.19260  0.65780  1.0000 0.1216549056
H   H42       1.0  0.41060  0.19260  0.84220  1.0000 0.1216549056
H   H43       1.0  0.41060  0.80740  0.34220  1.0000 0.1216549056
H   H44       1.0  0.58940  0.80740  0.15780  1.0000 0.1216549056
H   H45       1.0  0.57270  0.31640  0.70320  1.0000 0.1308958371
H   H46       1.0  0.42730  0.31640  0.79680  1.0000 0.1308958371
H   H47       1.0  0.42730  0.68360  0.29680  1.0000 0.1308958371
H   H48       1.0  0.57270  0.68360  0.20320  1.0000 0.1308958371
H   H49       1.0  0.54690  0.27130  0.31240  1.0000 0.1392648688
H   H50       1.0  0.45310  0.27130  0.18760  1.0000 0.1392648688
H   H51       1.0  0.45310  0.72870  0.68760  1.0000 0.1392648688
H   H52       1.0  0.54690  0.72870  0.81240  1.0000 0.1392648688
H   H53       1.0  0.63020  0.18970  0.36660  1.0000 0.1308958371
H   H54       1.0  0.36980  0.18970  0.13340  1.0000 0.1308958371
H   H55       1.0  0.36980  0.81030  0.63340  1.0000 0.1308958371
H   H56       1.0  0.63020  0.81030  0.86660  1.0000 0.1308958371
H   H57       1.0  0.40320  0.09370  0.42130  1.0000 0.1216549056
H   H58       1.0  0.59680  0.09370  0.07870  1.0000 0.1216549056
H   H59       1.0  0.59680  0.90630  0.57870  1.0000 0.1216549056
H   H60       1.0  0.40320  0.90630  0.92130  1.0000 0.1216549056
H   H61       1.0  0.31910  0.17770  0.36890  1.0000 0.1216549056
H   H62       1.0  0.68090  0.17770  0.13110  1.0000 0.1216549056
H   H63       1.0  0.68090  0.82230  0.63110  1.0000 0.1216549056
H   H64       1.0  0.31910  0.82230  0.86890  1.0000 0.1216549056
H   H65       1.0  0.51890  0.56060  0.39080  1.0000 0.1308958371
H   H66       1.0  0.48110  0.56060  0.10920  1.0000 0.1308958371
H   H67       1.0  0.48110  0.43940  0.60920  1.0000 0.1308958371
H   H68       1.0  0.51890  0.43940  0.89080  1.0000 0.1308958371
H   H69       1.0  0.54310  0.68450  0.43940  1.0000 0.1216549056
H   H70       1.0  0.45690  0.68450  0.06060  1.0000 0.1216549056
H   H71       1.0  0.45690  0.31550  0.56060  1.0000 0.1216549056
H   H72       1.0  0.54310  0.31550  0.93940  1.0000 0.1216549056
H   H73       1.0  0.79630  0.69690  0.39390  1.0000 0.1216549056
H   H74       1.0  0.20370  0.69690  0.10610  1.0000 0.1216549056
H   H75       1.0  0.20370  0.30310  0.60610  1.0000 0.1216549056
H   H76       1.0  0.79630  0.30310  0.89390  1.0000 0.1216549056
H   H77       1.0  0.77420  0.57260  0.34880  1.0000 0.1392648688
H   H78       1.0  0.22580  0.57260  0.15120  1.0000 0.1392648688
H   H79       1.0  0.22580  0.42740  0.65120  1.0000 0.1392648688
H   H80       1.0  0.77420  0.42740  0.84880  1.0000 0.1392648688
H   H81       1.0  0.97150  0.68880  0.70450  1.0000 0.1308958371
H   H82       1.0  0.02850  0.68880  0.79550  1.0000 0.1308958371
H   H83       1.0  0.02850  0.31120  0.29550  1.0000 0.1308958371
H   H84       1.0  0.97150  0.31120  0.20450  1.0000 0.1308958371
H   H85       1.0  0.85710  0.75120  0.65970  1.0000 0.1392648688
H   H86       1.0  0.14290  0.75120  0.84030  1.0000 0.1392648688
H   H87       1.0  0.14290  0.24880  0.34030  1.0000 0.1392648688
H   H88       1.0  0.85710  0.24880  0.15970  1.0000 0.1392648688
H   H89       1.0  0.03740  0.89540  0.58850  1.0000 0.1216549056
H   H90       1.0  0.96260  0.89540  0.91150  1.0000 0.1216549056
H   H91       1.0  0.96260  0.10460  0.41150  1.0000 0.1216549056
H   H92       1.0  0.03740  0.10460  0.08850  1.0000 0.1216549056
H   H93       1.0  0.15410  0.83240  0.63300  1.0000 0.1216549056
H   H94       1.0  0.84590  0.83240  0.86700  1.0000 0.1216549056
H   H95       1.0  0.84590  0.16760  0.36700  1.0000 0.1216549056
H   H96       1.0  0.15410  0.16760  0.13300  1.0000 0.1216549056
C   C1        1.0  0.83640  0.95230  0.60196  1.0000 0.1797711639
C   C2        1.0  0.16360  0.95230  0.89804  1.0000 0.1797711639
C   C3        1.0  0.16360  0.04770  0.39804  1.0000 0.1797711639
C   C4        1.0  0.83640  0.04770  0.10196  1.0000 0.1797711639
C   C5        1.0  0.86220  0.99790  0.64470  1.0000 -0.1786241853
C   C6        1.0  0.13780  0.99790  0.85530  1.0000 -0.1786241853
C   C7        1.0  0.13780  0.00210  0.35530  1.0000 -0.1786241853
C   C8        1.0  0.86220  0.00210  0.14470  1.0000 -0.1786241853
C   C9        1.0  0.81900  0.07250  0.64745  1.0000 -0.1719386372
C   C10       1.0  0.18100  0.07250  0.85255  1.0000 -0.1719386372
C   C11       1.0  0.18100  0.92750  0.35255  1.0000 -0.1719386372
C   C12       1.0  0.81900  0.92750  0.14745  1.0000 -0.1719386372
C   C13       1.0  0.76380  0.07760  0.60565  1.0000 0.1699883523
C   C14       1.0  0.23620  0.07760  0.89435  1.0000 0.1699883523
C   C15       1.0  0.23620  0.92240  0.39435  1.0000 0.1699883523
C   C16       1.0  0.76380  0.92240  0.10565  1.0000 0.1699883523
C   C17       1.0  0.71150  0.14800  0.59284  1.0000 -0.0689257258
C   C18       1.0  0.28850  0.14800  0.90716  1.0000 -0.0689257258
C   C19       1.0  0.28850  0.85200  0.40716  1.0000 -0.0689257258
C   C20       1.0  0.71150  0.85200  0.09284  1.0000 -0.0689257258
C   C21       1.0  0.66250  0.15370  0.55094  1.0000 0.1699883523
C   C22       1.0  0.33750  0.15370  0.94906  1.0000 0.1699883523
C   C23       1.0  0.33750  0.84630  0.44906  1.0000 0.1699883523
C   C24       1.0  0.66250  0.84630  0.05094  1.0000 0.1699883523
C   C25       1.0  0.61460  0.22930  0.53510  1.0000 -0.1719386372
C   C26       1.0  0.38540  0.22930  0.96490  1.0000 -0.1719386372
C   C27       1.0  0.38540  0.77070  0.46490  1.0000 -0.1719386372
C   C28       1.0  0.61460  0.77070  0.03510  1.0000 -0.1719386372
C   C29       1.0  0.58050  0.21220  0.49089  1.0000 -0.1719386372
C   C30       1.0  0.41950  0.21220  0.00911  1.0000 -0.1719386372
C   C31       1.0  0.41950  0.78780  0.50911  1.0000 -0.1719386372
C   C32       1.0  0.58050  0.78780  0.99089  1.0000 -0.1719386372
C   C33       1.0  0.60350  0.12580  0.47807  1.0000 0.1797711639
C   C34       1.0  0.39650  0.12580  0.02193  1.0000 0.1797711639
C   C35       1.0  0.39650  0.87420  0.52193  1.0000 0.1797711639
C   C36       1.0  0.60350  0.87420  0.97807  1.0000 0.1797711639
C   C37       1.0  0.57760  0.08570  0.43786  1.0000 -0.0582599627
C   C38       1.0  0.42240  0.08570  0.06214  1.0000 -0.0582599627
C   C39       1.0  0.42240  0.91430  0.56214  1.0000 -0.0582599627
C   C40       1.0  0.57760  0.91430  0.93786  1.0000 -0.0582599627
C   C41       1.0  0.59410  0.99470  0.42828  1.0000 0.1797711639
C   C42       1.0  0.40590  0.99470  0.07172  1.0000 0.1797711639
C   C43       1.0  0.40590  0.00530  0.57172  1.0000 0.1797711639
C   C44       1.0  0.59410  0.00530  0.92828  1.0000 0.1797711639
C   C45       1.0  0.56070  0.94830  0.38749  1.0000 -0.1786241853
C   C46       1.0  0.43930  0.94830  0.11251  1.0000 -0.1786241853
C   C47       1.0  0.43930  0.05170  0.61251  1.0000 -0.1786241853
C   C48       1.0  0.56070  0.05170  0.88749  1.0000 -0.1786241853
C   C49       1.0  0.58710  0.86510  0.39202  1.0000 -0.1719386372
C   C50       1.0  0.41290  0.86510  0.10798  1.0000 -0.1719386372
C   C51       1.0  0.41290  0.13490  0.60798  1.0000 -0.1719386372
C   C52       1.0  0.58710  0.13490  0.89202  1.0000 -0.1719386372
C   C53       1.0  0.64100  0.85950  0.43596  1.0000 0.1797711639
C   C54       1.0  0.35900  0.85950  0.06404  1.0000 0.1797711639
C   C55       1.0  0.35900  0.14050  0.56404  1.0000 0.1797711639
C   C56       1.0  0.64100  0.14050  0.93596  1.0000 0.1797711639
C   C57       1.0  0.68470  0.78630  0.45103  1.0000 -0.0812750319
C   C58       1.0  0.31530  0.78630  0.04897  1.0000 -0.0812750319
C   C59       1.0  0.31530  0.21370  0.54897  1.0000 -0.0812750319
C   C60       1.0  0.68470  0.21370  0.95103  1.0000 -0.0812750319
C   C61       1.0  0.74320  0.78430  0.48970  1.0000 0.1797711639
C   C62       1.0  0.25680  0.78430  0.01030  1.0000 0.1797711639
C   C63       1.0  0.25680  0.21570  0.51030  1.0000 0.1797711639
C   C64       1.0  0.74320  0.21570  0.98970  1.0000 0.1797711639
C   C65       1.0  0.79490  0.71000  0.50408  1.0000 -0.1719386372
C   C66       1.0  0.20510  0.71000  0.99592  1.0000 -0.1719386372
C   C67       1.0  0.20510  0.29000  0.49592  1.0000 -0.1719386372
C   C68       1.0  0.79490  0.29000  0.00408  1.0000 -0.1719386372
C   C69       1.0  0.84630  0.73470  0.54100  1.0000 -0.1719386372
C   C70       1.0  0.15370  0.73470  0.95900  1.0000 -0.1719386372
C   C71       1.0  0.15370  0.26530  0.45900  1.0000 -0.1719386372
C   C72       1.0  0.84630  0.26530  0.04100  1.0000 -0.1719386372
C   C73       1.0  0.82780  0.82450  0.55197  1.0000 0.1797711639
C   C74       1.0  0.17220  0.82450  0.94803  1.0000 0.1797711639
C   C75       1.0  0.17220  0.17550  0.44803  1.0000 0.1797711639
C   C76       1.0  0.82780  0.17550  0.05197  1.0000 0.1797711639
C   C77       1.0  0.86350  0.86950  0.59003  1.0000 -0.0812750319
C   C78       1.0  0.13650  0.86950  0.90997  1.0000 -0.0812750319
C   C79       1.0  0.13650  0.13050  0.40997  1.0000 -0.0812750319
C   C80       1.0  0.86350  0.13050  0.09003  1.0000 -0.0812750319
C   C81       1.0  0.68810  0.37440  0.68303  1.0000 -0.0145396172
C   C82       1.0  0.31190  0.37440  0.81697  1.0000 -0.0145396172
C   C83       1.0  0.31190  0.62560  0.31697  1.0000 -0.0145396172
C   C84       1.0  0.68810  0.62560  0.18303  1.0000 -0.0145396172
C   C85       1.0  0.76250  0.36150  0.65440  1.0000 -0.0960674012
C   C86       1.0  0.23750  0.36150  0.84560  1.0000 -0.0960674012
C   C87       1.0  0.23750  0.63850  0.34560  1.0000 -0.0960674012
C   C88       1.0  0.76250  0.63850  0.15440  1.0000 -0.0960674012
C   C89       1.0  0.76900  0.28790  0.62670  1.0000 -0.1414284705
C   C90       1.0  0.23100  0.28790  0.87330  1.0000 -0.1414284705
C   C91       1.0  0.23100  0.71210  0.37330  1.0000 -0.1414284705
C   C92       1.0  0.76900  0.71210  0.12670  1.0000 -0.1414284705
C   C93       1.0  0.70460  0.22510  0.62684  1.0000 0.0805918215
C   C94       1.0  0.29540  0.22510  0.87316  1.0000 0.0805918215
C   C95       1.0  0.29540  0.77490  0.37316  1.0000 0.0805918215
C   C96       1.0  0.70460  0.77490  0.12684  1.0000 0.0805918215
C   C97       1.0  0.63390  0.23680  0.65614  1.0000 -0.1414284705
C   C98       1.0  0.36610  0.23680  0.84386  1.0000 -0.1414284705
C   C99       1.0  0.36610  0.76320  0.34386  1.0000 -0.1414284705
C   C100      1.0  0.63390  0.76320  0.15614  1.0000 -0.1414284705
C   C101      1.0  0.62420  0.31000  0.68355  1.0000 -0.0895033043
C   C102      1.0  0.37580  0.31000  0.81645  1.0000 -0.0895033043
C   C103      1.0  0.37580  0.69000  0.31645  1.0000 -0.0895033043
C   C104      1.0  0.62420  0.69000  0.18355  1.0000 -0.0895033043
C   C105      1.0  0.67530  0.45750  0.71105  1.0000 0.6026989719
C   C106      1.0  0.32470  0.45750  0.78895  1.0000 0.6026989719
C   C107      1.0  0.32470  0.54250  0.28895  1.0000 0.6026989719
C   C108      1.0  0.67530  0.54250  0.21105  1.0000 0.6026989719
C   C109      1.0  0.42530  0.23340  0.33597  1.0000 -0.0145396172
C   C110      1.0  0.57470  0.23340  0.16403  1.0000 -0.0145396172
C   C111      1.0  0.57470  0.76660  0.66403  1.0000 -0.0145396172
C   C112      1.0  0.42530  0.76660  0.83597  1.0000 -0.0145396172
C   C113      1.0  0.51710  0.23590  0.33529  1.0000 -0.0812750319
C   C114      1.0  0.48290  0.23590  0.16471  1.0000 -0.0812750319
C   C115      1.0  0.48290  0.76410  0.66471  1.0000 -0.0812750319
C   C116      1.0  0.51710  0.76410  0.83529  1.0000 -0.0812750319
C   C117      1.0  0.56650  0.18730  0.36761  1.0000 -0.1274184944
C   C118      1.0  0.43350  0.18730  0.13239  1.0000 -0.1274184944
C   C119      1.0  0.43350  0.81270  0.63239  1.0000 -0.1274184944
C   C120      1.0  0.56650  0.81270  0.86761  1.0000 -0.1274184944
C   C121      1.0  0.52590  0.13560  0.40107  1.0000 0.0805918215
C   C122      1.0  0.47410  0.13560  0.09893  1.0000 0.0805918215
C   C123      1.0  0.47410  0.86440  0.59893  1.0000 0.0805918215
C   C124      1.0  0.52590  0.86440  0.90107  1.0000 0.0805918215
C   C125      1.0  0.43300  0.13170  0.39970  1.0000 -0.1484069848
C   C126      1.0  0.56700  0.13170  0.10030  1.0000 -0.1484069848
C   C127      1.0  0.56700  0.86830  0.60030  1.0000 -0.1484069848
C   C128      1.0  0.43300  0.86830  0.89970  1.0000 -0.1484069848
C   C129      1.0  0.38270  0.18050  0.36831  1.0000 -0.0895033043
C   C130      1.0  0.61730  0.18050  0.13169  1.0000 -0.0895033043
C   C131      1.0  0.61730  0.81950  0.63169  1.0000 -0.0895033043
C   C132      1.0  0.38270  0.81950  0.86831  1.0000 -0.0895033043
C   C133      1.0  0.36990  0.28840  0.30256  1.0000 0.5874828896
C   C134      1.0  0.63010  0.28840  0.19744  1.0000 0.5874828896
C   C135      1.0  0.63010  0.71160  0.69744  1.0000 0.5874828896
C   C136      1.0  0.36990  0.71160  0.80256  1.0000 0.5874828896
C   C137      1.0  0.64420  0.55540  0.36383  1.0000 -0.0295217769
C   C138      1.0  0.35580  0.55540  0.13617  1.0000 -0.0295217769
C   C139      1.0  0.35580  0.44460  0.63617  1.0000 -0.0295217769
C   C140      1.0  0.64420  0.44460  0.86383  1.0000 -0.0295217769
C   C141      1.0  0.57610  0.58800  0.39120  1.0000 -0.0895033043
C   C142      1.0  0.42390  0.58800  0.10880  1.0000 -0.0895033043
C   C143      1.0  0.42390  0.41200  0.60880  1.0000 -0.0895033043
C   C144      1.0  0.57610  0.41200  0.89120  1.0000 -0.0895033043
C   C145      1.0  0.59090  0.66300  0.42028  1.0000 -0.1569002332
C   C146      1.0  0.40910  0.66300  0.07972  1.0000 -0.1569002332
C   C147      1.0  0.40910  0.33700  0.57972  1.0000 -0.1569002332
C   C148      1.0  0.59090  0.33700  0.92028  1.0000 -0.1569002332
C   C149      1.0  0.67090  0.70480  0.42154  1.0000 0.0921106091
C   C150      1.0  0.32910  0.70480  0.07846  1.0000 0.0921106091
C   C151      1.0  0.32910  0.29520  0.57846  1.0000 0.0921106091
C   C152      1.0  0.67090  0.29520  0.92154  1.0000 0.0921106091
C   C153      1.0  0.73910  0.66960  0.39390  1.0000 -0.1484069848
C   C154      1.0  0.26090  0.66960  0.10610  1.0000 -0.1484069848
C   C155      1.0  0.26090  0.33040  0.60610  1.0000 -0.1484069848
C   C156      1.0  0.73910  0.33040  0.89390  1.0000 -0.1484069848
C   C157      1.0  0.72540  0.59590  0.36645  1.0000 -0.0812750319
C   C158      1.0  0.27460  0.59590  0.13355  1.0000 -0.0812750319
C   C159      1.0  0.27460  0.40410  0.63355  1.0000 -0.0812750319
C   C160      1.0  0.72540  0.40410  0.86645  1.0000 -0.0812750319
C   C161      1.0  0.63070  0.47930  0.33175  1.0000 0.6056862077
C   C162      1.0  0.36930  0.47930  0.16825  1.0000 0.6056862077
C   C163      1.0  0.36930  0.52070  0.66825  1.0000 0.6056862077
C   C164      1.0  0.63070  0.52070  0.83175  1.0000 0.6056862077
C   C165      1.0  0.07500  0.75340  0.67369  1.0000 -0.018928249
C   C166      1.0  0.92500  0.75340  0.82631  1.0000 -0.018928249
C   C167      1.0  0.92500  0.24660  0.32631  1.0000 -0.018928249
C   C168      1.0  0.07500  0.24660  0.17369  1.0000 -0.018928249
C   C169      1.0  0.98590  0.73090  0.68062  1.0000 -0.0812750319
C   C170      1.0  0.01410  0.73090  0.81938  1.0000 -0.0812750319
C   C171      1.0  0.01410  0.26910  0.31938  1.0000 -0.0812750319
C   C172      1.0  0.98590  0.26910  0.18062  1.0000 -0.0812750319
C   C173      1.0  0.91750  0.76790  0.65387  1.0000 -0.1414284705
C   C174      1.0  0.08250  0.76790  0.84613  1.0000 -0.1414284705
C   C175      1.0  0.08250  0.23210  0.34613  1.0000 -0.1414284705
C   C176      1.0  0.91750  0.23210  0.15387  1.0000 -0.1414284705
C   C177      1.0  0.93560  0.82870  0.61896  1.0000 0.0805918215
C   C178      1.0  0.06440  0.82870  0.88104  1.0000 0.0805918215
C   C179      1.0  0.06440  0.17130  0.38104  1.0000 0.0805918215
C   C180      1.0  0.93560  0.17130  0.11896  1.0000 0.0805918215
C   C181      1.0  0.02390  0.85250  0.61207  1.0000 -0.1484069848
C   C182      1.0  0.97610  0.85250  0.88793  1.0000 -0.1484069848
C   C183      1.0  0.97610  0.14750  0.38793  1.0000 -0.1484069848
C   C184      1.0  0.02390  0.14750  0.11207  1.0000 -0.1484069848
C   C185      1.0  0.09390  0.81540  0.63872  1.0000 -0.0960674012
C   C186      1.0  0.90610  0.81540  0.86128  1.0000 -0.0960674012
C   C187      1.0  0.90610  0.18460  0.36128  1.0000 -0.0960674012
C   C188      1.0  0.09390  0.18460  0.13872  1.0000 -0.0960674012
C   C189      1.0  0.14920  0.71080  0.70064  1.0000 0.5450504026
C   C190      1.0  0.85080  0.71080  0.79936  1.0000 0.5450504026
C   C191      1.0  0.85080  0.28920  0.29936  1.0000 0.5444508394
C   C192      1.0  0.14920  0.28920  0.20064  1.0000 0.5450504026
N   N1        1.0  0.77340  0.00310  0.57820  1.0000 -0.3710411289
N   N2        1.0  0.22660  0.00310  0.92180  1.0000 -0.3710411289
N   N3        1.0  0.22660  0.99690  0.42180  1.0000 -0.3710411289
N   N4        1.0  0.77340  0.99690  0.07820  1.0000 -0.3710411289
N   N5        1.0  0.65490  0.09000  0.51478  1.0000 -0.3710411289
N   N6        1.0  0.34510  0.09000  0.98522  1.0000 -0.3710411289
N   N7        1.0  0.34510  0.91000  0.48522  1.0000 -0.3710411289
N   N8        1.0  0.65490  0.91000  0.01478  1.0000 -0.3710411289
N   N9        1.0  0.64440  0.93990  0.45759  1.0000 -0.3710411289
N   N10       1.0  0.35560  0.93990  0.04241  1.0000 -0.3710411289
N   N11       1.0  0.35560  0.06010  0.54241  1.0000 -0.3710411289
N   N12       1.0  0.64440  0.06010  0.95759  1.0000 -0.3710411289
N   N13       1.0  0.76350  0.85480  0.51917  1.0000 -0.3787308583
N   N14       1.0  0.23650  0.85480  0.98083  1.0000 -0.3787308583
N   N15       1.0  0.23650  0.14520  0.48083  1.0000 -0.3787308583
N   N16       1.0  0.76350  0.14520  0.01917  1.0000 -0.3787308583
O   O1        1.0  0.60050  0.46695  0.73103  1.0000 -0.5628406802
O   O2        1.0  0.39950  0.46695  0.76897  1.0000 -0.5628406802
O   O3        1.0  0.39950  0.53305  0.26897  1.0000 -0.5628406802
O   O4        1.0  0.60050  0.53305  0.23103  1.0000 -0.5628406802
O   O5        1.0  0.74150  0.51040  0.71367  1.0000 -0.5458209167
O   O6        1.0  0.25850  0.51040  0.78633  1.0000 -0.5458209167
O   O7        1.0  0.25850  0.48960  0.28633  1.0000 -0.5458209167
O   O8        1.0  0.74150  0.48960  0.21367  1.0000 -0.5458209167
O   O9        1.0  0.40616  0.33566  0.26996  1.0000 -0.595067958
O   O10       1.0  0.59384  0.33566  0.23004  1.0000 -0.595067958
O   O11       1.0  0.59384  0.66434  0.73004  1.0000 -0.595067958
O   O12       1.0  0.40616  0.66434  0.76996  1.0000 -0.595067958
O   O13       1.0  0.28640  0.28760  0.30565  1.0000 -0.5095315972
O   O14       1.0  0.71360  0.28760  0.19435  1.0000 -0.5095315972
O   O15       1.0  0.71360  0.71240  0.69435  1.0000 -0.5095315972
O   O16       1.0  0.28640  0.71240  0.80565  1.0000 -0.5095315972
O   O17       1.0  0.55250  0.45520  0.32273  1.0000 -0.5335815201
O   O18       1.0  0.44750  0.45520  0.17727  1.0000 -0.5335815201
O   O19       1.0  0.44750  0.54480  0.67727  1.0000 -0.5335815201
O   O20       1.0  0.55250  0.54480  0.82273  1.0000 -0.5335815201
O   O21       1.0  0.70120  0.44400  0.31604  1.0000 -0.538599948
O   O22       1.0  0.29880  0.44400  0.18396  1.0000 -0.538599948
O   O23       1.0  0.29880  0.55600  0.68396  1.0000 -0.538599948
O   O24       1.0  0.70120  0.55600  0.81604  1.0000 -0.538599948
O   O25       1.0  0.13045  0.64450  0.72765  1.0000 -0.5335815201
O   O26       1.0  0.86955  0.64450  0.77235  1.0000 -0.5335815201
O   O27       1.0  0.86955  0.35550  0.27235  1.0000 -0.5335815201
O   O28       1.0  0.13045  0.35550  0.22765  1.0000 -0.5335815201
O   O29       1.0  0.22710  0.73810  0.69713  1.0000 -0.523899878
O   O30       1.0  0.77290  0.73810  0.80287  1.0000 -0.523899878
O   O31       1.0  0.77290  0.26190  0.30287  1.0000 -0.523899878
O   O32       1.0  0.22710  0.26190  0.19713  1.0000 -0.523899878
