# DDEC6 charges by PACMAN v1.1 (https://github.com/mtap-research/PACMAN-charge/)
data_2014[Cu][nan]3[ASR]16
_chemical_formula_sum              "Cu12 H120 C264 O48"
_cell_length_a       29.5497
_cell_length_b       29.5497
_cell_length_c       29.5497
_cell_angle_alpha    109.471
_cell_angle_beta     109.471
_cell_angle_gamma    109.471

_symmetry_space_group_name_H-M    "P 1"
_symmetry_Int_Tables_number       1

loop_
  _symmetry_equiv_pos_as_xyz
  'x, y, z'

loop_
  _atom_site_type_symbol
  _atom_site_label
  _atom_site_symmetry_multiplicity
  _atom_site_fract_x
  _atom_site_fract_y
  _atom_site_fract_z
  _atom_site_occupancy
  _atom_site_charge
Cu  Cu1       1.0  0.33356  0.83356  0.50000  1.0000 0.8259614437
Cu  Cu2       1.0  0.66644  0.16644  0.50000  1.0000 0.8259614437
Cu  Cu3       1.0  0.50000  0.33356  0.83356  1.0000 0.8259614437
Cu  Cu4       1.0  0.83356  0.50000  0.33356  1.0000 0.8259614437
Cu  Cu5       1.0  0.50000  0.66644  0.16644  1.0000 0.8259614437
Cu  Cu6       1.0  0.16644  0.50000  0.66644  1.0000 0.8259614437
Cu  Cu7       1.0  0.25705  0.75705  0.50000  1.0000 0.8530643612
Cu  Cu8       1.0  0.74295  0.24295  0.50000  1.0000 0.8530643612
Cu  Cu9       1.0  0.50000  0.25705  0.75705  1.0000 0.8530643612
Cu  Cu10      1.0  0.75705  0.50000  0.25705  1.0000 0.8530643612
Cu  Cu11      1.0  0.50000  0.74295  0.24295  1.0000 0.8530643612
Cu  Cu12      1.0  0.24295  0.50000  0.74295  1.0000 0.8530643612
H   H1        1.0  0.14400  0.65860  0.32960  1.0000 0.1312452526
H   H2        1.0  0.67100  0.34140  0.48540  1.0000 0.1312452526
H   H3        1.0  0.32900  0.81440  0.67040  1.0000 0.1312452526
H   H4        1.0  0.85600  0.18560  0.51460  1.0000 0.1312452526
H   H5        1.0  0.32960  0.14400  0.65860  1.0000 0.1312452526
H   H6        1.0  0.65860  0.32960  0.14400  1.0000 0.1312452526
H   H7        1.0  0.48540  0.67100  0.34140  1.0000 0.1312452526
H   H8        1.0  0.67040  0.32900  0.81440  1.0000 0.1312452526
H   H9        1.0  0.51460  0.85600  0.18560  1.0000 0.1312452526
H   H10       1.0  0.34140  0.48540  0.67100  1.0000 0.1312452526
H   H11       1.0  0.81440  0.67040  0.32900  1.0000 0.1312452526
H   H12       1.0  0.18560  0.51460  0.85600  1.0000 0.1312452526
H   H13       1.0  0.85600  0.34140  0.67040  1.0000 0.1312452526
H   H14       1.0  0.32900  0.65860  0.51460  1.0000 0.1312452526
H   H15       1.0  0.67100  0.18560  0.32960  1.0000 0.1312452526
H   H16       1.0  0.14400  0.81440  0.48540  1.0000 0.1312452526
H   H17       1.0  0.67040  0.85600  0.34140  1.0000 0.1312452526
H   H18       1.0  0.34140  0.67040  0.85600  1.0000 0.1312452526
H   H19       1.0  0.51460  0.32900  0.65860  1.0000 0.1312452526
H   H20       1.0  0.32960  0.67100  0.18560  1.0000 0.1312452526
H   H21       1.0  0.48540  0.14400  0.81440  1.0000 0.1312452526
H   H22       1.0  0.65860  0.51460  0.32900  1.0000 0.1312452526
H   H23       1.0  0.18560  0.32960  0.67100  1.0000 0.1312452526
H   H24       1.0  0.81440  0.48540  0.14400  1.0000 0.1312452526
H   H25       1.0  0.08640  0.61310  0.23390  1.0000 0.1209981065
H   H26       1.0  0.62080  0.38690  0.47330  1.0000 0.1209981065
H   H27       1.0  0.37920  0.85250  0.76610  1.0000 0.1209981065
H   H28       1.0  0.91360  0.14750  0.52670  1.0000 0.1209981065
H   H29       1.0  0.23390  0.08640  0.61310  1.0000 0.1209981065
H   H30       1.0  0.61310  0.23390  0.08640  1.0000 0.1209981065
H   H31       1.0  0.47330  0.62080  0.38690  1.0000 0.1209981065
H   H32       1.0  0.76610  0.37920  0.85250  1.0000 0.1209981065
H   H33       1.0  0.52670  0.91360  0.14750  1.0000 0.1209981065
H   H34       1.0  0.38690  0.47330  0.62080  1.0000 0.1209981065
H   H35       1.0  0.85250  0.76610  0.37920  1.0000 0.1209981065
H   H36       1.0  0.14750  0.52670  0.91360  1.0000 0.1209981065
H   H37       1.0  0.91360  0.38690  0.76610  1.0000 0.1209981065
H   H38       1.0  0.37920  0.61310  0.52670  1.0000 0.1209981065
H   H39       1.0  0.62080  0.14750  0.23390  1.0000 0.1209981065
H   H40       1.0  0.08640  0.85250  0.47330  1.0000 0.1209981065
H   H41       1.0  0.76610  0.91360  0.38690  1.0000 0.1209981065
H   H42       1.0  0.38690  0.76610  0.91360  1.0000 0.1209981065
H   H43       1.0  0.52670  0.37920  0.61310  1.0000 0.1209981065
H   H44       1.0  0.23390  0.62080  0.14750  1.0000 0.1209981065
H   H45       1.0  0.47330  0.08640  0.85250  1.0000 0.1209981065
H   H46       1.0  0.61310  0.52670  0.37920  1.0000 0.1209981065
H   H47       1.0  0.14750  0.23390  0.62080  1.0000 0.1209981065
H   H48       1.0  0.85250  0.47330  0.08640  1.0000 0.1209981065
H   H49       1.0  0.20220  0.72300  0.22380  1.0000 0.1209981065
H   H50       1.0  0.50080  0.27700  0.47920  1.0000 0.1209981065
H   H51       1.0  0.49920  0.97840  0.77620  1.0000 0.1209981065
H   H52       1.0  0.79780  0.02160  0.52080  1.0000 0.1209981065
H   H53       1.0  0.22380  0.20220  0.72300  1.0000 0.1209981065
H   H54       1.0  0.72300  0.22380  0.20220  1.0000 0.1209981065
H   H55       1.0  0.47920  0.50080  0.27700  1.0000 0.1209981065
H   H56       1.0  0.77620  0.49920  0.97840  1.0000 0.1209981065
H   H57       1.0  0.52080  0.79780  0.02160  1.0000 0.1209981065
H   H58       1.0  0.27700  0.47920  0.50080  1.0000 0.1209981065
H   H59       1.0  0.97840  0.77620  0.49920  1.0000 0.1209981065
H   H60       1.0  0.02160  0.52080  0.79780  1.0000 0.1209981065
H   H61       1.0  0.79780  0.27700  0.77620  1.0000 0.1209981065
H   H62       1.0  0.49920  0.72300  0.52080  1.0000 0.1209981065
H   H63       1.0  0.50080  0.02160  0.22380  1.0000 0.1209981065
H   H64       1.0  0.20220  0.97840  0.47920  1.0000 0.1209981065
H   H65       1.0  0.77620  0.79780  0.27700  1.0000 0.1209981065
H   H66       1.0  0.27700  0.77620  0.79780  1.0000 0.1209981065
H   H67       1.0  0.52080  0.49920  0.72300  1.0000 0.1209981065
H   H68       1.0  0.22380  0.50080  0.02160  1.0000 0.1209981065
H   H69       1.0  0.47920  0.20220  0.97840  1.0000 0.1209981065
H   H70       1.0  0.72300  0.52080  0.49920  1.0000 0.1209981065
H   H71       1.0  0.02160  0.22380  0.50080  1.0000 0.1209981065
H   H72       1.0  0.97840  0.47920  0.20220  1.0000 0.1209981065
H   H73       1.0  0.25990  0.76860  0.31950  1.0000 0.1312452526
H   H74       1.0  0.55090  0.23140  0.49130  1.0000 0.1312452526
H   H75       1.0  0.44910  0.94040  0.68050  1.0000 0.1312452526
H   H76       1.0  0.74010  0.05960  0.50870  1.0000 0.1312452526
H   H77       1.0  0.31950  0.25990  0.76860  1.0000 0.1312452526
H   H78       1.0  0.76860  0.31950  0.25990  1.0000 0.1312452526
H   H79       1.0  0.49130  0.55090  0.23140  1.0000 0.1312452526
H   H80       1.0  0.68050  0.44910  0.94040  1.0000 0.1312452526
H   H81       1.0  0.50870  0.74010  0.05960  1.0000 0.1312452526
H   H82       1.0  0.23140  0.49130  0.55090  1.0000 0.1312452526
H   H83       1.0  0.94040  0.68050  0.44910  1.0000 0.1312452526
H   H84       1.0  0.05960  0.50870  0.74010  1.0000 0.1312452526
H   H85       1.0  0.74010  0.23140  0.68050  1.0000 0.1312452526
H   H86       1.0  0.44910  0.76860  0.50870  1.0000 0.1312452526
H   H87       1.0  0.55090  0.05960  0.31950  1.0000 0.1312452526
H   H88       1.0  0.25990  0.94040  0.49130  1.0000 0.1312452526
H   H89       1.0  0.68050  0.74010  0.23140  1.0000 0.1312452526
H   H90       1.0  0.23140  0.68050  0.74010  1.0000 0.1312452526
H   H91       1.0  0.50870  0.44910  0.76860  1.0000 0.1312452526
H   H92       1.0  0.31950  0.55090  0.05960  1.0000 0.1312452526
H   H93       1.0  0.49130  0.25990  0.94040  1.0000 0.1312452526
H   H94       1.0  0.76860  0.50870  0.44910  1.0000 0.1312452526
H   H95       1.0  0.05960  0.31950  0.55090  1.0000 0.1312452526
H   H96       1.0  0.94040  0.49130  0.25990  1.0000 0.1312452526
H   H97       1.0  0.96520  0.56440  0.05900  1.0000 0.1354876755
H   H98       1.0  0.49460  0.43560  0.40080  1.0000 0.1354876755
H   H99       1.0  0.50540  0.90620  0.94100  1.0000 0.1354876755
H   H100      1.0  0.03480  0.09380  0.59920  1.0000 0.1354876755
H   H101      1.0  0.05900  0.96520  0.56440  1.0000 0.1354876755
H   H102      1.0  0.56440  0.05900  0.96520  1.0000 0.1354876755
H   H103      1.0  0.40080  0.49460  0.43560  1.0000 0.1354876755
H   H104      1.0  0.94100  0.50540  0.90620  1.0000 0.1354876755
H   H105      1.0  0.59920  0.03480  0.09380  1.0000 0.1354876755
H   H106      1.0  0.43560  0.40080  0.49460  1.0000 0.1354876755
H   H107      1.0  0.90620  0.94100  0.50540  1.0000 0.1354876755
H   H108      1.0  0.09380  0.59920  0.03480  1.0000 0.1354876755
H   H109      1.0  0.03480  0.43560  0.94100  1.0000 0.1354876755
H   H110      1.0  0.50540  0.56440  0.59920  1.0000 0.1354876755
H   H111      1.0  0.49460  0.09380  0.05900  1.0000 0.1354876755
H   H112      1.0  0.96520  0.90620  0.40080  1.0000 0.1354876755
H   H113      1.0  0.94100  0.03480  0.43560  1.0000 0.1354876755
H   H114      1.0  0.43560  0.94100  0.03480  1.0000 0.1354876755
H   H115      1.0  0.59920  0.50540  0.56440  1.0000 0.1354876755
H   H116      1.0  0.05900  0.49460  0.09380  1.0000 0.1354876755
H   H117      1.0  0.40080  0.96520  0.90620  1.0000 0.1354876755
H   H118      1.0  0.56440  0.59920  0.50540  1.0000 0.1354876755
H   H119      1.0  0.09380  0.05900  0.49460  1.0000 0.1354876755
H   H120      1.0  0.90620  0.40080  0.96520  1.0000 0.1354876755
C   C1        1.0  0.24350  0.74730  0.40060  1.0000 0.5656496812
C   C2        1.0  0.65330  0.25270  0.49620  1.0000 0.5656496812
C   C3        1.0  0.34670  0.84290  0.59940  1.0000 0.5656496812
C   C4        1.0  0.75650  0.15710  0.50380  1.0000 0.5656496812
C   C5        1.0  0.40060  0.24350  0.74730  1.0000 0.5656496812
C   C6        1.0  0.74730  0.40060  0.24350  1.0000 0.5656496812
C   C7        1.0  0.49620  0.65330  0.25270  1.0000 0.5656496812
C   C8        1.0  0.59940  0.34670  0.84290  1.0000 0.5656496812
C   C9        1.0  0.50380  0.75650  0.15710  1.0000 0.5656496812
C   C10       1.0  0.25270  0.49620  0.65330  1.0000 0.5656496812
C   C11       1.0  0.84290  0.59940  0.34670  1.0000 0.5656496812
C   C12       1.0  0.15710  0.50380  0.75650  1.0000 0.5656496812
C   C13       1.0  0.75650  0.25270  0.59940  1.0000 0.5656496812
C   C14       1.0  0.34670  0.74730  0.50380  1.0000 0.5656496812
C   C15       1.0  0.65330  0.15710  0.40060  1.0000 0.5656496812
C   C16       1.0  0.24350  0.84290  0.49620  1.0000 0.5656496812
C   C17       1.0  0.59940  0.75650  0.25270  1.0000 0.5656496812
C   C18       1.0  0.25270  0.59940  0.75650  1.0000 0.5656496812
C   C19       1.0  0.50380  0.34670  0.74730  1.0000 0.5656496812
C   C20       1.0  0.40060  0.65330  0.15710  1.0000 0.5656496812
C   C21       1.0  0.49620  0.24350  0.84290  1.0000 0.5656496812
C   C22       1.0  0.74730  0.50380  0.34670  1.0000 0.5656496812
C   C23       1.0  0.15710  0.40060  0.65330  1.0000 0.5656496812
C   C24       1.0  0.84290  0.49620  0.24350  1.0000 0.5656496812
C   C25       1.0  0.20751  0.71806  0.33377  1.0000 -0.001377117
C   C26       1.0  0.61571  0.28194  0.48945  1.0000 -0.001377117
C   C27       1.0  0.38429  0.87374  0.66623  1.0000 -0.001377117
C   C28       1.0  0.79249  0.12626  0.51055  1.0000 0.000321651
C   C29       1.0  0.33377  0.20751  0.71806  1.0000 -0.001377117
C   C30       1.0  0.71806  0.33377  0.20751  1.0000 -0.001377117
C   C31       1.0  0.48945  0.61571  0.28194  1.0000 -0.001377117
C   C32       1.0  0.66623  0.38429  0.87374  1.0000 -0.001377117
C   C33       1.0  0.51055  0.79249  0.12626  1.0000 -0.001377117
C   C34       1.0  0.28194  0.48945  0.61571  1.0000 -0.001377117
C   C35       1.0  0.87374  0.66623  0.38429  1.0000 -0.001377117
C   C36       1.0  0.12626  0.51055  0.79249  1.0000 -0.001377117
C   C37       1.0  0.79249  0.28194  0.66623  1.0000 -0.001377117
C   C38       1.0  0.38429  0.71806  0.51055  1.0000 -0.001377117
C   C39       1.0  0.61571  0.12626  0.33377  1.0000 -0.001377117
C   C40       1.0  0.20751  0.87374  0.48945  1.0000 -0.001377117
C   C41       1.0  0.66623  0.79249  0.28194  1.0000 -0.001377117
C   C42       1.0  0.28194  0.66623  0.79249  1.0000 -0.001377117
C   C43       1.0  0.51055  0.38429  0.71806  1.0000 -0.001377117
C   C44       1.0  0.33377  0.61571  0.12626  1.0000 -0.001377117
C   C45       1.0  0.48945  0.20751  0.87374  1.0000 -0.001377117
C   C46       1.0  0.71806  0.51055  0.38429  1.0000 -0.001377117
C   C47       1.0  0.12626  0.33377  0.61571  1.0000 -0.001377117
C   C48       1.0  0.87374  0.48945  0.20751  1.0000 -0.001377117
C   C49       1.0  0.15580  0.67170  0.30830  1.0000 -0.0910604065
C   C50       1.0  0.63660  0.32830  0.48410  1.0000 -0.0910604065
C   C51       1.0  0.36340  0.84750  0.69170  1.0000 -0.0910604065
C   C52       1.0  0.84420  0.15250  0.51590  1.0000 -0.0910604065
C   C53       1.0  0.30830  0.15580  0.67170  1.0000 -0.0910604065
C   C54       1.0  0.67170  0.30830  0.15580  1.0000 -0.0910604065
C   C55       1.0  0.48410  0.63660  0.32830  1.0000 -0.0910604065
C   C56       1.0  0.69170  0.36340  0.84750  1.0000 -0.0910604065
C   C57       1.0  0.51590  0.84420  0.15250  1.0000 -0.0910604065
C   C58       1.0  0.32830  0.48410  0.63660  1.0000 -0.0910604065
C   C59       1.0  0.84750  0.69170  0.36340  1.0000 -0.0910604065
C   C60       1.0  0.15250  0.51590  0.84420  1.0000 -0.0910604065
C   C61       1.0  0.84420  0.32830  0.69170  1.0000 -0.0910604065
C   C62       1.0  0.36340  0.67170  0.51590  1.0000 -0.0910604065
C   C63       1.0  0.63660  0.15250  0.30830  1.0000 -0.0910604065
C   C64       1.0  0.15580  0.84750  0.48410  1.0000 -0.0910604065
C   C65       1.0  0.69170  0.84420  0.32830  1.0000 -0.0910604065
C   C66       1.0  0.32830  0.69170  0.84420  1.0000 -0.0910604065
C   C67       1.0  0.51590  0.36340  0.67170  1.0000 -0.0910604065
C   C68       1.0  0.30830  0.63660  0.15250  1.0000 -0.0910604065
C   C69       1.0  0.48410  0.15580  0.84750  1.0000 -0.0910604065
C   C70       1.0  0.67170  0.51590  0.36340  1.0000 -0.0910604065
C   C71       1.0  0.15250  0.30830  0.63660  1.0000 -0.0910604065
C   C72       1.0  0.84750  0.48410  0.15580  1.0000 -0.0910604065
C   C73       1.0  0.12130  0.64440  0.25110  1.0000 -0.1496995485
C   C74       1.0  0.60670  0.35560  0.47690  1.0000 -0.1496995485
C   C75       1.0  0.39330  0.87020  0.74890  1.0000 -0.1496995485
C   C76       1.0  0.87870  0.12980  0.52310  1.0000 -0.1496995485
C   C77       1.0  0.25110  0.12130  0.64440  1.0000 -0.1496995485
C   C78       1.0  0.64440  0.25110  0.12130  1.0000 -0.1496995485
C   C79       1.0  0.47690  0.60670  0.35560  1.0000 -0.1496995485
C   C80       1.0  0.74890  0.39330  0.87020  1.0000 -0.1496995485
C   C81       1.0  0.52310  0.87870  0.12980  1.0000 -0.1496995485
C   C82       1.0  0.35560  0.47690  0.60670  1.0000 -0.1496995485
C   C83       1.0  0.87020  0.74890  0.39330  1.0000 -0.1496995485
C   C84       1.0  0.12980  0.52310  0.87870  1.0000 -0.1496995485
C   C85       1.0  0.87870  0.35560  0.74890  1.0000 -0.1496995485
C   C86       1.0  0.39330  0.64440  0.52310  1.0000 -0.1496995485
C   C87       1.0  0.60670  0.12980  0.25110  1.0000 -0.1496995485
C   C88       1.0  0.12130  0.87020  0.47690  1.0000 -0.1496995485
C   C89       1.0  0.74890  0.87870  0.35560  1.0000 -0.1496995485
C   C90       1.0  0.35560  0.74890  0.87870  1.0000 -0.1496995485
C   C91       1.0  0.52310  0.39330  0.64440  1.0000 -0.1496995485
C   C92       1.0  0.25110  0.60670  0.12980  1.0000 -0.1496995485
C   C93       1.0  0.47690  0.12130  0.87020  1.0000 -0.1496995485
C   C94       1.0  0.64440  0.52310  0.39330  1.0000 -0.1496995485
C   C95       1.0  0.12980  0.25110  0.60670  1.0000 -0.1496995485
C   C96       1.0  0.87020  0.47690  0.12130  1.0000 -0.1496995485
C   C97       1.0  0.13877  0.66370  0.21967  1.0000 0.1209981065
C   C98       1.0  0.55597  0.33630  0.47507  1.0000 0.1209981065
C   C99       1.0  0.44403  0.91910  0.78033  1.0000 0.1209981065
C   C100      1.0  0.86123  0.08090  0.52493  1.0000 0.1209981065
C   C101      1.0  0.21967  0.13877  0.66370  1.0000 0.1209981065
C   C102      1.0  0.66370  0.21967  0.13877  1.0000 0.1209981065
C   C103      1.0  0.47507  0.55597  0.33630  1.0000 0.1209981065
C   C104      1.0  0.78033  0.44403  0.91910  1.0000 0.1209981065
C   C105      1.0  0.52493  0.86123  0.08090  1.0000 0.1209981065
C   C106      1.0  0.33630  0.47507  0.55597  1.0000 0.1209981065
C   C107      1.0  0.91910  0.78033  0.44403  1.0000 0.1209981065
C   C108      1.0  0.08090  0.52493  0.86123  1.0000 0.1209981065
C   C109      1.0  0.86123  0.33630  0.78033  1.0000 0.1209981065
C   C110      1.0  0.44403  0.66370  0.52493  1.0000 0.1209981065
C   C111      1.0  0.55597  0.08090  0.21967  1.0000 0.1209981065
C   C112      1.0  0.13877  0.91910  0.47507  1.0000 0.1209981065
C   C113      1.0  0.78033  0.86123  0.33630  1.0000 0.1209981065
C   C114      1.0  0.33630  0.78033  0.86123  1.0000 0.1209981065
C   C115      1.0  0.52493  0.44403  0.66370  1.0000 0.1209981065
C   C116      1.0  0.21967  0.55597  0.08090  1.0000 0.1209981065
C   C117      1.0  0.47507  0.13877  0.91910  1.0000 0.1209981065
C   C118      1.0  0.66370  0.52493  0.44403  1.0000 0.1209981065
C   C119      1.0  0.08090  0.21967  0.55597  1.0000 0.1209981065
C   C120      1.0  0.91910  0.47507  0.13877  1.0000 0.1209981065
C   C121      1.0  0.19050  0.71000  0.24510  1.0000 -0.1496995485
C   C122      1.0  0.53510  0.29000  0.48050  1.0000 -0.1496995485
C   C123      1.0  0.46490  0.94540  0.75490  1.0000 -0.1496995485
C   C124      1.0  0.80950  0.05460  0.51950  1.0000 -0.1447128326
C   C125      1.0  0.24510  0.19050  0.71000  1.0000 -0.1496995485
C   C126      1.0  0.71000  0.24510  0.19050  1.0000 -0.1496995485
C   C127      1.0  0.48050  0.53510  0.29000  1.0000 -0.1496995485
C   C128      1.0  0.75490  0.46490  0.94540  1.0000 -0.1447128326
C   C129      1.0  0.51950  0.80950  0.05460  1.0000 -0.1496995485
C   C130      1.0  0.29000  0.48050  0.53510  1.0000 -0.1496995485
C   C131      1.0  0.94540  0.75490  0.46490  1.0000 -0.1447128326
C   C132      1.0  0.05460  0.51950  0.80950  1.0000 -0.1496995485
C   C133      1.0  0.80950  0.29000  0.75490  1.0000 -0.1447128326
C   C134      1.0  0.46490  0.71000  0.51950  1.0000 -0.1447128326
C   C135      1.0  0.53510  0.05460  0.24510  1.0000 -0.1496995485
C   C136      1.0  0.19050  0.94540  0.48050  1.0000 -0.1496995485
C   C137      1.0  0.75490  0.80950  0.29000  1.0000 -0.1496995485
C   C138      1.0  0.29000  0.75490  0.80950  1.0000 -0.1496995485
C   C139      1.0  0.51950  0.46490  0.71000  1.0000 -0.1496995485
C   C140      1.0  0.24510  0.53510  0.05460  1.0000 -0.1496995485
C   C141      1.0  0.48050  0.19050  0.94540  1.0000 -0.1496995485
C   C142      1.0  0.71000  0.51950  0.46490  1.0000 -0.1496995485
C   C143      1.0  0.05460  0.24510  0.53510  1.0000 -0.1496995485
C   C144      1.0  0.94540  0.48050  0.19050  1.0000 -0.1496995485
C   C145      1.0  0.22490  0.73730  0.30220  1.0000 -0.0910604065
C   C146      1.0  0.56490  0.26270  0.48760  1.0000 -0.0910604065
C   C147      1.0  0.43510  0.92270  0.69780  1.0000 -0.0910604065
C   C148      1.0  0.77510  0.07730  0.51240  1.0000 -0.0910604065
C   C149      1.0  0.30220  0.22490  0.73730  1.0000 -0.0910604065
C   C150      1.0  0.73730  0.30220  0.22490  1.0000 -0.0910604065
C   C151      1.0  0.48760  0.56490  0.26270  1.0000 -0.0910604065
C   C152      1.0  0.69780  0.43510  0.92270  1.0000 -0.0910604065
C   C153      1.0  0.51240  0.77510  0.07730  1.0000 -0.0910604065
C   C154      1.0  0.26270  0.48760  0.56490  1.0000 -0.0910604065
C   C155      1.0  0.92270  0.69780  0.43510  1.0000 -0.0910604065
C   C156      1.0  0.07730  0.51240  0.77510  1.0000 -0.0910604065
C   C157      1.0  0.77510  0.26270  0.69780  1.0000 -0.0910604065
C   C158      1.0  0.43510  0.73730  0.51240  1.0000 -0.0910604065
C   C159      1.0  0.56490  0.07730  0.30220  1.0000 -0.0910604065
C   C160      1.0  0.22490  0.92270  0.48760  1.0000 -0.0910604065
C   C161      1.0  0.69780  0.77510  0.26270  1.0000 -0.0910604065
C   C162      1.0  0.26270  0.69780  0.77510  1.0000 -0.0910604065
C   C163      1.0  0.51240  0.43510  0.73730  1.0000 -0.0910604065
C   C164      1.0  0.30220  0.56490  0.07730  1.0000 -0.0910604065
C   C165      1.0  0.48760  0.22490  0.92270  1.0000 -0.0910604065
C   C166      1.0  0.73730  0.51240  0.43510  1.0000 -0.0910604065
C   C167      1.0  0.07730  0.30220  0.56490  1.0000 -0.0910604065
C   C168      1.0  0.92270  0.48760  0.22490  1.0000 -0.0910604065
C   C169      1.0  0.10740  0.63910  0.16030  1.0000 -0.1036405984
C   C170      1.0  0.52120  0.36090  0.46830  1.0000 -0.1036405984
C   C171      1.0  0.47880  0.94710  0.83970  1.0000 -0.1036405984
C   C172      1.0  0.89260  0.05290  0.53170  1.0000 -0.1036405984
C   C173      1.0  0.16030  0.10740  0.63910  1.0000 -0.1036405984
C   C174      1.0  0.63910  0.16030  0.10740  1.0000 -0.1036405984
C   C175      1.0  0.46830  0.52120  0.36090  1.0000 -0.1036405984
C   C176      1.0  0.83970  0.47880  0.94710  1.0000 -0.1036405984
C   C177      1.0  0.53170  0.89260  0.05290  1.0000 -0.1036405984
C   C178      1.0  0.36090  0.46830  0.52120  1.0000 -0.1036405984
C   C179      1.0  0.94710  0.83970  0.47880  1.0000 -0.1036405984
C   C180      1.0  0.05290  0.53170  0.89260  1.0000 -0.1036405984
C   C181      1.0  0.89260  0.36090  0.83970  1.0000 -0.1036405984
C   C182      1.0  0.47880  0.63910  0.53170  1.0000 -0.1036405984
C   C183      1.0  0.52120  0.05290  0.16030  1.0000 -0.1036405984
C   C184      1.0  0.10740  0.94710  0.46830  1.0000 -0.1036405984
C   C185      1.0  0.83970  0.89260  0.36090  1.0000 -0.1036405984
C   C186      1.0  0.36090  0.83970  0.89260  1.0000 -0.1036405984
C   C187      1.0  0.53170  0.47880  0.63910  1.0000 -0.1036405984
C   C188      1.0  0.16030  0.52120  0.05290  1.0000 -0.1036405984
C   C189      1.0  0.46830  0.10740  0.94710  1.0000 -0.1036405984
C   C190      1.0  0.63910  0.53170  0.47880  1.0000 -0.1036405984
C   C191      1.0  0.05290  0.16030  0.52120  1.0000 -0.1036405984
C   C192      1.0  0.94710  0.46830  0.10740  1.0000 -0.1036405984
C   C193      1.0  0.07510  0.61760  0.11470  1.0000 -0.0725930328
C   C194      1.0  0.49710  0.38240  0.45750  1.0000 -0.0725930328
C   C195      1.0  0.50290  0.96040  0.88530  1.0000 -0.0725930328
C   C196      1.0  0.92490  0.03960  0.54250  1.0000 -0.0725930328
C   C197      1.0  0.11470  0.07510  0.61760  1.0000 -0.0725930328
C   C198      1.0  0.61760  0.11470  0.07510  1.0000 -0.0725930328
C   C199      1.0  0.45750  0.49710  0.38240  1.0000 -0.0725930328
C   C200      1.0  0.88530  0.50290  0.96040  1.0000 -0.0725930328
C   C201      1.0  0.54250  0.92490  0.03960  1.0000 -0.0725930328
C   C202      1.0  0.38240  0.45750  0.49710  1.0000 -0.0725930328
C   C203      1.0  0.96040  0.88530  0.50290  1.0000 -0.0725930328
C   C204      1.0  0.03960  0.54250  0.92490  1.0000 -0.0725930328
C   C205      1.0  0.92490  0.38240  0.88530  1.0000 -0.0725930328
C   C206      1.0  0.50290  0.61760  0.54250  1.0000 -0.0725930328
C   C207      1.0  0.49710  0.03960  0.11470  1.0000 -0.0725930328
C   C208      1.0  0.07510  0.96040  0.45750  1.0000 -0.0725930328
C   C209      1.0  0.88530  0.92490  0.38240  1.0000 -0.0725930328
C   C210      1.0  0.38240  0.88530  0.92490  1.0000 -0.0725930328
C   C211      1.0  0.54250  0.50290  0.61760  1.0000 -0.0725930328
C   C212      1.0  0.11470  0.49710  0.03960  1.0000 -0.0725930328
C   C213      1.0  0.45750  0.07510  0.96040  1.0000 -0.0725930328
C   C214      1.0  0.61760  0.54250  0.50290  1.0000 -0.0725930328
C   C215      1.0  0.03960  0.11470  0.49710  1.0000 -0.0725930328
C   C216      1.0  0.96040  0.45750  0.07510  1.0000 -0.0725930328
C   C217      1.0  0.03460  0.58620  0.05620  1.0000 0.1312452526
C   C218      1.0  0.47000  0.41380  0.44840  1.0000 0.1312452526
C   C219      1.0  0.53000  0.97840  0.94380  1.0000 0.1312452526
C   C220      1.0  0.96540  0.02160  0.55160  1.0000 0.1312452526
C   C221      1.0  0.05620  0.03460  0.58620  1.0000 0.1312452526
C   C222      1.0  0.58620  0.05620  0.03460  1.0000 0.1312452526
C   C223      1.0  0.44840  0.47000  0.41380  1.0000 0.1312452526
C   C224      1.0  0.94380  0.53000  0.97840  1.0000 0.1312452526
C   C225      1.0  0.55160  0.96540  0.02160  1.0000 0.1312452526
C   C226      1.0  0.41380  0.44840  0.47000  1.0000 0.1312452526
C   C227      1.0  0.97840  0.94380  0.53000  1.0000 0.1312452526
C   C228      1.0  0.02160  0.55160  0.96540  1.0000 0.1312452526
C   C229      1.0  0.96540  0.41380  0.94380  1.0000 0.1312452526
C   C230      1.0  0.53000  0.58620  0.55160  1.0000 0.1312452526
C   C231      1.0  0.47000  0.02160  0.05620  1.0000 0.1312452526
C   C232      1.0  0.03460  0.97840  0.44840  1.0000 0.1312452526
C   C233      1.0  0.94380  0.96540  0.41380  1.0000 0.1312452526
C   C234      1.0  0.41380  0.94380  0.96540  1.0000 0.1312452526
C   C235      1.0  0.55160  0.53000  0.58620  1.0000 0.1312452526
C   C236      1.0  0.05620  0.47000  0.02160  1.0000 0.1312452526
C   C237      1.0  0.44840  0.03460  0.97840  1.0000 0.1312452526
C   C238      1.0  0.58620  0.55160  0.53000  1.0000 0.1312452526
C   C239      1.0  0.02160  0.05620  0.47000  1.0000 0.1312452526
C   C240      1.0  0.97840  0.44840  0.03460  1.0000 0.1312452526
C   C241      1.0  0.97960  0.56090  0.03490  1.0000 -0.1673840224
C   C242      1.0  0.47400  0.43910  0.41870  1.0000 -0.1673840224
C   C243      1.0  0.52600  0.94470  0.96510  1.0000 -0.1673840224
C   C244      1.0  0.02040  0.05530  0.58130  1.0000 -0.1673840224
C   C245      1.0  0.03490  0.97960  0.56090  1.0000 -0.1673840224
C   C246      1.0  0.56090  0.03490  0.97960  1.0000 -0.1673840224
C   C247      1.0  0.41870  0.47400  0.43910  1.0000 -0.1673840224
C   C248      1.0  0.96510  0.52600  0.94470  1.0000 -0.1673840224
C   C249      1.0  0.58130  0.02040  0.05530  1.0000 -0.1673840224
C   C250      1.0  0.43910  0.41870  0.47400  1.0000 -0.1673840224
C   C251      1.0  0.94470  0.96510  0.52600  1.0000 -0.1673840224
C   C252      1.0  0.05530  0.58130  0.02040  1.0000 -0.1673840224
C   C253      1.0  0.02040  0.43910  0.96510  1.0000 -0.1673840224
C   C254      1.0  0.52600  0.56090  0.58130  1.0000 -0.1673840224
C   C255      1.0  0.47400  0.05530  0.03490  1.0000 -0.1673840224
C   C256      1.0  0.97960  0.94470  0.41870  1.0000 -0.1673840224
C   C257      1.0  0.96510  0.02040  0.43910  1.0000 -0.1673840224
C   C258      1.0  0.43910  0.96510  0.02040  1.0000 -0.1673840224
C   C259      1.0  0.58130  0.52600  0.56090  1.0000 -0.1673840224
C   C260      1.0  0.03490  0.47400  0.05530  1.0000 -0.1673840224
C   C261      1.0  0.41870  0.97960  0.94470  1.0000 -0.1673840224
C   C262      1.0  0.56090  0.58130  0.52600  1.0000 -0.1673840224
C   C263      1.0  0.05530  0.03490  0.47400  1.0000 -0.1673840224
C   C264      1.0  0.94470  0.41870  0.97960  1.0000 -0.1673840224
O   O1        1.0  0.28841  0.78974  0.41883  1.0000 -0.5140268709
O   O2        1.0  0.62909  0.21026  0.49867  1.0000 -0.5140268709
O   O3        1.0  0.37091  0.86958  0.58117  1.0000 -0.5140268709
O   O4        1.0  0.71159  0.13042  0.50133  1.0000 -0.5140268709
O   O5        1.0  0.41883  0.28841  0.78974  1.0000 -0.5140268709
O   O6        1.0  0.78974  0.41883  0.28841  1.0000 -0.5140268709
O   O7        1.0  0.49867  0.62909  0.21026  1.0000 -0.5140268709
O   O8        1.0  0.58117  0.37091  0.86958  1.0000 -0.5140268709
O   O9        1.0  0.50133  0.71159  0.13042  1.0000 -0.5140268709
O   O10       1.0  0.21026  0.49867  0.62909  1.0000 -0.5140268709
O   O11       1.0  0.86958  0.58117  0.37091  1.0000 -0.5140268709
O   O12       1.0  0.13042  0.50133  0.71159  1.0000 -0.5140268709
O   O13       1.0  0.71159  0.21026  0.58117  1.0000 -0.5140268709
O   O14       1.0  0.37091  0.78974  0.50133  1.0000 -0.5140268709
O   O15       1.0  0.62909  0.13042  0.41883  1.0000 -0.5140268709
O   O16       1.0  0.28841  0.86958  0.49867  1.0000 -0.5140268709
O   O17       1.0  0.58117  0.71159  0.21026  1.0000 -0.5140268709
O   O18       1.0  0.21026  0.58117  0.71159  1.0000 -0.5140268709
O   O19       1.0  0.50133  0.37091  0.78974  1.0000 -0.5140268709
O   O20       1.0  0.41883  0.62909  0.13042  1.0000 -0.5140268709
O   O21       1.0  0.49867  0.28841  0.86958  1.0000 -0.5140268709
O   O22       1.0  0.78974  0.50133  0.37091  1.0000 -0.5140268709
O   O23       1.0  0.13042  0.41883  0.62909  1.0000 -0.5151263148
O   O24       1.0  0.86958  0.49867  0.28841  1.0000 -0.5140268709
O   O25       1.0  0.22061  0.71982  0.42045  1.0000 -0.5381462048
O   O26       1.0  0.70063  0.28018  0.50079  1.0000 -0.5381462048
O   O27       1.0  0.29937  0.80016  0.57955  1.0000 -0.5381462048
O   O28       1.0  0.77939  0.19984  0.49921  1.0000 -0.5381462048
O   O29       1.0  0.42045  0.22061  0.71982  1.0000 -0.5381462048
O   O30       1.0  0.71982  0.42045  0.22061  1.0000 -0.5381462048
O   O31       1.0  0.50079  0.70063  0.28018  1.0000 -0.5381462048
O   O32       1.0  0.57955  0.29937  0.80016  1.0000 -0.5381462048
O   O33       1.0  0.49921  0.77939  0.19984  1.0000 -0.5381462048
O   O34       1.0  0.28018  0.50079  0.70063  1.0000 -0.5381462048
O   O35       1.0  0.80016  0.57955  0.29937  1.0000 -0.5381462048
O   O36       1.0  0.19984  0.49921  0.77939  1.0000 -0.5381462048
O   O37       1.0  0.77939  0.28018  0.57955  1.0000 -0.5381462048
O   O38       1.0  0.29937  0.71982  0.49921  1.0000 -0.5381462048
O   O39       1.0  0.70063  0.19984  0.42045  1.0000 -0.5381462048
O   O40       1.0  0.22061  0.80016  0.50079  1.0000 -0.5381462048
O   O41       1.0  0.57955  0.77939  0.28018  1.0000 -0.5381462048
O   O42       1.0  0.28018  0.57955  0.77939  1.0000 -0.5381462048
O   O43       1.0  0.49921  0.29937  0.71982  1.0000 -0.5381462048
O   O44       1.0  0.42045  0.70063  0.19984  1.0000 -0.5381462048
O   O45       1.0  0.50079  0.22061  0.80016  1.0000 -0.5381462048
O   O46       1.0  0.71982  0.49921  0.29937  1.0000 -0.5381462048
O   O47       1.0  0.19984  0.42045  0.70063  1.0000 -0.5381462048
O   O48       1.0  0.80016  0.50079  0.22061  1.0000 -0.5381462048
