# DDEC6 charges by PACMAN v1.1 (https://github.com/mtap-research/PACMAN-charge/)
data_2014[Cd][sod]3[ASR]1
_chemical_formula_sum              "Cd4 H16 C24 S2 N4 O16"
_cell_length_a       10.39
_cell_length_b       12.295
_cell_length_c       12.497
_cell_angle_alpha    79.31
_cell_angle_beta     68.2
_cell_angle_gamma    69.58

_symmetry_space_group_name_H-M    "P 1"
_symmetry_Int_Tables_number       1

loop_
  _symmetry_equiv_pos_as_xyz
  'x, y, z'

loop_
  _atom_site_type_symbol
  _atom_site_label
  _atom_site_symmetry_multiplicity
  _atom_site_fract_x
  _atom_site_fract_y
  _atom_site_fract_z
  _atom_site_occupancy
  _atom_site_charge
Cd  Cd1       1.0  0.40038  0.69632  0.02158  1.0000 0.9613372375
Cd  Cd2       1.0  0.59962  0.30368  0.97842  1.0000 0.9613372375
Cd  Cd3       1.0  0.04869  0.52707  0.81438  1.0000 0.9613372375
Cd  Cd4       1.0  0.95131  0.47293  0.18562  1.0000 0.9613372375
H   H1        1.0  0.02460  0.62930  0.42530  1.0000 0.1391592705
H   H2        1.0  0.97540  0.37070  0.57470  1.0000 0.1391592705
H   H3        1.0  0.11550  0.67320  0.23070  1.0000 0.1036834334
H   H4        1.0  0.88450  0.32680  0.76930  1.0000 0.1036834334
H   H5        1.0  0.50500  0.60520  0.24180  1.0000 0.1088512828
H   H6        1.0  0.49500  0.39480  0.75820  1.0000 0.1088512828
H   H7        1.0  0.42610  0.56600  0.43740  1.0000 0.1391592705
H   H8        1.0  0.57390  0.43400  0.56260  1.0000 0.1391592705
H   H9        1.0  0.99560  0.07040  0.06110  1.0000 0.1391592705
H   H10       1.0  0.00440  0.92960  0.93890  1.0000 0.1391592705
H   H11       1.0  0.34260  0.07180  0.12930  1.0000 0.1391592705
H   H12       1.0  0.65740  0.92820  0.87070  1.0000 0.1391592705
H   H13       1.0  0.89370  0.26330  0.10000  1.0000 0.1088512828
H   H14       1.0  0.10630  0.73670  0.90000  1.0000 0.1088512828
H   H15       1.0  0.22800  0.26240  0.17120  1.0000 0.1036834334
H   H16       1.0  0.77200  0.73760  0.82880  1.0000 0.1036834334
C   C1        1.0  0.15950  0.56890  0.58410  1.0000 0.5269864489
C   C2        1.0  0.84050  0.43110  0.41590  1.0000 0.5269864489
C   C3        1.0  0.21680  0.59380  0.45380  1.0000 0.0324206268
C   C4        1.0  0.78320  0.40620  0.54620  1.0000 0.0324206268
C   C5        1.0  0.12210  0.62510  0.39000  1.0000 -0.1488547671
C   C6        1.0  0.87790  0.37490  0.61000  1.0000 -0.1488547671
C   C7        1.0  0.17880  0.64950  0.27300  1.0000 0.0874233403
C   C8        1.0  0.82120  0.35050  0.72700  1.0000 0.0874233403
C   C9        1.0  0.40740  0.61060  0.27960  1.0000 0.0706012909
C   C10       1.0  0.59260  0.38940  0.72040  1.0000 0.0706012909
C   C11       1.0  0.36110  0.58670  0.39680  1.0000 -0.142860734
C   C12       1.0  0.63890  0.41330  0.60320  1.0000 -0.142860734
C   C13       1.0  0.25850  0.92200  0.06320  1.0000 0.5269864489
C   C14       1.0  0.74150  0.07800  0.93680  1.0000 0.5269864489
C   C15       1.0  0.18340  0.04740  0.08960  1.0000 0.0203610127
C   C16       1.0  0.81660  0.95260  0.91040  1.0000 0.0203610127
C   C17       1.0  0.04570  0.10750  0.08250  1.0000 -0.142860734
C   C18       1.0  0.95430  0.89250  0.91750  1.0000 -0.142860734
C   C19       1.0  0.25030  0.10860  0.12360  1.0000 -0.1488547671
C   C20       1.0  0.74970  0.89140  0.87640  1.0000 -0.1488547671
C   C21       1.0  0.98430  0.22310  0.10760  1.0000 0.0706012909
C   C22       1.0  0.01570  0.77690  0.89240  1.0000 0.0706012909
C   C23       1.0  0.18070  0.22330  0.14880  1.0000 0.0874233403
C   C24       1.0  0.81930  0.77670  0.85120  1.0000 0.0874233403
S   S1        1.0  0.73520  0.51493  0.00492  1.0000 1.3892193724
S   S2        1.0  0.26480  0.48507  0.99508  1.0000 1.3892193724
N   N1        1.0  0.31730  0.64150  0.21670  1.0000 -0.2571254457
N   N2        1.0  0.68270  0.35850  0.78330  1.0000 -0.2571254457
N   N3        1.0  0.04920  0.28030  0.14260  1.0000 -0.2571254457
N   N4        1.0  0.95080  0.71970  0.85740  1.0000 -0.2571254457
O   O1        1.0  0.38350  0.87660  0.06450  1.0000 -0.5195362877
O   O2        1.0  0.61650  0.12340  0.93550  1.0000 -0.5195362877
O   O3        1.0  0.19070  0.86790  0.04070  1.0000 -0.5513295542
O   O4        1.0  0.80930  0.13210  0.95930  1.0000 -0.5513295542
O   O5        1.0  0.82660  0.50430  0.06900  1.0000 -0.6014832567
O   O6        1.0  0.17340  0.49570  0.93100  1.0000 -0.6014832567
O   O7        1.0  0.66870  0.42210  0.04230  1.0000 -0.6505968879
O   O8        1.0  0.33130  0.57790  0.95770  1.0000 -0.6505968879
O   O9        1.0  0.82110  0.50850  0.88450  1.0000 -0.6234271835
O   O10       1.0  0.17890  0.49150  0.11550  1.0000 -0.6234271835
O   O11       1.0  0.62970  0.62890  0.02680  1.0000 -0.6014832567
O   O12       1.0  0.37030  0.37110  0.97320  1.0000 -0.6014832567
O   O13       1.0  0.02950  0.57850  0.63020  1.0000 -0.5195362877
O   O14       1.0  0.97050  0.42150  0.36980  1.0000 -0.5195362877
O   O15       1.0  0.24700  0.54150  0.63810  1.0000 -0.5513295542
O   O16       1.0  0.75300  0.45850  0.36190  1.0000 -0.5513295542
