# DDEC6 charges by PACMAN v1.1 (https://github.com/mtap-research/PACMAN-charge/)
data_2014[Mn][gfy]3[ASR]2
_chemical_formula_sum              "Mn4 H78 C126 N24 O12"
_cell_length_a       17.203
_cell_length_b       17.203
_cell_length_c       14.045
_cell_angle_alpha    90
_cell_angle_beta     90
_cell_angle_gamma    120

_symmetry_space_group_name_H-M    "P 1"
_symmetry_Int_Tables_number       1

loop_
  _symmetry_equiv_pos_as_xyz
  'x, y, z'

loop_
  _atom_site_type_symbol
  _atom_site_label
  _atom_site_symmetry_multiplicity
  _atom_site_fract_x
  _atom_site_fract_y
  _atom_site_fract_z
  _atom_site_occupancy
  _atom_site_charge
Mn  Mn1       1.0  0.66667  0.33333  0.10599  1.0000 0.8744917359
Mn  Mn2       1.0  0.66667  0.33333  0.39401  1.0000 0.8744917359
Mn  Mn3       1.0  0.33333  0.66667  0.89401  1.0000 0.8751489963
Mn  Mn4       1.0  0.33333  0.66667  0.60599  1.0000 0.8751489963
H   H1        1.0  0.93800  0.42440  0.38280  1.0000 0.1280511321
H   H2        1.0  0.57560  0.51360  0.38280  1.0000 0.1280511321
H   H3        1.0  0.48640  0.06200  0.38280  1.0000 0.1280511321
H   H4        1.0  0.57560  0.06200  0.11720  1.0000 0.1280511321
H   H5        1.0  0.93800  0.51360  0.11720  1.0000 0.1280511321
H   H6        1.0  0.48640  0.42440  0.11720  1.0000 0.1280511321
H   H7        1.0  0.06200  0.57560  0.61720  1.0000 0.1280511321
H   H8        1.0  0.42440  0.48640  0.61720  1.0000 0.1280511321
H   H9        1.0  0.51360  0.93800  0.61720  1.0000 0.1280511321
H   H10       1.0  0.42440  0.93800  0.88280  1.0000 0.1280511321
H   H11       1.0  0.06200  0.48640  0.88280  1.0000 0.1280511321
H   H12       1.0  0.51360  0.57560  0.88280  1.0000 0.1280511321
H   H13       1.0  0.17090  0.58545  0.25000  1.0000 0.1280511321
H   H14       1.0  0.41455  0.58545  0.25000  1.0000 0.1280511321
H   H15       1.0  0.41455  0.82910  0.25000  1.0000 0.1280511321
H   H16       1.0  0.82910  0.41455  0.75000  1.0000 0.1280511321
H   H17       1.0  0.58545  0.41455  0.75000  1.0000 0.1280511321
H   H18       1.0  0.58545  0.17090  0.75000  1.0000 0.1280511321
H   H19       1.0  0.21050  0.63300  0.41670  1.0000 0.1100221311
H   H20       1.0  0.36700  0.57750  0.41670  1.0000 0.1100221311
H   H21       1.0  0.42250  0.78950  0.41670  1.0000 0.1100221311
H   H22       1.0  0.36700  0.78950  0.08330  1.0000 0.1100221311
H   H23       1.0  0.21050  0.57750  0.08330  1.0000 0.1100221311
H   H24       1.0  0.42250  0.63300  0.08330  1.0000 0.1100221311
H   H25       1.0  0.78950  0.36700  0.58330  1.0000 0.1100221311
H   H26       1.0  0.63300  0.42250  0.58330  1.0000 0.1100221311
H   H27       1.0  0.57750  0.21050  0.58330  1.0000 0.1100221311
H   H28       1.0  0.63300  0.21050  0.91670  1.0000 0.1100221311
H   H29       1.0  0.78950  0.42250  0.91670  1.0000 0.1100221311
H   H30       1.0  0.57750  0.36700  0.91670  1.0000 0.1100221311
H   H31       1.0  0.99020  0.31490  0.41380  1.0000 0.1280511321
H   H32       1.0  0.68510  0.67530  0.41380  1.0000 0.1280511321
H   H33       1.0  0.32470  0.00980  0.41380  1.0000 0.1280511321
H   H34       1.0  0.68510  0.00980  0.08620  1.0000 0.1280511321
H   H35       1.0  0.99020  0.67530  0.08620  1.0000 0.1280511321
H   H36       1.0  0.32470  0.31490  0.08620  1.0000 0.1280511321
H   H37       1.0  0.00980  0.68510  0.58620  1.0000 0.1280511321
H   H38       1.0  0.31490  0.32470  0.58620  1.0000 0.1280511321
H   H39       1.0  0.67530  0.99020  0.58620  1.0000 0.1280511321
H   H40       1.0  0.31490  0.99020  0.91380  1.0000 0.1280511321
H   H41       1.0  0.00980  0.32470  0.91380  1.0000 0.1280511321
H   H42       1.0  0.67530  0.68510  0.91380  1.0000 0.1280511321
H   H43       1.0  0.00850  0.22100  0.51890  1.0000 0.1100221311
H   H44       1.0  0.77900  0.78750  0.51890  1.0000 0.1100221311
H   H45       1.0  0.21250  0.99150  0.51890  1.0000 0.1100221311
H   H46       1.0  0.77900  0.99150  0.98110  1.0000 0.1100221311
H   H47       1.0  0.00850  0.78750  0.98110  1.0000 0.1100221311
H   H48       1.0  0.21250  0.22100  0.98110  1.0000 0.1100221311
H   H49       1.0  0.99150  0.77900  0.48110  1.0000 0.1100221311
H   H50       1.0  0.22100  0.21250  0.48110  1.0000 0.1100221311
H   H51       1.0  0.78750  0.00850  0.48110  1.0000 0.1100221311
H   H52       1.0  0.22100  0.00850  0.01890  1.0000 0.1100221311
H   H53       1.0  0.99150  0.21250  0.01890  1.0000 0.1100221311
H   H54       1.0  0.78750  0.77900  0.01890  1.0000 0.1100221311
H   H55       1.0  0.12350  0.27790  0.62850  1.0000 0.1100221311
H   H56       1.0  0.72210  0.84560  0.62850  1.0000 0.1100221311
H   H57       1.0  0.15440  0.87650  0.62850  1.0000 0.1100221311
H   H58       1.0  0.72210  0.87650  0.87150  1.0000 0.1100221311
H   H59       1.0  0.12350  0.84560  0.87150  1.0000 0.1100221311
H   H60       1.0  0.15440  0.27790  0.87150  1.0000 0.1100221311
H   H61       1.0  0.87650  0.72210  0.37150  1.0000 0.1100221311
H   H62       1.0  0.27790  0.15440  0.37150  1.0000 0.1100221311
H   H63       1.0  0.84560  0.12350  0.37150  1.0000 0.1100221311
H   H64       1.0  0.27790  0.12350  0.12850  1.0000 0.1100221311
H   H65       1.0  0.87650  0.15440  0.12850  1.0000 0.1100221311
H   H66       1.0  0.84560  0.72210  0.12850  1.0000 0.1100221311
H   H67       1.0  0.22900  0.42990  0.63340  1.0000 0.1371333111
H   H68       1.0  0.57010  0.79910  0.63340  1.0000 0.1371333111
H   H69       1.0  0.20090  0.77100  0.63340  1.0000 0.1371333111
H   H70       1.0  0.57010  0.77100  0.86660  1.0000 0.1371333111
H   H71       1.0  0.22900  0.79910  0.86660  1.0000 0.1371333111
H   H72       1.0  0.20090  0.42990  0.86660  1.0000 0.1371333111
H   H73       1.0  0.77100  0.57010  0.36660  1.0000 0.1371333111
H   H74       1.0  0.42990  0.20090  0.36660  1.0000 0.1371333111
H   H75       1.0  0.79910  0.22900  0.36660  1.0000 0.1371333111
H   H76       1.0  0.42990  0.22900  0.13340  1.0000 0.1371333111
H   H77       1.0  0.77100  0.20090  0.13340  1.0000 0.1371333111
H   H78       1.0  0.79910  0.57010  0.13340  1.0000 0.1371333111
C   C1        1.0  0.82090  0.41045  0.25000  1.0000 0.5746417489
C   C2        1.0  0.58955  0.41045  0.25000  1.0000 0.575053617
C   C3        1.0  0.58955  0.17910  0.25000  1.0000 0.5746417489
C   C4        1.0  0.17910  0.58955  0.75000  1.0000 0.575053617
C   C5        1.0  0.41045  0.58955  0.75000  1.0000 0.575053617
C   C6        1.0  0.41045  0.82090  0.75000  1.0000 0.575053617
C   C7        1.0  0.92210  0.46105  0.25000  1.0000 0.0235852257
C   C8        1.0  0.53895  0.46105  0.25000  1.0000 0.0235852257
C   C9        1.0  0.53895  0.07790  0.25000  1.0000 0.0235852257
C   C10       1.0  0.07790  0.53895  0.75000  1.0000 0.0235852257
C   C11       1.0  0.46105  0.53895  0.75000  1.0000 0.0235852257
C   C12       1.0  0.46105  0.92210  0.75000  1.0000 0.0235852257
C   C13       1.0  0.96900  0.45770  0.32950  1.0000 -0.2099270228
C   C14       1.0  0.54230  0.51130  0.32950  1.0000 -0.2099270228
C   C15       1.0  0.48870  0.03100  0.32950  1.0000 -0.2099270228
C   C16       1.0  0.54230  0.03100  0.17050  1.0000 -0.2099270228
C   C17       1.0  0.96900  0.51130  0.17050  1.0000 -0.2099270228
C   C18       1.0  0.48870  0.45770  0.17050  1.0000 -0.2099270228
C   C19       1.0  0.03100  0.54230  0.67050  1.0000 -0.2099270228
C   C20       1.0  0.45770  0.48870  0.67050  1.0000 -0.2099270228
C   C21       1.0  0.51130  0.96900  0.67050  1.0000 -0.2099270228
C   C22       1.0  0.45770  0.96900  0.82950  1.0000 -0.2099270228
C   C23       1.0  0.03100  0.48870  0.82950  1.0000 -0.2099270228
C   C24       1.0  0.51130  0.54230  0.82950  1.0000 -0.2099270228
C   C25       1.0  0.06180  0.50410  0.32860  1.0000 0.183656943
C   C26       1.0  0.49590  0.55770  0.32860  1.0000 0.183656943
C   C27       1.0  0.44230  0.93820  0.32860  1.0000 0.183656943
C   C28       1.0  0.49590  0.93820  0.17140  1.0000 0.183656943
C   C29       1.0  0.06180  0.55770  0.17140  1.0000 0.183656943
C   C30       1.0  0.44230  0.50410  0.17140  1.0000 0.183656943
C   C31       1.0  0.93820  0.49590  0.67140  1.0000 0.183656943
C   C32       1.0  0.50410  0.44230  0.67140  1.0000 0.183656943
C   C33       1.0  0.55770  0.06180  0.67140  1.0000 0.183656943
C   C34       1.0  0.50410  0.06180  0.82860  1.0000 0.183656943
C   C35       1.0  0.93820  0.44230  0.82860  1.0000 0.183656943
C   C36       1.0  0.55770  0.49590  0.82860  1.0000 0.183656943
C   C37       1.0  0.10850  0.55425  0.25000  1.0000 -0.2741151665
C   C38       1.0  0.44575  0.55425  0.25000  1.0000 -0.2752724443
C   C39       1.0  0.44575  0.89150  0.25000  1.0000 -0.2741151665
C   C40       1.0  0.89150  0.44575  0.75000  1.0000 -0.2741151665
C   C41       1.0  0.55425  0.44575  0.75000  1.0000 -0.2741151665
C   C42       1.0  0.55425  0.10850  0.75000  1.0000 -0.2741151665
C   C43       1.0  0.18800  0.57550  0.44130  1.0000 0.1100221311
C   C44       1.0  0.42450  0.61250  0.44130  1.0000 0.1100221311
C   C45       1.0  0.38750  0.81200  0.44130  1.0000 0.1100221311
C   C46       1.0  0.42450  0.81200  0.05870  1.0000 0.1100221311
C   C47       1.0  0.18800  0.61250  0.05870  1.0000 0.1100221311
C   C48       1.0  0.38750  0.57550  0.05870  1.0000 0.1100221311
C   C49       1.0  0.81200  0.42450  0.55870  1.0000 0.1100221311
C   C50       1.0  0.57550  0.38750  0.55870  1.0000 0.1100221311
C   C51       1.0  0.61250  0.18800  0.55870  1.0000 0.1100221311
C   C52       1.0  0.57550  0.18800  0.94130  1.0000 0.1100221311
C   C53       1.0  0.81200  0.38750  0.94130  1.0000 0.1100221311
C   C54       1.0  0.61250  0.42450  0.94130  1.0000 0.1100221311
C   C55       1.0  0.09990  0.42900  0.46180  1.0000 0.0878282459
C   C56       1.0  0.57100  0.67090  0.46180  1.0000 0.0878282459
C   C57       1.0  0.32910  0.90010  0.46180  1.0000 0.0878282459
C   C58       1.0  0.57100  0.90010  0.03820  1.0000 0.0878282459
C   C59       1.0  0.09990  0.67090  0.03820  1.0000 0.0878282459
C   C60       1.0  0.32910  0.42900  0.03820  1.0000 0.0878282459
C   C61       1.0  0.90010  0.57100  0.53820  1.0000 0.0878282459
C   C62       1.0  0.42900  0.32910  0.53820  1.0000 0.0878282459
C   C63       1.0  0.67090  0.09990  0.53820  1.0000 0.0878282459
C   C64       1.0  0.42900  0.09990  0.96180  1.0000 0.0878282459
C   C65       1.0  0.90010  0.32910  0.96180  1.0000 0.0878282459
C   C66       1.0  0.67090  0.57100  0.96180  1.0000 0.0878282459
C   C67       1.0  0.03730  0.33770  0.45720  1.0000 -0.1962050849
C   C68       1.0  0.66230  0.69960  0.45720  1.0000 -0.1962050849
C   C69       1.0  0.30040  0.96270  0.45720  1.0000 -0.1962050849
C   C70       1.0  0.66230  0.96270  0.04280  1.0000 -0.1962050849
C   C71       1.0  0.03730  0.69960  0.04280  1.0000 -0.1962050849
C   C72       1.0  0.30040  0.33770  0.04280  1.0000 -0.1962050849
C   C73       1.0  0.96270  0.66230  0.54280  1.0000 -0.1962050849
C   C74       1.0  0.33770  0.30040  0.54280  1.0000 -0.1962050849
C   C75       1.0  0.69960  0.03730  0.54280  1.0000 -0.1962050849
C   C76       1.0  0.33770  0.03730  0.95720  1.0000 -0.1962050849
C   C77       1.0  0.96270  0.30040  0.95720  1.0000 -0.1962050849
C   C78       1.0  0.69960  0.66230  0.95720  1.0000 -0.1962050849
C   C79       1.0  0.04870  0.28250  0.52030  1.0000 -0.1100522637
C   C80       1.0  0.71750  0.76620  0.52030  1.0000 -0.1100522637
C   C81       1.0  0.23380  0.95130  0.52030  1.0000 -0.1100522637
C   C82       1.0  0.71750  0.95130  0.97970  1.0000 -0.1100522637
C   C83       1.0  0.04870  0.76620  0.97970  1.0000 -0.1100522637
C   C84       1.0  0.23380  0.28250  0.97970  1.0000 -0.1100522637
C   C85       1.0  0.95130  0.71750  0.47970  1.0000 -0.1100522637
C   C86       1.0  0.28250  0.23380  0.47970  1.0000 -0.1100522637
C   C87       1.0  0.76620  0.04870  0.47970  1.0000 -0.1100522637
C   C88       1.0  0.28250  0.04870  0.02030  1.0000 -0.1100522637
C   C89       1.0  0.95130  0.23380  0.02030  1.0000 -0.1100522637
C   C90       1.0  0.76620  0.71750  0.02030  1.0000 -0.1100522637
C   C91       1.0  0.11890  0.31690  0.58600  1.0000 -0.1278914366
C   C92       1.0  0.68310  0.80200  0.58600  1.0000 -0.1278914366
C   C93       1.0  0.19800  0.88110  0.58600  1.0000 -0.1278914366
C   C94       1.0  0.68310  0.88110  0.91400  1.0000 -0.1278914366
C   C95       1.0  0.11890  0.80200  0.91400  1.0000 -0.1278914366
C   C96       1.0  0.19800  0.31690  0.91400  1.0000 -0.1278914366
C   C97       1.0  0.88110  0.68310  0.41400  1.0000 -0.1278914366
C   C98       1.0  0.31690  0.19800  0.41400  1.0000 -0.1278914366
C   C99       1.0  0.80200  0.11890  0.41400  1.0000 -0.1278914366
C   C100      1.0  0.31690  0.11890  0.08600  1.0000 -0.1278914366
C   C101      1.0  0.88110  0.19800  0.08600  1.0000 -0.1278914366
C   C102      1.0  0.80200  0.68310  0.08600  1.0000 -0.1278914366
C   C103      1.0  0.18210  0.40760  0.58980  1.0000 -0.1649989192
C   C104      1.0  0.59240  0.77450  0.58980  1.0000 -0.1653955136
C   C105      1.0  0.22550  0.81790  0.58980  1.0000 -0.1653955136
C   C106      1.0  0.59240  0.81790  0.91020  1.0000 -0.1653955136
C   C107      1.0  0.18210  0.77450  0.91020  1.0000 -0.1649989192
C   C108      1.0  0.22550  0.40760  0.91020  1.0000 -0.1649989192
C   C109      1.0  0.81790  0.59240  0.41020  1.0000 -0.1649989192
C   C110      1.0  0.40760  0.22550  0.41020  1.0000 -0.1649989192
C   C111      1.0  0.77450  0.18210  0.41020  1.0000 -0.1653955136
C   C112      1.0  0.40760  0.18210  0.08980  1.0000 -0.1653955136
C   C113      1.0  0.81790  0.22550  0.08980  1.0000 -0.1649989192
C   C114      1.0  0.77450  0.59240  0.08980  1.0000 -0.1649989192
C   C115      1.0  0.17240  0.46420  0.52560  1.0000 0.1371333111
C   C116      1.0  0.53580  0.70820  0.52560  1.0000 0.1371333111
C   C117      1.0  0.29180  0.82760  0.52560  1.0000 0.1371333111
C   C118      1.0  0.53580  0.82760  0.97440  1.0000 0.1371333111
C   C119      1.0  0.17240  0.70820  0.97440  1.0000 0.1371333111
C   C120      1.0  0.29180  0.46420  0.97440  1.0000 0.1371333111
C   C121      1.0  0.82760  0.53580  0.47440  1.0000 0.1371333111
C   C122      1.0  0.46420  0.29180  0.47440  1.0000 0.1371333111
C   C123      1.0  0.70820  0.17240  0.47440  1.0000 0.1371333111
C   C124      1.0  0.46420  0.17240  0.02560  1.0000 0.1371333111
C   C125      1.0  0.82760  0.29180  0.02560  1.0000 0.1371333111
C   C126      1.0  0.70820  0.53580  0.02560  1.0000 0.1371333111
N   N1        1.0  0.11140  0.50260  0.40810  1.0000 -0.0541532019
N   N2        1.0  0.49740  0.60880  0.40810  1.0000 -0.0541532019
N   N3        1.0  0.39120  0.88860  0.40810  1.0000 -0.0541532019
N   N4        1.0  0.49740  0.88860  0.09190  1.0000 -0.0541532019
N   N5        1.0  0.11140  0.60880  0.09190  1.0000 -0.0541532019
N   N6        1.0  0.39120  0.50260  0.09190  1.0000 -0.0541532019
N   N7        1.0  0.88860  0.49740  0.59190  1.0000 -0.0541532019
N   N8        1.0  0.50260  0.39120  0.59190  1.0000 -0.0541532019
N   N9        1.0  0.60880  0.11140  0.59190  1.0000 -0.0541532019
N   N10       1.0  0.50260  0.11140  0.90810  1.0000 -0.0541532019
N   N11       1.0  0.88860  0.39120  0.90810  1.0000 -0.0541532019
N   N12       1.0  0.60880  0.49740  0.90810  1.0000 -0.0541532019
N   N13       1.0  0.22680  0.55680  0.51120  1.0000 -0.3504048143
N   N14       1.0  0.44320  0.67000  0.51120  1.0000 -0.3504048143
N   N15       1.0  0.33000  0.77320  0.51120  1.0000 -0.3504048143
N   N16       1.0  0.44320  0.77320  0.98880  1.0000 -0.3504048143
N   N17       1.0  0.22680  0.67000  0.98880  1.0000 -0.3504048143
N   N18       1.0  0.33000  0.55680  0.98880  1.0000 -0.3504048143
N   N19       1.0  0.77320  0.44320  0.48880  1.0000 -0.3504048143
N   N20       1.0  0.55680  0.33000  0.48880  1.0000 -0.3504048143
N   N21       1.0  0.67000  0.22680  0.48880  1.0000 -0.3504048143
N   N22       1.0  0.55680  0.22680  0.01120  1.0000 -0.3504048143
N   N23       1.0  0.77320  0.33000  0.01120  1.0000 -0.3504048143
N   N24       1.0  0.67000  0.44320  0.01120  1.0000 -0.3504048143
O   O1        1.0  0.78342  0.42654  0.18241  1.0000 -0.5458737169
O   O2        1.0  0.57346  0.35688  0.18241  1.0000 -0.5458737169
O   O3        1.0  0.64312  0.21658  0.18241  1.0000 -0.5458737169
O   O4        1.0  0.57346  0.21658  0.31759  1.0000 -0.5458737169
O   O5        1.0  0.78342  0.35688  0.31759  1.0000 -0.5458737169
O   O6        1.0  0.64312  0.42654  0.31759  1.0000 -0.5458737169
O   O7        1.0  0.21658  0.57346  0.81759  1.0000 -0.5458737169
O   O8        1.0  0.42654  0.64312  0.81759  1.0000 -0.5458737169
O   O9        1.0  0.35688  0.78342  0.81759  1.0000 -0.5458737169
O   O10       1.0  0.42654  0.78342  0.68241  1.0000 -0.5458737169
O   O11       1.0  0.21658  0.64312  0.68241  1.0000 -0.5458737169
O   O12       1.0  0.35688  0.57346  0.68241  1.0000 -0.5458737169
