# DDEC6 charges by PACMAN v1.1 (https://github.com/mtap-research/PACMAN-charge/)
data_2014[Cu][tbo]3[ASR]13
_chemical_formula_sum              "Cu12 H24 C72 O48"
_cell_length_a       18.6162
_cell_length_b       18.6162
_cell_length_c       18.6162
_cell_angle_alpha    60
_cell_angle_beta     60
_cell_angle_gamma    60

_symmetry_space_group_name_H-M    "P 1"
_symmetry_Int_Tables_number       1

loop_
  _symmetry_equiv_pos_as_xyz
  'x, y, z'

loop_
  _atom_site_type_symbol
  _atom_site_label
  _atom_site_symmetry_multiplicity
  _atom_site_fract_x
  _atom_site_fract_y
  _atom_site_fract_z
  _atom_site_occupancy
  _atom_site_charge
Cu  Cu1       1.0  0.00000  0.00000  0.57004  1.0000 0.8537437181
Cu  Cu2       1.0  0.57004  0.42996  0.00000  1.0000 0.8537437181
Cu  Cu3       1.0  0.00000  0.00000  0.42996  1.0000 0.8537437181
Cu  Cu4       1.0  0.42996  0.57004  0.00000  1.0000 0.8537437181
Cu  Cu5       1.0  0.00000  0.57004  0.00000  1.0000 0.8537437181
Cu  Cu6       1.0  0.42996  0.00000  0.57004  1.0000 0.8537437181
Cu  Cu7       1.0  0.00000  0.42996  0.57004  1.0000 0.8537437181
Cu  Cu8       1.0  0.57004  0.00000  0.00000  1.0000 0.8537437181
Cu  Cu9       1.0  0.57004  0.00000  0.42996  1.0000 0.8537437181
Cu  Cu10      1.0  0.42996  0.00000  0.00000  1.0000 0.8537437181
Cu  Cu11      1.0  0.00000  0.42996  0.00000  1.0000 0.8537437181
Cu  Cu12      1.0  0.00000  0.57004  0.42996  1.0000 0.8537437181
H   H1        1.0  0.27160  0.96980  0.27160  1.0000 0.1361228263
H   H2        1.0  0.51300  0.72840  0.72840  1.0000 0.1361228263
H   H3        1.0  0.96980  0.27160  0.48700  1.0000 0.1361228263
H   H4        1.0  0.72840  0.51300  0.03020  1.0000 0.1361228263
H   H5        1.0  0.03020  0.51300  0.72840  1.0000 0.1361228263
H   H6        1.0  0.48700  0.27160  0.96980  1.0000 0.1361228263
H   H7        1.0  0.72840  0.72840  0.51300  1.0000 0.1361228263
H   H8        1.0  0.03020  0.72840  0.51300  1.0000 0.1361228263
H   H9        1.0  0.27160  0.48700  0.27160  1.0000 0.1361228263
H   H10       1.0  0.51300  0.72840  0.03020  1.0000 0.1361228263
H   H11       1.0  0.27160  0.27160  0.96980  1.0000 0.1361228263
H   H12       1.0  0.96980  0.27160  0.27160  1.0000 0.1361228263
H   H13       1.0  0.27160  0.96980  0.48700  1.0000 0.1361228263
H   H14       1.0  0.48700  0.96980  0.27160  1.0000 0.1361228263
H   H15       1.0  0.27160  0.48700  0.96980  1.0000 0.1361228263
H   H16       1.0  0.27160  0.27160  0.48700  1.0000 0.1361228263
H   H17       1.0  0.96980  0.48700  0.27160  1.0000 0.1361228263
H   H18       1.0  0.48700  0.27160  0.27160  1.0000 0.1361228263
H   H19       1.0  0.72840  0.03020  0.51300  1.0000 0.1361228263
H   H20       1.0  0.03020  0.72840  0.72840  1.0000 0.1361228263
H   H21       1.0  0.51300  0.03020  0.72840  1.0000 0.1361228263
H   H22       1.0  0.72840  0.72840  0.03020  1.0000 0.1361228263
H   H23       1.0  0.72840  0.51300  0.72840  1.0000 0.1361228263
H   H24       1.0  0.72840  0.03020  0.72840  1.0000 0.1361228263
C   C1        1.0  0.25719  0.96987  0.38647  1.0000 -0.0269676342
C   C2        1.0  0.61353  0.61353  0.74281  1.0000 -0.0269676342
C   C3        1.0  0.96987  0.25719  0.38647  1.0000 -0.0269676342
C   C4        1.0  0.61353  0.61353  0.03013  1.0000 -0.0269676342
C   C5        1.0  0.03013  0.61353  0.74281  1.0000 -0.0269676342
C   C6        1.0  0.38647  0.38647  0.96987  1.0000 -0.0269676342
C   C7        1.0  0.61353  0.74281  0.61353  1.0000 -0.0269676342
C   C8        1.0  0.03013  0.61353  0.61353  1.0000 -0.0269676342
C   C9        1.0  0.38647  0.38647  0.25719  1.0000 -0.0269676342
C   C10       1.0  0.61353  0.74281  0.03013  1.0000 -0.0269676342
C   C11       1.0  0.38647  0.25719  0.96987  1.0000 -0.0269676342
C   C12       1.0  0.96987  0.38647  0.25719  1.0000 -0.0269676342
C   C13       1.0  0.38647  0.96987  0.38647  1.0000 -0.0269676342
C   C14       1.0  0.38647  0.96987  0.25719  1.0000 -0.0269676342
C   C15       1.0  0.25719  0.38647  0.96987  1.0000 -0.0269676342
C   C16       1.0  0.25719  0.38647  0.38647  1.0000 -0.0269676342
C   C17       1.0  0.96987  0.38647  0.38647  1.0000 -0.0269676342
C   C18       1.0  0.38647  0.25719  0.38647  1.0000 -0.0269676342
C   C19       1.0  0.74281  0.03013  0.61353  1.0000 -0.0269676342
C   C20       1.0  0.03013  0.74281  0.61353  1.0000 -0.0269676342
C   C21       1.0  0.61353  0.03013  0.61353  1.0000 -0.0269676342
C   C22       1.0  0.74281  0.61353  0.03013  1.0000 -0.0269676342
C   C23       1.0  0.74281  0.61353  0.61353  1.0000 -0.0269676342
C   C24       1.0  0.61353  0.03013  0.74281  1.0000 -0.0269676342
C   C25       1.0  0.16226  0.97586  0.43094  1.0000 0.5833982736
C   C26       1.0  0.56906  0.56906  0.83774  1.0000 0.5833982736
C   C27       1.0  0.97586  0.16226  0.43094  1.0000 0.5833982736
C   C28       1.0  0.56906  0.56906  0.02414  1.0000 0.5833982736
C   C29       1.0  0.02414  0.56906  0.83774  1.0000 0.5833982736
C   C30       1.0  0.43094  0.43094  0.97586  1.0000 0.5833982736
C   C31       1.0  0.56906  0.83774  0.56906  1.0000 0.5833982736
C   C32       1.0  0.02414  0.56906  0.56906  1.0000 0.5833982736
C   C33       1.0  0.43094  0.43094  0.16226  1.0000 0.5833982736
C   C34       1.0  0.56906  0.83774  0.02414  1.0000 0.5833982736
C   C35       1.0  0.43094  0.16226  0.97586  1.0000 0.5833982736
C   C36       1.0  0.97586  0.43094  0.16226  1.0000 0.5833982736
C   C37       1.0  0.43094  0.97586  0.43094  1.0000 0.5833982736
C   C38       1.0  0.43094  0.97586  0.16226  1.0000 0.5833982736
C   C39       1.0  0.16226  0.43094  0.97586  1.0000 0.5833982736
C   C40       1.0  0.16226  0.43094  0.43094  1.0000 0.5833982736
C   C41       1.0  0.97586  0.43094  0.43094  1.0000 0.5833982736
C   C42       1.0  0.43094  0.16226  0.43094  1.0000 0.5833982736
C   C43       1.0  0.83774  0.02414  0.56906  1.0000 0.5833982736
C   C44       1.0  0.02414  0.83774  0.56906  1.0000 0.5833982736
C   C45       1.0  0.56906  0.02414  0.56906  1.0000 0.5833982736
C   C46       1.0  0.83774  0.56906  0.02414  1.0000 0.5833982736
C   C47       1.0  0.83774  0.56906  0.56906  1.0000 0.5833982736
C   C48       1.0  0.56906  0.02414  0.83774  1.0000 0.5833982736
C   C49       1.0  0.30044  0.96988  0.30044  1.0000 -0.0842174716
C   C50       1.0  0.57076  0.69956  0.69956  1.0000 -0.0842174716
C   C51       1.0  0.96988  0.30044  0.42924  1.0000 -0.0842174716
C   C52       1.0  0.69956  0.57076  0.03012  1.0000 -0.0842174716
C   C53       1.0  0.03012  0.57076  0.69956  1.0000 -0.0842174716
C   C54       1.0  0.42924  0.30044  0.96988  1.0000 -0.0842174716
C   C55       1.0  0.69956  0.69956  0.57076  1.0000 -0.0842174716
C   C56       1.0  0.03012  0.69956  0.57076  1.0000 -0.0842174716
C   C57       1.0  0.30044  0.42924  0.30044  1.0000 -0.0842174716
C   C58       1.0  0.57076  0.69956  0.03012  1.0000 -0.0842174716
C   C59       1.0  0.30044  0.30044  0.96988  1.0000 -0.0842174716
C   C60       1.0  0.96988  0.30044  0.30044  1.0000 -0.0842174716
C   C61       1.0  0.30044  0.96988  0.42924  1.0000 -0.0842174716
C   C62       1.0  0.42924  0.96988  0.30044  1.0000 -0.0842174716
C   C63       1.0  0.30044  0.42924  0.96988  1.0000 -0.0842174716
C   C64       1.0  0.30044  0.30044  0.42924  1.0000 -0.0842174716
C   C65       1.0  0.96988  0.42924  0.30044  1.0000 -0.0842174716
C   C66       1.0  0.42924  0.30044  0.30044  1.0000 -0.0842174716
C   C67       1.0  0.69956  0.03012  0.57076  1.0000 -0.0842174716
C   C68       1.0  0.03012  0.69956  0.69956  1.0000 -0.0842174716
C   C69       1.0  0.57076  0.03012  0.69956  1.0000 -0.0842174716
C   C70       1.0  0.69956  0.69956  0.03012  1.0000 -0.0842174716
C   C71       1.0  0.69956  0.57076  0.69956  1.0000 -0.0842174716
C   C72       1.0  0.69956  0.03012  0.69956  1.0000 -0.0842174716
O   O1        1.0  0.12592  0.97936  0.50758  1.0000 -0.5176039266
O   O2        1.0  0.61286  0.49242  0.87408  1.0000 -0.5176039266
O   O3        1.0  0.97936  0.12592  0.38714  1.0000 -0.5176039266
O   O4        1.0  0.49242  0.61286  0.02064  1.0000 -0.5176039266
O   O5        1.0  0.02064  0.61286  0.87408  1.0000 -0.5176039266
O   O6        1.0  0.38714  0.50758  0.97936  1.0000 -0.5176039266
O   O7        1.0  0.49242  0.87408  0.61286  1.0000 -0.5176039266
O   O8        1.0  0.02064  0.49242  0.61286  1.0000 -0.5176039266
O   O9        1.0  0.50758  0.38714  0.12592  1.0000 -0.5176039266
O   O10       1.0  0.61286  0.87408  0.02064  1.0000 -0.5176039266
O   O11       1.0  0.50758  0.12592  0.97936  1.0000 -0.5176039266
O   O12       1.0  0.97936  0.50758  0.12592  1.0000 -0.5176039266
O   O13       1.0  0.50758  0.97936  0.38714  1.0000 -0.5176039266
O   O14       1.0  0.38714  0.97936  0.12592  1.0000 -0.5176039266
O   O15       1.0  0.12592  0.38714  0.97936  1.0000 -0.5176039266
O   O16       1.0  0.12592  0.50758  0.38714  1.0000 -0.5176039266
O   O17       1.0  0.97936  0.38714  0.50758  1.0000 -0.5176039266
O   O18       1.0  0.38714  0.12592  0.50758  1.0000 -0.5176039266
O   O19       1.0  0.87408  0.02064  0.61286  1.0000 -0.5176039266
O   O20       1.0  0.02064  0.87408  0.49242  1.0000 -0.5176039266
O   O21       1.0  0.61286  0.02064  0.49242  1.0000 -0.5176039266
O   O22       1.0  0.87408  0.49242  0.02064  1.0000 -0.5176039266
O   O23       1.0  0.87408  0.61286  0.49242  1.0000 -0.5176039266
O   O24       1.0  0.49242  0.02064  0.87408  1.0000 -0.5176039266
O   O25       1.0  0.87408  0.02064  0.49242  1.0000 -0.5176039266
O   O26       1.0  0.38714  0.50758  0.12592  1.0000 -0.5176039266
O   O27       1.0  0.02064  0.87408  0.61286  1.0000 -0.5176039266
O   O28       1.0  0.50758  0.38714  0.97936  1.0000 -0.5176039266
O   O29       1.0  0.97936  0.38714  0.12592  1.0000 -0.5176039266
O   O30       1.0  0.61286  0.49242  0.02064  1.0000 -0.5176039266
O   O31       1.0  0.50758  0.12592  0.38714  1.0000 -0.5176039266
O   O32       1.0  0.97936  0.50758  0.38714  1.0000 -0.5176039266
O   O33       1.0  0.49242  0.61286  0.87408  1.0000 -0.5176039266
O   O34       1.0  0.38714  0.12592  0.97936  1.0000 -0.5176039266
O   O35       1.0  0.49242  0.87408  0.02064  1.0000 -0.5176039266
O   O36       1.0  0.02064  0.49242  0.87408  1.0000 -0.5176039266
O   O37       1.0  0.49242  0.02064  0.61286  1.0000 -0.5176039266
O   O38       1.0  0.61286  0.02064  0.87408  1.0000 -0.5176039266
O   O39       1.0  0.87408  0.61286  0.02064  1.0000 -0.5176039266
O   O40       1.0  0.87408  0.49242  0.61286  1.0000 -0.5176039266
O   O41       1.0  0.02064  0.61286  0.49242  1.0000 -0.5176039266
O   O42       1.0  0.61286  0.87408  0.49242  1.0000 -0.5176039266
O   O43       1.0  0.12592  0.97936  0.38714  1.0000 -0.5176039266
O   O44       1.0  0.97936  0.12592  0.50758  1.0000 -0.5176039266
O   O45       1.0  0.38714  0.97936  0.50758  1.0000 -0.5176039266
O   O46       1.0  0.12592  0.50758  0.97936  1.0000 -0.5176039266
O   O47       1.0  0.12592  0.38714  0.50758  1.0000 -0.5176039266
O   O48       1.0  0.50758  0.97936  0.12592  1.0000 -0.5176039266
