# DDEC6 charges by PACMAN v1.1 (https://github.com/mtap-research/PACMAN-charge/)
data_2014[Cu][lvt]3[ASR]1
_chemical_formula_sum              "Cu8 H16 C32 N16 O16"
_cell_length_a       15.7211
_cell_length_b       15.7211
_cell_length_c       15.7211
_cell_angle_alpha    109.894
_cell_angle_beta     109.894
_cell_angle_gamma    108.629

_symmetry_space_group_name_H-M    "P 1"
_symmetry_Int_Tables_number       1

loop_
  _symmetry_equiv_pos_as_xyz
  'x, y, z'

loop_
  _atom_site_type_symbol
  _atom_site_label
  _atom_site_symmetry_multiplicity
  _atom_site_fract_x
  _atom_site_fract_y
  _atom_site_fract_z
  _atom_site_occupancy
  _atom_site_charge
Cu  Cu1       1.0  0.96017  0.16077  0.18656  1.0000 0.7194452065
Cu  Cu2       1.0  0.91077  0.22421  0.70060  1.0000 0.7194452065
Cu  Cu3       1.0  0.97421  0.77361  0.81344  1.0000 0.7194452065
Cu  Cu4       1.0  0.52361  0.21017  0.29940  1.0000 0.7194452065
Cu  Cu5       1.0  0.78983  0.08923  0.31344  1.0000 0.7194452065
Cu  Cu6       1.0  0.83923  0.02579  0.79940  1.0000 0.7194452065
Cu  Cu7       1.0  0.77579  0.47639  0.68656  1.0000 0.7194452065
Cu  Cu8       1.0  0.22639  0.03983  0.20060  1.0000 0.7194452065
H   H1        1.0  0.15230  0.33680  0.57910  1.0000 0.1469145942
H   H2        1.0  0.08680  0.00770  0.68450  1.0000 0.1469145942
H   H3        1.0  0.75770  0.57320  0.42090  1.0000 0.1469145942
H   H4        1.0  0.32320  0.40230  0.31550  1.0000 0.1469145942
H   H5        1.0  0.59770  0.91320  0.92090  1.0000 0.1469145942
H   H6        1.0  0.66320  0.24230  0.81550  1.0000 0.1469145942
H   H7        1.0  0.99230  0.67680  0.07910  1.0000 0.1469145942
H   H8        1.0  0.42680  0.84770  0.18450  1.0000 0.1469145942
H   H9        1.0  0.16030  0.30470  0.41700  1.0000 0.1195342422
H   H10       1.0  0.05470  0.13770  0.64440  1.0000 0.1195342422
H   H11       1.0  0.88770  0.74330  0.58300  1.0000 0.1195342422
H   H12       1.0  0.49330  0.41030  0.35560  1.0000 0.1195342422
H   H13       1.0  0.58970  0.94530  0.08300  1.0000 0.1195342422
H   H14       1.0  0.69530  0.11230  0.85560  1.0000 0.1195342422
H   H15       1.0  0.86230  0.50670  0.91700  1.0000 0.1195342422
H   H16       1.0  0.25670  0.83970  0.14440  1.0000 0.1195342422
C   C1        1.0  0.93130  0.21110  0.52640  1.0000 0.5605779219
C   C2        1.0  0.96110  0.93470  0.77980  1.0000 0.5605779219
C   C3        1.0  0.68470  0.40490  0.47360  1.0000 0.5605779219
C   C4        1.0  0.15490  0.18130  0.22020  1.0000 0.5605779219
C   C5        1.0  0.81870  0.03890  0.97360  1.0000 0.5605779219
C   C6        1.0  0.78890  0.31530  0.72020  1.0000 0.5605779219
C   C7        1.0  0.06530  0.84510  0.02640  1.0000 0.5605779219
C   C8        1.0  0.59510  0.06870  0.27980  1.0000 0.5605779219
C   C9        1.0  0.09750  0.29320  0.51050  1.0000 -0.2057882544
C   C10       1.0  0.04320  0.03270  0.69570  1.0000 -0.2049367276
C   C11       1.0  0.78270  0.58700  0.48950  1.0000 -0.2057882544
C   C12       1.0  0.33700  0.34750  0.30430  1.0000 -0.2049367276
C   C13       1.0  0.65250  0.95680  0.98950  1.0000 -0.2057882544
C   C14       1.0  0.70680  0.21730  0.80430  1.0000 -0.2049367276
C   C15       1.0  0.96730  0.66300  0.01050  1.0000 -0.2057882544
C   C16       1.0  0.41300  0.90250  0.19570  1.0000 -0.2057882544
C   C17       1.0  0.10060  0.27420  0.41960  1.0000 -0.0029053784
C   C18       1.0  0.02420  0.10460  0.67360  1.0000 -0.0029053784
C   C19       1.0  0.85460  0.68100  0.58040  1.0000 -0.0029053784
C   C20       1.0  0.43100  0.35060  0.32640  1.0000 -0.0029053784
C   C21       1.0  0.64940  0.97580  0.08040  1.0000 -0.0029053784
C   C22       1.0  0.72580  0.14540  0.82640  1.0000 -0.0029053784
C   C23       1.0  0.89540  0.56900  0.91960  1.0000 -0.0029053784
C   C24       1.0  0.31900  0.89940  0.17360  1.0000 -0.0029053784
C   C25       1.0  0.99260  0.23160  0.47540  1.0000 0.0408721271
C   C26       1.0  0.98160  0.00620  0.73900  1.0000 0.0408721271
C   C27       1.0  0.75620  0.51720  0.52460  1.0000 0.0408721271
C   C28       1.0  0.26720  0.24260  0.26100  1.0000 0.0408721271
C   C29       1.0  0.75740  0.01840  0.02460  1.0000 0.0408721271
C   C30       1.0  0.76840  0.24380  0.76100  1.0000 0.0408721271
C   C31       1.0  0.99380  0.73280  0.97540  1.0000 0.0408721271
C   C32       1.0  0.48280  0.00740  0.23900  1.0000 0.0408721271
N   N1        1.0  0.93770  0.17890  0.36900  1.0000 -0.2234162667
N   N2        1.0  0.92890  0.05990  0.74120  1.0000 -0.2234162667
N   N3        1.0  0.80990  0.56870  0.63100  1.0000 -0.2234162667
N   N4        1.0  0.31870  0.18770  0.25880  1.0000 -0.2234162667
N   N5        1.0  0.81230  0.07110  0.13100  1.0000 -0.2234162667
N   N6        1.0  0.82110  0.19010  0.75880  1.0000 -0.2234162667
N   N7        1.0  0.94010  0.68130  0.86900  1.0000 -0.2234162667
N   N8        1.0  0.43130  0.06230  0.24120  1.0000 -0.2234162667
N   N9        1.0  0.00440  0.20480  0.33460  1.0000 -0.1756562736
N   N10       1.0  0.95480  0.12020  0.70040  1.0000 -0.1756562736
N   N11       1.0  0.87020  0.66980  0.66540  1.0000 -0.1756562736
N   N12       1.0  0.41980  0.25440  0.29960  1.0000 -0.1756562736
N   N13       1.0  0.74560  0.04520  0.16540  1.0000 -0.1756562736
N   N14       1.0  0.79520  0.12980  0.79960  1.0000 -0.1756562736
N   N15       1.0  0.87980  0.58020  0.83460  1.0000 -0.1756562736
N   N16       1.0  0.33020  0.99560  0.20040  1.0000 -0.1756562736
O   O1        1.0  0.83646  0.14636  0.46690  1.0000 -0.4980783012
O   O2        1.0  0.89636  0.92946  0.80990  1.0000 -0.4980783012
O   O3        1.0  0.67946  0.36956  0.53310  1.0000 -0.4980783012
O   O4        1.0  0.11956  0.08646  0.19010  1.0000 -0.4980783012
O   O5        1.0  0.91354  0.10364  0.03310  1.0000 -0.4980783012
O   O6        1.0  0.85364  0.32054  0.69010  1.0000 -0.4980783012
O   O7        1.0  0.07054  0.88044  0.96690  1.0000 -0.4980783012
O   O8        1.0  0.63044  0.16354  0.30990  1.0000 -0.4980783012
O   O9        1.0  0.97923  0.25753  0.62480  1.0000 -0.4818189402
O   O10       1.0  0.00753  0.88273  0.77830  1.0000 -0.4818189402
O   O11       1.0  0.63273  0.35443  0.37520  1.0000 -0.4818189402
O   O12       1.0  0.10443  0.22923  0.22170  1.0000 -0.4818189402
O   O13       1.0  0.77077  0.99247  0.87520  1.0000 -0.4818189402
O   O14       1.0  0.74247  0.36727  0.72170  1.0000 -0.4818189402
O   O15       1.0  0.11727  0.89557  0.12480  1.0000 -0.4818189402
O   O16       1.0  0.64557  0.02077  0.27830  1.0000 -0.4818189402
