# DDEC6 charges by PACMAN v1.1 (https://github.com/mtap-research/PACMAN-charge/)
data_2014[Zn][nan]2[ASR]2
_chemical_formula_sum              "Zn8 H164 C216 N56 O4"
_cell_length_a       23.0166
_cell_length_b       23.0166
_cell_length_c       16.278
_cell_angle_alpha    75.0388
_cell_angle_beta     104.961
_cell_angle_gamma    99.5885

_symmetry_space_group_name_H-M    "P 1"
_symmetry_Int_Tables_number       1

loop_
  _symmetry_equiv_pos_as_xyz
  'x, y, z'

loop_
  _atom_site_type_symbol
  _atom_site_label
  _atom_site_symmetry_multiplicity
  _atom_site_fract_x
  _atom_site_fract_y
  _atom_site_fract_z
  _atom_site_occupancy
  _atom_site_charge
Zn  Zn1       1.0  0.67196  0.90812  0.27607  1.0000 0.6964984913
Zn  Zn2       1.0  0.90812  0.67196  0.22393  1.0000 0.6964984913
Zn  Zn3       1.0  0.32804  0.09188  0.72393  1.0000 0.6964984913
Zn  Zn4       1.0  0.09188  0.32804  0.77607  1.0000 0.6964984913
Zn  Zn5       1.0  0.32961  0.08853  0.51210  1.0000 0.6964984913
Zn  Zn6       1.0  0.08853  0.32961  0.98790  1.0000 0.6964984913
Zn  Zn7       1.0  0.67039  0.91147  0.48790  1.0000 0.6964984913
Zn  Zn8       1.0  0.91147  0.67039  0.01210  1.0000 0.6964984913
H   H1        1.0  0.87040  0.07280  0.19440  1.0000 0.120265995
H   H2        1.0  0.07280  0.87040  0.30560  1.0000 0.120265995
H   H3        1.0  0.12960  0.92720  0.80560  1.0000 0.120265995
H   H4        1.0  0.92720  0.12960  0.69440  1.0000 0.120265995
H   H5        1.0  0.68940  0.12940  0.15770  1.0000 0.1287393311
H   H6        1.0  0.12940  0.68940  0.34230  1.0000 0.1287393311
H   H7        1.0  0.31060  0.87060  0.84230  1.0000 0.1287393311
H   H8        1.0  0.87060  0.31060  0.65770  1.0000 0.1287393311
H   H9        1.0  0.16230  0.28570  0.23860  1.0000 0.120265995
H   H10       1.0  0.28570  0.16230  0.26140  1.0000 0.120265995
H   H11       1.0  0.83770  0.71430  0.76140  1.0000 0.120265995
H   H12       1.0  0.71430  0.83770  0.73860  1.0000 0.120265995
H   H13       1.0  0.99750  0.17530  0.33800  1.0000 0.120265995
H   H14       1.0  0.17530  0.99750  0.16200  1.0000 0.120265995
H   H15       1.0  0.00250  0.82470  0.66200  1.0000 0.120265995
H   H16       1.0  0.82470  0.00250  0.83800  1.0000 0.120265995
H   H17       1.0  0.01400  0.36600  0.22880  1.0000 0.120265995
H   H18       1.0  0.36600  0.01400  0.27120  1.0000 0.120265995
H   H19       1.0  0.98600  0.63400  0.77120  1.0000 0.120265995
H   H20       1.0  0.63400  0.98600  0.72880  1.0000 0.120265995
H   H21       1.0  0.22950  0.80550  0.54100  1.0000 0.1287393311
H   H22       1.0  0.80550  0.22950  0.95900  1.0000 0.1287393311
H   H23       1.0  0.77050  0.19450  0.45900  1.0000 0.1287393311
H   H24       1.0  0.19450  0.77050  0.04100  1.0000 0.1287393311
H   H25       1.0  0.86050  0.38910  0.97790  1.0000 0.120265995
H   H26       1.0  0.38910  0.86050  0.52210  1.0000 0.120265995
H   H27       1.0  0.13950  0.61090  0.02210  1.0000 0.120265995
H   H28       1.0  0.61090  0.13950  0.47790  1.0000 0.120265995
H   H29       1.0  0.88280  0.29300  0.05760  1.0000 0.1105974666
H   H30       1.0  0.29300  0.88280  0.44240  1.0000 0.1105974666
H   H31       1.0  0.11720  0.70700  0.94240  1.0000 0.1105974666
H   H32       1.0  0.70700  0.11720  0.55760  1.0000 0.1105974666
H   H33       1.0  0.04050  0.85130  0.53680  1.0000 0.120265995
H   H34       1.0  0.85130  0.04050  0.96320  1.0000 0.120265995
H   H35       1.0  0.95950  0.14870  0.46320  1.0000 0.120265995
H   H36       1.0  0.14870  0.95950  0.03680  1.0000 0.120265995
H   H37       1.0  0.99560  0.46100  0.14490  1.0000 0.120265995
H   H38       1.0  0.46100  0.99560  0.35510  1.0000 0.120265995
H   H39       1.0  0.00440  0.53900  0.85510  1.0000 0.120265995
H   H40       1.0  0.53900  0.00440  0.64490  1.0000 0.120265995
H   H41       1.0  0.93530  0.67990  0.57110  1.0000 0.1287393311
H   H42       1.0  0.67990  0.93530  0.92890  1.0000 0.1287393311
H   H43       1.0  0.06470  0.32010  0.42890  1.0000 0.1287393311
H   H44       1.0  0.32010  0.06470  0.07110  1.0000 0.1287393311
H   H45       1.0  0.12040  0.92480  0.54240  1.0000 0.120265995
H   H46       1.0  0.92480  0.12040  0.95760  1.0000 0.120265995
H   H47       1.0  0.87960  0.07520  0.45760  1.0000 0.120265995
H   H48       1.0  0.07520  0.87960  0.04240  1.0000 0.120265995
H   H49       1.0  0.19240  0.11260  0.40160  1.0000 0.1105974666
H   H50       1.0  0.11260  0.19240  0.09840  1.0000 0.1105974666
H   H51       1.0  0.80760  0.88740  0.59840  1.0000 0.1105974666
H   H52       1.0  0.88740  0.80760  0.90160  1.0000 0.1105974666
H   H53       1.0  0.30190  0.87030  0.64480  1.0000 0.1287393311
H   H54       1.0  0.87030  0.30190  0.85520  1.0000 0.1287393311
H   H55       1.0  0.69810  0.12970  0.35520  1.0000 0.1287393311
H   H56       1.0  0.12970  0.69810  0.14480  1.0000 0.1287393311
H   H57       1.0  0.77520  0.19120  0.23280  1.0000 0.120265995
H   H58       1.0  0.19120  0.77520  0.26720  1.0000 0.120265995
H   H59       1.0  0.22480  0.80880  0.76720  1.0000 0.120265995
H   H60       1.0  0.80880  0.22480  0.73280  1.0000 0.120265995
H   H61       1.0  0.14880  0.73120  0.53390  1.0000 0.120265995
H   H62       1.0  0.73120  0.14880  0.96610  1.0000 0.120265995
H   H63       1.0  0.85120  0.26880  0.46610  1.0000 0.120265995
H   H64       1.0  0.26880  0.85120  0.03390  1.0000 0.120265995
H   H65       1.0  0.86740  0.48480  0.87810  1.0000 0.1287393311
H   H66       1.0  0.48480  0.86740  0.62190  1.0000 0.1287393311
H   H67       1.0  0.13260  0.51520  0.12190  1.0000 0.1287393311
H   H68       1.0  0.51520  0.13260  0.37810  1.0000 0.1287393311
H   H69       1.0  0.06630  0.30790  0.16460  1.0000 0.1105974666
H   H70       1.0  0.30790  0.06630  0.33540  1.0000 0.1105974666
H   H71       1.0  0.93370  0.69210  0.83540  1.0000 0.1105974666
H   H72       1.0  0.69210  0.93370  0.66460  1.0000 0.1105974666
H   H73       1.0  0.62770  0.03230  0.18890  1.0000 0.120265995
H   H74       1.0  0.03230  0.62770  0.31110  1.0000 0.120265995
H   H75       1.0  0.37230  0.96770  0.81110  1.0000 0.120265995
H   H76       1.0  0.96770  0.37230  0.68890  1.0000 0.120265995
H   H77       1.0  0.99740  0.82000  0.39800  1.0000 0.1105974666
H   H78       1.0  0.82000  0.99740  0.10200  1.0000 0.1105974666
H   H79       1.0  0.00260  0.18000  0.60200  1.0000 0.1105974666
H   H80       1.0  0.18000  0.00260  0.89800  1.0000 0.1105974666
H   H81       1.0  0.66120  0.76600  0.29710  1.0000 0.1022021912
H   H82       1.0  0.76600  0.66120  0.20290  1.0000 0.1022021912
H   H83       1.0  0.33880  0.23400  0.70290  1.0000 0.1022021912
H   H84       1.0  0.23400  0.33880  0.79710  1.0000 0.1022021912
H   H85       1.0  0.36640  0.96620  0.62600  1.0000 0.120265995
H   H86       1.0  0.96620  0.36640  0.87400  1.0000 0.120265995
H   H87       1.0  0.63360  0.03380  0.37400  1.0000 0.120265995
H   H88       1.0  0.03380  0.63360  0.12600  1.0000 0.120265995
H   H89       1.0  0.94600  0.54640  0.09240  1.0000 0.1105974666
H   H90       1.0  0.54640  0.94600  0.40760  1.0000 0.1105974666
H   H91       1.0  0.05400  0.45360  0.90760  1.0000 0.1105974666
H   H92       1.0  0.45360  0.05400  0.59240  1.0000 0.1105974666
H   H93       1.0  0.95170  0.14710  0.18530  1.0000 0.120265995
H   H94       1.0  0.14710  0.95170  0.31470  1.0000 0.120265995
H   H95       1.0  0.04830  0.85290  0.81470  1.0000 0.120265995
H   H96       1.0  0.85290  0.04830  0.68530  1.0000 0.120265995
H   H97       1.0  0.20540  0.99280  0.46630  1.0000 0.1022021912
H   H98       1.0  0.99280  0.20540  0.03370  1.0000 0.1022021912
H   H99       1.0  0.79460  0.00720  0.53370  1.0000 0.1022021912
H   H100      1.0  0.00720  0.79460  0.96630  1.0000 0.1022021912
H   H101      1.0  0.83740  0.69940  0.50310  1.0000 0.120265995
H   H102      1.0  0.69940  0.83740  0.99690  1.0000 0.120265995
H   H103      1.0  0.16260  0.30060  0.49690  1.0000 0.120265995
H   H104      1.0  0.30060  0.16260  0.00310  1.0000 0.120265995
H   H105      1.0  0.85570  0.26370  0.22660  1.0000 0.120265995
H   H106      1.0  0.26370  0.85570  0.27340  1.0000 0.1287393311
H   H107      1.0  0.14430  0.73630  0.77340  1.0000 0.120265995
H   H108      1.0  0.73630  0.14430  0.72660  1.0000 0.120265995
H   H109      1.0  0.09340  0.15200  0.41170  1.0000 0.1287393311
H   H110      1.0  0.15200  0.09340  0.08830  1.0000 0.1287393311
H   H111      1.0  0.90660  0.84800  0.58830  1.0000 0.1287393311
H   H112      1.0  0.84800  0.90660  0.91170  1.0000 0.1287393311
H   H113      1.0  0.00480  0.65640  0.44320  1.0000 0.120265995
H   H114      1.0  0.65640  0.00480  0.05680  1.0000 0.120265995
H   H115      1.0  0.99520  0.34360  0.55680  1.0000 0.120265995
H   H116      1.0  0.34360  0.99520  0.94320  1.0000 0.120265995
H   H117      1.0  0.85830  0.59310  0.84840  1.0000 0.120265995
H   H118      1.0  0.59310  0.85830  0.65160  1.0000 0.120265995
H   H119      1.0  0.14170  0.40690  0.15160  1.0000 0.120265995
H   H120      1.0  0.40690  0.14170  0.34840  1.0000 0.120265995
H   H121      1.0  0.07040  0.45860  0.72910  1.0000 0.120265995
H   H122      1.0  0.45860  0.07040  0.77090  1.0000 0.120265995
H   H123      1.0  0.92960  0.54140  0.27090  1.0000 0.120265995
H   H124      1.0  0.54140  0.92960  0.22910  1.0000 0.120265995
H   H125      1.0  0.80860  0.87740  0.34160  1.0000 0.1022021912
H   H126      1.0  0.87740  0.80860  0.15840  1.0000 0.1022021912
H   H127      1.0  0.19140  0.12260  0.65840  1.0000 0.1022021912
H   H128      1.0  0.12260  0.19140  0.84160  1.0000 0.1022021912
H   H129      1.0  0.89850  0.83910  0.32970  1.0000 0.1105974666
H   H130      1.0  0.83910  0.89850  0.17030  1.0000 0.1105974666
H   H131      1.0  0.10150  0.16090  0.67030  1.0000 0.1105974666
H   H132      1.0  0.16090  0.10150  0.82970  1.0000 0.1105974666
H   H133      1.0  0.02720  0.55860  0.47330  1.0000 0.1105974666
H   H134      1.0  0.55860  0.02720  0.02670  1.0000 0.1105974666
H   H135      1.0  0.97280  0.44140  0.52670  1.0000 0.1105974666
H   H136      1.0  0.44140  0.97280  0.97330  1.0000 0.1105974666
H   H137      1.0  0.79880  0.00180  0.27630  1.0000 0.1105974666
H   H138      1.0  0.00180  0.79880  0.22370  1.0000 0.1105974666
H   H139      1.0  0.20120  0.99820  0.72370  1.0000 0.1105974666
H   H140      1.0  0.99820  0.20120  0.77630  1.0000 0.1105974666
H   H141      1.0  0.12420  0.49160  0.50770  1.0000 0.1287393311
H   H142      1.0  0.49160  0.12420  0.99230  1.0000 0.1287393311
H   H143      1.0  0.87580  0.50840  0.49230  1.0000 0.1287393311
H   H144      1.0  0.50840  0.87580  0.00770  1.0000 0.1287393311
H   H145      1.0  0.13550  0.38510  0.58360  1.0000 0.1287393311
H   H146      1.0  0.38510  0.13550  0.91640  1.0000 0.1287393311
H   H147      1.0  0.86450  0.61490  0.41640  1.0000 0.1287393311
H   H148      1.0  0.61490  0.86450  0.08360  1.0000 0.1287393311
H   H149      1.0  0.24630  0.28650  0.38800  1.0000 0.1287393311
H   H150      1.0  0.28650  0.24630  0.11200  1.0000 0.1287393311
H   H151      1.0  0.75370  0.71350  0.61200  1.0000 0.1287393311
H   H152      1.0  0.71350  0.75370  0.88800  1.0000 0.1287393311
H   H153      1.0  0.09370  0.67110  0.68320  1.0000 0.120265995
H   H154      1.0  0.67110  0.09370  0.81680  1.0000 0.120265995
H   H155      1.0  0.90630  0.32890  0.31680  1.0000 0.120265995
H   H156      1.0  0.32890  0.90630  0.18320  1.0000 0.120265995
H   H157      1.0  0.11850  0.57290  0.71400  1.0000 0.1287393311
H   H158      1.0  0.57290  0.11850  0.78600  1.0000 0.1287393311
H   H159      1.0  0.88150  0.42710  0.28600  1.0000 0.1287393311
H   H160      1.0  0.42710  0.88150  0.21400  1.0000 0.1287393311
H   H161      1.0  0.33230  0.22910  0.46520  1.0000 0.1287393311
H   H162      1.0  0.22910  0.33230  0.03480  1.0000 0.1287393311
H   H163      1.0  0.66770  0.77090  0.53480  1.0000 0.1287393311
H   H164      1.0  0.77090  0.66770  0.96520  1.0000 0.1287393311
C   C1        1.0  0.79846  0.78576  0.37060  1.0000 0.0843306188
C   C2        1.0  0.78576  0.79846  0.12940  1.0000 0.0859724347
C   C3        1.0  0.20154  0.21424  0.62940  1.0000 0.0843306188
C   C4        1.0  0.21424  0.20154  0.87060  1.0000 0.0843306188
C   C5        1.0  0.86748  0.11146  0.19940  1.0000 -0.1884356723
C   C6        1.0  0.11146  0.86748  0.30060  1.0000 -0.1884356723
C   C7        1.0  0.13252  0.88854  0.80060  1.0000 -0.1884356723
C   C8        1.0  0.88854  0.13252  0.69940  1.0000 -0.1884356723
C   C9        1.0  0.02139  0.24521  0.24350  1.0000 0.1614969539
C   C10       1.0  0.24521  0.02139  0.25650  1.0000 0.1614969539
C   C11       1.0  0.97861  0.75479  0.75650  1.0000 0.1614969539
C   C12       1.0  0.75479  0.97861  0.74350  1.0000 0.1614969539
C   C13       1.0  0.70344  0.09202  0.18520  1.0000 -0.1099475021
C   C14       1.0  0.09202  0.70344  0.31480  1.0000 -0.1099475021
C   C15       1.0  0.29656  0.90798  0.81480  1.0000 -0.1099475021
C   C16       1.0  0.90798  0.29656  0.68520  1.0000 -0.1099475021
C   C17       1.0  0.12917  0.26339  0.25860  1.0000 -0.1791223792
C   C18       1.0  0.26339  0.12917  0.24140  1.0000 -0.1791223792
C   C19       1.0  0.87083  0.73661  0.74140  1.0000 -0.1791223792
C   C20       1.0  0.73661  0.87083  0.75860  1.0000 -0.1791223792
C   C21       1.0  0.03072  0.19766  0.31810  1.0000 -0.1791223792
C   C22       1.0  0.19766  0.03072  0.18190  1.0000 -0.1791223792
C   C23       1.0  0.96928  0.80234  0.68190  1.0000 -0.1791223792
C   C24       1.0  0.80234  0.96928  0.81810  1.0000 -0.1791223792
C   C25       1.0  0.98370  0.37018  0.17790  1.0000 -0.1791223792
C   C26       1.0  0.37018  0.98370  0.32210  1.0000 -0.1791223792
C   C27       1.0  0.01630  0.62982  0.82210  1.0000 -0.1791223792
C   C28       1.0  0.62982  0.01630  0.67790  1.0000 -0.1791223792
C   C29       1.0  0.18390  0.87214  0.54310  1.0000 0.120265995
C   C30       1.0  0.87214  0.18390  0.95690  1.0000 0.1287393311
C   C31       1.0  0.81610  0.12786  0.45690  1.0000 0.1287393311
C   C32       1.0  0.12786  0.81610  0.04310  1.0000 0.1287393311
C   C33       1.0  0.19143  0.81439  0.54030  1.0000 -0.1884356723
C   C34       1.0  0.81439  0.19143  0.95970  1.0000 -0.1884356723
C   C35       1.0  0.80857  0.18561  0.45970  1.0000 -0.1884356723
C   C36       1.0  0.18561  0.80857  0.04030  1.0000 -0.1884356723
C   C37       1.0  0.91234  0.21448  0.20490  1.0000 0.1614969539
C   C38       1.0  0.21448  0.91234  0.29510  1.0000 0.1614969539
C   C39       1.0  0.08766  0.78552  0.79510  1.0000 0.1614969539
C   C40       1.0  0.78552  0.08766  0.70490  1.0000 0.1614969539
C   C41       1.0  0.07647  0.55681  0.59520  1.0000 0.1388716491
C   C42       1.0  0.55681  0.07647  0.90480  1.0000 0.1388716491
C   C43       1.0  0.92353  0.44319  0.40480  1.0000 0.1388716491
C   C44       1.0  0.44319  0.92353  0.09520  1.0000 0.1388716491
C   C45       1.0  0.95084  0.31950  0.15280  1.0000 0.1614969539
C   C46       1.0  0.31950  0.95084  0.34720  1.0000 0.1614969539
C   C47       1.0  0.04916  0.68050  0.84720  1.0000 0.1614969539
C   C48       1.0  0.68050  0.04916  0.65280  1.0000 0.1614969539
C   C49       1.0  0.89182  0.38456  0.02750  1.0000 -0.1791223792
C   C50       1.0  0.38456  0.89182  0.47250  1.0000 -0.1791223792
C   C51       1.0  0.10818  0.61544  0.97250  1.0000 -0.1791223792
C   C52       1.0  0.61544  0.10818  0.52750  1.0000 -0.1791223792
C   C53       1.0  0.90473  0.32683  0.07610  1.0000 -0.1791223792
C   C54       1.0  0.32683  0.90473  0.42390  1.0000 -0.1791223792
C   C55       1.0  0.09527  0.67317  0.92390  1.0000 -0.1791223792
C   C56       1.0  0.67317  0.09527  0.57610  1.0000 -0.1791223792
C   C57       1.0  0.07850  0.84172  0.53820  1.0000 -0.1791223792
C   C58       1.0  0.84172  0.07850  0.96180  1.0000 -0.1791223792
C   C59       1.0  0.92150  0.15828  0.46180  1.0000 -0.1791223792
C   C60       1.0  0.15828  0.92150  0.03820  1.0000 -0.1791223792
C   C61       1.0  0.97205  0.42721  0.12810  1.0000 -0.1884356723
C   C62       1.0  0.42721  0.97205  0.37190  1.0000 -0.1884356723
C   C63       1.0  0.02795  0.57279  0.87190  1.0000 -0.1884356723
C   C64       1.0  0.57279  0.02795  0.62810  1.0000 -0.1884356723
C   C65       1.0  0.08501  0.78167  0.53700  1.0000 0.1756538251
C   C66       1.0  0.78167  0.08501  0.96300  1.0000 0.1756538251
C   C67       1.0  0.91499  0.21833  0.46300  1.0000 0.1756538251
C   C68       1.0  0.21833  0.91499  0.03700  1.0000 0.1756538251
C   C69       1.0  0.92808  0.71226  0.52320  1.0000 -0.200081233
C   C70       1.0  0.71226  0.92808  0.97680  1.0000 -0.200081233
C   C71       1.0  0.07192  0.28774  0.47680  1.0000 -0.200081233
C   C72       1.0  0.28774  0.07192  0.02320  1.0000 -0.200081233
C   C73       1.0  0.13792  0.21666  0.33250  1.0000 0.1388716491
C   C74       1.0  0.21666  0.13792  0.16750  1.0000 0.1388716491
C   C75       1.0  0.86208  0.78334  0.66750  1.0000 0.1388716491
C   C76       1.0  0.78334  0.86208  0.83250  1.0000 0.1388716491
C   C77       1.0  0.12607  0.88601  0.54140  1.0000 -0.1884356723
C   C78       1.0  0.88601  0.12607  0.95860  1.0000 -0.1884356723
C   C79       1.0  0.87393  0.11399  0.45860  1.0000 -0.1884356723
C   C80       1.0  0.11399  0.87393  0.04140  1.0000 -0.1884356723
C   C81       1.0  0.21674  0.14840  0.40820  1.0000 0.0364084552
C   C82       1.0  0.14840  0.21674  0.09180  1.0000 0.0364084552
C   C83       1.0  0.78326  0.85160  0.59180  1.0000 0.0364084552
C   C84       1.0  0.85160  0.78326  0.90820  1.0000 0.0364084552
C   C85       1.0  0.29088  0.90662  0.60720  1.0000 -0.1099475021
C   C86       1.0  0.90662  0.29088  0.89280  1.0000 -0.1099475021
C   C87       1.0  0.70912  0.09338  0.39280  1.0000 -0.1099475021
C   C88       1.0  0.09338  0.70912  0.10720  1.0000 -0.1099475021
C   C89       1.0  0.81044  0.18250  0.22280  1.0000 -0.1791223792
C   C90       1.0  0.18250  0.81044  0.27720  1.0000 -0.1791223792
C   C91       1.0  0.18956  0.81750  0.77720  1.0000 -0.1791223792
C   C92       1.0  0.81750  0.18956  0.72280  1.0000 -0.1791223792
C   C93       1.0  0.04862  0.67434  0.55900  1.0000 0.1509898906
C   C94       1.0  0.67434  0.04862  0.94100  1.0000 0.1509898906
C   C95       1.0  0.95138  0.32566  0.44100  1.0000 0.1509898906
C   C96       1.0  0.32566  0.95138  0.05900  1.0000 0.1509898906
C   C97       1.0  0.14297  0.76953  0.53670  1.0000 -0.1884356723
C   C98       1.0  0.76953  0.14297  0.96330  1.0000 -0.1884356723
C   C99       1.0  0.85703  0.23047  0.46330  1.0000 -0.1884356723
C   C100      1.0  0.23047  0.85703  0.03670  1.0000 -0.1884356723
C   C101      1.0  0.88175  0.50999  0.91700  1.0000 -0.1359215076
C   C102      1.0  0.50999  0.88175  0.58300  1.0000 -0.1359215076
C   C103      1.0  0.11825  0.49001  0.08300  1.0000 -0.1359215076
C   C104      1.0  0.49001  0.11825  0.41700  1.0000 -0.1359215076
C   C105      1.0  0.07151  0.27691  0.21460  1.0000 -0.1884356723
C   C106      1.0  0.27691  0.07151  0.28540  1.0000 -0.1884356723
C   C107      1.0  0.92849  0.72309  0.78540  1.0000 -0.1884356723
C   C108      1.0  0.72309  0.92849  0.71460  1.0000 -0.1884356723
C   C109      1.0  0.66971  0.03829  0.20250  1.0000 -0.0692267153
C   C110      1.0  0.03829  0.66971  0.29750  1.0000 -0.0692267153
C   C111      1.0  0.33029  0.96171  0.79750  1.0000 -0.0692267153
C   C112      1.0  0.96171  0.33029  0.70250  1.0000 -0.0692267153
C   C113      1.0  0.97677  0.74881  0.49340  1.0000 0.1756538251
C   C114      1.0  0.74881  0.97677  0.00660  1.0000 0.1756538251
C   C115      1.0  0.02323  0.25119  0.50660  1.0000 0.1756538251
C   C116      1.0  0.25119  0.02323  0.99340  1.0000 0.1756538251
C   C117      1.0  0.96535  0.79617  0.41950  1.0000 -0.2076887372
C   C118      1.0  0.79617  0.96535  0.08050  1.0000 -0.2076887372
C   C119      1.0  0.03465  0.20383  0.58050  1.0000 -0.2076887372
C   C120      1.0  0.20383  0.03465  0.91950  1.0000 -0.2076887372
C   C121      1.0  0.70136  0.78064  0.31560  1.0000 0.1287393311
C   C122      1.0  0.78064  0.70136  0.18440  1.0000 0.1287393311
C   C123      1.0  0.29864  0.21936  0.68440  1.0000 0.1287393311
C   C124      1.0  0.21936  0.29864  0.81560  1.0000 0.1287393311
C   C125      1.0  0.32635  0.95961  0.59660  1.0000 -0.0409287921
C   C126      1.0  0.95961  0.32635  0.90340  1.0000 -0.0409287921
C   C127      1.0  0.67365  0.04039  0.40340  1.0000 -0.0409287921
C   C128      1.0  0.04039  0.67365  0.09660  1.0000 -0.0409287921
C   C129      1.0  0.92541  0.54463  0.03560  1.0000 0.0620251459
C   C130      1.0  0.54463  0.92541  0.46440  1.0000 0.0620251459
C   C131      1.0  0.07459  0.45537  0.96440  1.0000 0.0620251459
C   C132      1.0  0.45537  0.07459  0.53560  1.0000 0.0620251459
C   C133      1.0  0.91627  0.15585  0.19490  1.0000 -0.1884356723
C   C134      1.0  0.15585  0.91627  0.30510  1.0000 -0.1884356723
C   C135      1.0  0.08373  0.84415  0.80510  1.0000 -0.1884356723
C   C136      1.0  0.84415  0.08373  0.69490  1.0000 -0.1884356723
C   C137      1.0  0.23713  0.97485  0.50790  1.0000 0.0020842905
C   C138      1.0  0.97485  0.23713  0.99210  1.0000 0.0020842905
C   C139      1.0  0.76287  0.02515  0.49210  1.0000 0.0020842905
C   C140      1.0  0.02515  0.76287  0.00790  1.0000 0.0020842905
C   C141      1.0  0.81423  0.12567  0.21160  1.0000 0.1287393311
C   C142      1.0  0.12567  0.81423  0.28840  1.0000 0.1287393311
C   C143      1.0  0.18577  0.87433  0.78840  1.0000 0.1287393311
C   C144      1.0  0.87433  0.18577  0.71160  1.0000 0.1287393311
C   C145      1.0  0.86952  0.72364  0.48250  1.0000 -0.1271930854
C   C146      1.0  0.72364  0.86952  0.01750  1.0000 -0.1271930854
C   C147      1.0  0.13048  0.27636  0.51750  1.0000 -0.1271930854
C   C148      1.0  0.27636  0.13048  0.98250  1.0000 -0.1271930854
C   C149      1.0  0.85878  0.22570  0.21920  1.0000 -0.1791223792
C   C150      1.0  0.22570  0.85878  0.28080  1.0000 -0.1791223792
C   C151      1.0  0.14122  0.77430  0.78080  1.0000 -0.1791223792
C   C152      1.0  0.77430  0.14122  0.71920  1.0000 -0.1791223792
C   C153      1.0  0.08807  0.18347  0.36230  1.0000 -0.1791223792
C   C154      1.0  0.18347  0.08807  0.13770  1.0000 -0.1791223792
C   C155      1.0  0.91193  0.81653  0.63770  1.0000 -0.1791223792
C   C156      1.0  0.81653  0.91193  0.86230  1.0000 -0.1791223792
C   C157      1.0  0.02816  0.63980  0.49760  1.0000 -0.1592884282
C   C158      1.0  0.63980  0.02816  0.00240  1.0000 -0.1592884282
C   C159      1.0  0.97184  0.36020  0.50240  1.0000 -0.1592884282
C   C160      1.0  0.36020  0.97184  0.99760  1.0000 -0.1592884282
C   C161      1.0  0.87736  0.56988  0.90140  1.0000 -0.0409287921
C   C162      1.0  0.56988  0.87736  0.59860  1.0000 -0.0409287921
C   C163      1.0  0.12264  0.43012  0.09860  1.0000 -0.0409287921
C   C164      1.0  0.43012  0.12264  0.40140  1.0000 -0.0409287921
C   C165      1.0  0.08552  0.45312  0.68410  1.0000 0.0859724347
C   C166      1.0  0.45312  0.08552  0.81590  1.0000 0.0859724347
C   C167      1.0  0.91448  0.54688  0.31590  1.0000 0.0859724347
C   C168      1.0  0.54688  0.91448  0.18410  1.0000 0.0859724347
C   C169      1.0  0.85893  0.77109  0.41140  1.0000 0.0546206427
C   C170      1.0  0.77109  0.85893  0.08860  1.0000 0.0620251459
C   C171      1.0  0.14107  0.22891  0.58860  1.0000 0.0546206427
C   C172      1.0  0.22891  0.14107  0.91140  1.0000 0.0546206427
C   C173      1.0  0.78202  0.84238  0.33950  1.0000 -0.1006503436
C   C174      1.0  0.84238  0.78202  0.16050  1.0000 -0.1006503436
C   C175      1.0  0.21798  0.15762  0.66050  1.0000 -0.1006503436
C   C176      1.0  0.15762  0.21798  0.83950  1.0000 -0.1006503436
C   C177      1.0  0.90642  0.80752  0.37850  1.0000 -0.1488387804
C   C178      1.0  0.80752  0.90642  0.12150  1.0000 -0.1488387804
C   C179      1.0  0.09358  0.19248  0.62150  1.0000 -0.1488387804
C   C180      1.0  0.19248  0.09358  0.87850  1.0000 -0.1488387804
C   C181      1.0  0.04161  0.58145  0.51520  1.0000 -0.1742723318
C   C182      1.0  0.58145  0.04161  0.98480  1.0000 -0.1742723318
C   C183      1.0  0.95839  0.41855  0.48480  1.0000 -0.1742723318
C   C184      1.0  0.41855  0.95839  0.01520  1.0000 -0.1742723318
C   C185      1.0  0.92574  0.43504  0.05330  1.0000 0.1388716491
C   C186      1.0  0.43504  0.92574  0.44670  1.0000 0.1388716491
C   C187      1.0  0.07426  0.56496  0.94670  1.0000 0.1388716491
C   C188      1.0  0.56496  0.07426  0.55330  1.0000 0.1388716491
C   C189      1.0  0.76384  0.02088  0.25100  1.0000 0.0364084552
C   C190      1.0  0.02088  0.76384  0.24900  1.0000 0.0349747767
C   C191      1.0  0.23616  0.97912  0.74900  1.0000 0.0364084552
C   C192      1.0  0.97912  0.23616  0.75100  1.0000 0.0364084552
C   C193      1.0  0.11500  0.47206  0.56100  1.0000 -0.1006503436
C   C194      1.0  0.47206  0.11500  0.93900  1.0000 -0.1006503436
C   C195      1.0  0.88500  0.52794  0.43900  1.0000 -0.1006503436
C   C196      1.0  0.52794  0.88500  0.06100  1.0000 -0.1006503436
C   C197      1.0  0.12132  0.41318  0.60360  1.0000 -0.0520528318
C   C198      1.0  0.41318  0.12132  0.89640  1.0000 -0.0520528318
C   C199      1.0  0.87868  0.58682  0.39640  1.0000 -0.0520528318
C   C200      1.0  0.58682  0.87868  0.10360  1.0000 -0.0520528318
C   C201      1.0  0.24620  0.24480  0.40030  1.0000 -0.1006503436
C   C202      1.0  0.24480  0.24620  0.09970  1.0000 -0.1006503436
C   C203      1.0  0.75380  0.75520  0.59970  1.0000 -0.1006503436
C   C204      1.0  0.75520  0.75380  0.90030  1.0000 -0.1006503436
C   C205      1.0  0.08140  0.64880  0.64040  1.0000 -0.1742723318
C   C206      1.0  0.64880  0.08140  0.85960  1.0000 -0.1742723318
C   C207      1.0  0.91860  0.35120  0.35960  1.0000 -0.1742723318
C   C208      1.0  0.35120  0.91860  0.14040  1.0000 -0.1742723318
C   C209      1.0  0.09599  0.58989  0.65930  1.0000 -0.1742723318
C   C210      1.0  0.58989  0.09599  0.84070  1.0000 -0.1742723318
C   C211      1.0  0.90401  0.41011  0.34070  1.0000 -0.1742723318
C   C212      1.0  0.41011  0.90401  0.15930  1.0000 -0.1742723318
C   C213      1.0  0.29336  0.21264  0.44300  1.0000 -0.0409287921
C   C214      1.0  0.21264  0.29336  0.05700  1.0000 -0.0409287921
C   C215      1.0  0.70664  0.78736  0.55700  1.0000 -0.0409287921
C   C216      1.0  0.78736  0.70664  0.94300  1.0000 -0.0409287921
N   N1        1.0  0.03666  0.73642  0.53710  1.0000 -0.1884356723
N   N2        1.0  0.73642  0.03666  0.96290  1.0000 -0.1884356723
N   N3        1.0  0.96334  0.26358  0.46290  1.0000 -0.1884356723
N   N4        1.0  0.26358  0.96334  0.03710  1.0000 -0.1884356723
N   N5        1.0  0.96180  0.25910  0.20160  1.0000 -0.1884356723
N   N6        1.0  0.25910  0.96180  0.29840  1.0000 -0.200081233
N   N7        1.0  0.03820  0.74090  0.79840  1.0000 -0.200081233
N   N8        1.0  0.74090  0.03820  0.70160  1.0000 -0.200081233
N   N9        1.0  0.29257  0.00325  0.53370  1.0000 -0.2988667558
N   N10       1.0  0.00325  0.29257  0.96630  1.0000 -0.2988667558
N   N11       1.0  0.70743  0.99675  0.46630  1.0000 -0.2988667558
N   N12       1.0  0.99675  0.70743  0.03370  1.0000 -0.2988667558
N   N13       1.0  0.76263  0.08013  0.21650  1.0000 0.0086101914
N   N14       1.0  0.08013  0.76263  0.28350  1.0000 0.0086101914
N   N15       1.0  0.23737  0.91987  0.78350  1.0000 0.0086101914
N   N16       1.0  0.91987  0.23737  0.71650  1.0000 0.0086101914
N   N17       1.0  0.90460  0.59162  0.97390  1.0000 -0.2700960482
N   N18       1.0  0.59162  0.90460  0.52610  1.0000 -0.2700960482
N   N19       1.0  0.09540  0.40838  0.02610  1.0000 -0.2700960482
N   N20       1.0  0.40838  0.09540  0.47390  1.0000 -0.2700960482
N   N21       1.0  0.23477  0.91661  0.55130  1.0000 0.0020842905
N   N22       1.0  0.91661  0.23477  0.94870  1.0000 0.0020842905
N   N23       1.0  0.76523  0.08339  0.44870  1.0000 0.0020842905
N   N24       1.0  0.08339  0.76523  0.05130  1.0000 0.0020842905
N   N25       1.0  0.19798  0.20314  0.37860  1.0000 0.0086101914
N   N26       1.0  0.20314  0.19798  0.12140  1.0000 0.0086101914
N   N27       1.0  0.80202  0.79686  0.62140  1.0000 0.0086101914
N   N28       1.0  0.79686  0.80202  0.87860  1.0000 0.0086101914
N   N29       1.0  0.27503  0.15145  0.44880  1.0000 -0.2884305711
N   N30       1.0  0.15145  0.27503  0.05120  1.0000 -0.2884305711
N   N31       1.0  0.72497  0.84855  0.55120  1.0000 -0.2884305711
N   N32       1.0  0.84855  0.72497  0.94880  1.0000 -0.2884305711
N   N33       1.0  0.70779  0.99319  0.24400  1.0000 -0.2796714077
N   N34       1.0  0.99319  0.70779  0.25600  1.0000 -0.2796714077
N   N35       1.0  0.29221  0.00681  0.75600  1.0000 -0.2796714077
N   N36       1.0  0.00681  0.29221  0.74400  1.0000 -0.2796714077
N   N37       1.0  0.10303  0.40189  0.68200  1.0000 -0.2700960482
N   N38       1.0  0.40189  0.10303  0.81800  1.0000 -0.2700960482
N   N39       1.0  0.89697  0.59811  0.31800  1.0000 -0.2700960482
N   N40       1.0  0.59811  0.89697  0.18200  1.0000 -0.2700960482
N   N41       1.0  0.91240  0.49436  0.00410  1.0000 0.0086101914
N   N42       1.0  0.49436  0.91240  0.49590  1.0000 0.0086101914
N   N43       1.0  0.08760  0.50564  0.99590  1.0000 0.0086101914
N   N44       1.0  0.50564  0.08760  0.50410  1.0000 0.0086101914
N   N45       1.0  0.09227  0.49635  0.61300  1.0000 0.0020842905
N   N46       1.0  0.49635  0.09227  0.88700  1.0000 -0.0001735294
N   N47       1.0  0.90773  0.50365  0.38700  1.0000 -0.0001735294
N   N48       1.0  0.50365  0.90773  0.11300  1.0000 0.0020842905
N   N49       1.0  0.72307  0.84149  0.30570  1.0000 -0.2988667558
N   N50       1.0  0.84149  0.72307  0.19430  1.0000 -0.2988667558
N   N51       1.0  0.27693  0.15851  0.69430  1.0000 -0.2988667558
N   N52       1.0  0.15851  0.27693  0.80570  1.0000 -0.2988667558
N   N53       1.0  0.74619  0.74601  0.35540  1.0000 -0.3288820381
N   N54       1.0  0.74601  0.74619  0.14460  1.0000 -0.3288820381
N   N55       1.0  0.25381  0.25399  0.64460  1.0000 -0.3243496712
N   N56       1.0  0.25399  0.25381  0.85540  1.0000 -0.3243496712
O   O1        1.0  0.36638  0.10178  0.62770  1.0000 -0.8506738241
O   O2        1.0  0.10178  0.36638  0.87230  1.0000 -0.8506738241
O   O3        1.0  0.63362  0.89822  0.37230  1.0000 -0.8506738241
O   O4        1.0  0.89822  0.63362  0.12770  1.0000 -0.8506738241
