# DDEC6 charges by PACMAN v1.1 (https://github.com/mtap-research/PACMAN-charge/)
data_2014[Mn][pcu]3[ASR]1
_chemical_formula_sum              "Mn16 H24 C72 S12 O54"
_cell_length_a       20.6894
_cell_length_b       20.6894
_cell_length_c       20.6894
_cell_angle_alpha    43.2309
_cell_angle_beta     43.2309
_cell_angle_gamma    43.2309

_symmetry_space_group_name_H-M    "P 1"
_symmetry_Int_Tables_number       1

loop_
  _symmetry_equiv_pos_as_xyz
  'x, y, z'

loop_
  _atom_site_type_symbol
  _atom_site_label
  _atom_site_symmetry_multiplicity
  _atom_site_fract_x
  _atom_site_fract_y
  _atom_site_fract_z
  _atom_site_occupancy
  _atom_site_charge
Mn  Mn1       1.0  0.87695  0.48524  0.88312  1.0000 1.0267854945
Mn  Mn2       1.0  0.48524  0.88312  0.87695  1.0000 1.0267854945
Mn  Mn3       1.0  0.88312  0.87695  0.48524  1.0000 1.0267854945
Mn  Mn4       1.0  0.01476  0.62305  0.61688  1.0000 1.0267854945
Mn  Mn5       1.0  0.61688  0.01476  0.62305  1.0000 1.0267854945
Mn  Mn6       1.0  0.62305  0.61688  0.01476  1.0000 1.0267854945
Mn  Mn7       1.0  0.12305  0.51476  0.11688  1.0000 1.0267854945
Mn  Mn8       1.0  0.51476  0.11688  0.12305  1.0000 1.0267854945
Mn  Mn9       1.0  0.11688  0.12305  0.51476  1.0000 1.0267854945
Mn  Mn10      1.0  0.98524  0.37695  0.38312  1.0000 1.0267854945
Mn  Mn11      1.0  0.38312  0.98524  0.37695  1.0000 1.0267854945
Mn  Mn12      1.0  0.37695  0.38312  0.98524  1.0000 1.0267854945
Mn  Mn13      1.0  0.72166  0.72166  0.72166  1.0000 1.0238610522
Mn  Mn14      1.0  0.77834  0.77834  0.77834  1.0000 1.0238610522
Mn  Mn15      1.0  0.27834  0.27834  0.27834  1.0000 1.0238610522
Mn  Mn16      1.0  0.22166  0.22166  0.22166  1.0000 1.0238610522
H   H1        1.0  0.70260  0.33200  0.07460  1.0000 0.1393740641
H   H2        1.0  0.33200  0.07460  0.70260  1.0000 0.1393740641
H   H3        1.0  0.07460  0.70260  0.33200  1.0000 0.1393740641
H   H4        1.0  0.16800  0.79740  0.42540  1.0000 0.1393740641
H   H5        1.0  0.42540  0.16800  0.79740  1.0000 0.1393740641
H   H6        1.0  0.79740  0.42540  0.16800  1.0000 0.1393740641
H   H7        1.0  0.29740  0.66800  0.92540  1.0000 0.1393740641
H   H8        1.0  0.66800  0.92540  0.29740  1.0000 0.1393740641
H   H9        1.0  0.92540  0.29740  0.66800  1.0000 0.1393740641
H   H10       1.0  0.83200  0.20260  0.57460  1.0000 0.1393740641
H   H11       1.0  0.57460  0.83200  0.20260  1.0000 0.1393740641
H   H12       1.0  0.20260  0.57460  0.83200  1.0000 0.1393740641
H   H13       1.0  0.64570  0.22420  0.12710  1.0000 0.1306137323
H   H14       1.0  0.22420  0.12710  0.64570  1.0000 0.1306137323
H   H15       1.0  0.12710  0.64570  0.22420  1.0000 0.1306137323
H   H16       1.0  0.27580  0.85430  0.37290  1.0000 0.1306137323
H   H17       1.0  0.37290  0.27580  0.85430  1.0000 0.1306137323
H   H18       1.0  0.85430  0.37290  0.27580  1.0000 0.1306137323
H   H19       1.0  0.35430  0.77580  0.87290  1.0000 0.1306137323
H   H20       1.0  0.77580  0.87290  0.35430  1.0000 0.1306137323
H   H21       1.0  0.87290  0.35430  0.77580  1.0000 0.1306137323
H   H22       1.0  0.72420  0.14570  0.62710  1.0000 0.1306137323
H   H23       1.0  0.62710  0.72420  0.14570  1.0000 0.1306137323
H   H24       1.0  0.14570  0.62710  0.72420  1.0000 0.1306137323
C   C1        1.0  0.69093  0.52273  0.89953  1.0000 0.6000757556
C   C2        1.0  0.52273  0.89953  0.69093  1.0000 0.6000757556
C   C3        1.0  0.89953  0.69093  0.52273  1.0000 0.6000757556
C   C4        1.0  0.97727  0.80907  0.60047  1.0000 0.6000757556
C   C5        1.0  0.60047  0.97727  0.80907  1.0000 0.6000757556
C   C6        1.0  0.80907  0.60047  0.97727  1.0000 0.6000757556
C   C7        1.0  0.30907  0.47727  0.10047  1.0000 0.6000757556
C   C8        1.0  0.47727  0.10047  0.30907  1.0000 0.6000757556
C   C9        1.0  0.10047  0.30907  0.47727  1.0000 0.6000757556
C   C10       1.0  0.02273  0.19093  0.39953  1.0000 0.6000757556
C   C11       1.0  0.39953  0.02273  0.19093  1.0000 0.6000757556
C   C12       1.0  0.19093  0.39953  0.02273  1.0000 0.6000757556
C   C13       1.0  0.66645  0.43865  0.95205  1.0000 -0.1268057733
C   C14       1.0  0.43865  0.95205  0.66645  1.0000 -0.1268057733
C   C15       1.0  0.95205  0.66645  0.43865  1.0000 -0.1268057733
C   C16       1.0  0.06135  0.83355  0.54795  1.0000 -0.1268057733
C   C17       1.0  0.54795  0.06135  0.83355  1.0000 -0.1268057733
C   C18       1.0  0.83355  0.54795  0.06135  1.0000 -0.1268057733
C   C19       1.0  0.33355  0.56135  0.04795  1.0000 -0.1268057733
C   C20       1.0  0.56135  0.04795  0.33355  1.0000 -0.1268057733
C   C21       1.0  0.04795  0.33355  0.56135  1.0000 -0.1268057733
C   C22       1.0  0.93865  0.16645  0.45205  1.0000 -0.1268057733
C   C23       1.0  0.45205  0.93865  0.16645  1.0000 -0.1268057733
C   C24       1.0  0.16645  0.45205  0.93865  1.0000 -0.1268057733
C   C25       1.0  0.67663  0.35013  0.03873  1.0000 -0.1122175234
C   C26       1.0  0.35013  0.03873  0.67663  1.0000 -0.1122175234
C   C27       1.0  0.03873  0.67663  0.35013  1.0000 -0.1122175234
C   C28       1.0  0.14987  0.82337  0.46127  1.0000 -0.1122175234
C   C29       1.0  0.46127  0.14987  0.82337  1.0000 -0.1122175234
C   C30       1.0  0.82337  0.46127  0.14987  1.0000 -0.1122175234
C   C31       1.0  0.32337  0.64987  0.96127  1.0000 -0.1122175234
C   C32       1.0  0.64987  0.96127  0.32337  1.0000 -0.1122175234
C   C33       1.0  0.96127  0.32337  0.64987  1.0000 -0.1122175234
C   C34       1.0  0.85013  0.17663  0.53873  1.0000 -0.1122175234
C   C35       1.0  0.53873  0.85013  0.17663  1.0000 -0.1122175234
C   C36       1.0  0.17663  0.53873  0.85013  1.0000 -0.1122175234
C   C37       1.0  0.64358  0.28788  0.06938  1.0000 -0.1122175234
C   C38       1.0  0.28788  0.06938  0.64358  1.0000 -0.1122175234
C   C39       1.0  0.06938  0.64358  0.28788  1.0000 -0.1122175234
C   C40       1.0  0.21212  0.85642  0.43062  1.0000 -0.1122175234
C   C41       1.0  0.43062  0.21212  0.85642  1.0000 -0.1122175234
C   C42       1.0  0.85642  0.43062  0.21212  1.0000 -0.1122175234
C   C43       1.0  0.35642  0.71212  0.93062  1.0000 -0.1122175234
C   C44       1.0  0.71212  0.93062  0.35642  1.0000 -0.1122175234
C   C45       1.0  0.93062  0.35642  0.71212  1.0000 -0.1122175234
C   C46       1.0  0.78788  0.14358  0.56938  1.0000 -0.1122175234
C   C47       1.0  0.56938  0.78788  0.14358  1.0000 -0.1122175234
C   C48       1.0  0.14358  0.56938  0.78788  1.0000 -0.1122175234
C   C49       1.0  0.60816  0.33216  0.00406  1.0000 -0.1122175234
C   C50       1.0  0.33216  0.00406  0.60816  1.0000 -0.1122175234
C   C51       1.0  0.00406  0.60816  0.33216  1.0000 -0.1122175234
C   C52       1.0  0.16784  0.89184  0.49594  1.0000 -0.1122175234
C   C53       1.0  0.49594  0.16784  0.89184  1.0000 -0.1122175234
C   C54       1.0  0.89184  0.49594  0.16784  1.0000 -0.1122175234
C   C55       1.0  0.39184  0.66784  0.99594  1.0000 -0.1122175234
C   C56       1.0  0.66784  0.99594  0.39184  1.0000 -0.1122175234
C   C57       1.0  0.99594  0.39184  0.66784  1.0000 -0.1122175234
C   C58       1.0  0.83216  0.10816  0.50406  1.0000 -0.1122175234
C   C59       1.0  0.50406  0.83216  0.10816  1.0000 -0.1122175234
C   C60       1.0  0.10816  0.50406  0.83216  1.0000 -0.1122175234
C   C61       1.0  0.56093  0.29303  0.01413  1.0000 0.6000757556
C   C62       1.0  0.29303  0.01413  0.56093  1.0000 0.6000757556
C   C63       1.0  0.01413  0.56093  0.29303  1.0000 0.6000757556
C   C64       1.0  0.20697  0.93907  0.48587  1.0000 0.6000757556
C   C65       1.0  0.48587  0.20697  0.93907  1.0000 0.6000757556
C   C66       1.0  0.93907  0.48587  0.20697  1.0000 0.6000757556
C   C67       1.0  0.43907  0.70697  0.98587  1.0000 0.6000757556
C   C68       1.0  0.70697  0.98587  0.43907  1.0000 0.6000757556
C   C69       1.0  0.98587  0.43907  0.70697  1.0000 0.6000757556
C   C70       1.0  0.79303  0.06093  0.51413  1.0000 0.6000757556
C   C71       1.0  0.51413  0.79303  0.06093  1.0000 0.6000757556
C   C72       1.0  0.06093  0.51413  0.79303  1.0000 0.6000757556
S   S1        1.0  0.61445  0.44931  0.90663  1.0000 0.1541963087
S   S2        1.0  0.44931  0.90663  0.61445  1.0000 0.1541963087
S   S3        1.0  0.90663  0.61445  0.44931  1.0000 0.1541963087
S   S4        1.0  0.05069  0.88555  0.59337  1.0000 0.1541963087
S   S5        1.0  0.59337  0.05069  0.88555  1.0000 0.1541963087
S   S6        1.0  0.88555  0.59337  0.05069  1.0000 0.1541963087
S   S7        1.0  0.38555  0.55069  0.09337  1.0000 0.1541963087
S   S8        1.0  0.55069  0.09337  0.38555  1.0000 0.1541963087
S   S9        1.0  0.09337  0.38555  0.55069  1.0000 0.1541963087
S   S10       1.0  0.94931  0.11445  0.40663  1.0000 0.1541963087
S   S11       1.0  0.40663  0.94931  0.11445  1.0000 0.1541963087
S   S12       1.0  0.11445  0.40663  0.94931  1.0000 0.1541963087
O   O1        1.0  0.85815  0.64185  0.75000  1.0000 -0.7735932304
O   O2        1.0  0.64185  0.75000  0.85815  1.0000 -0.7755852325
O   O3        1.0  0.75000  0.85815  0.64185  1.0000 -0.7735932304
O   O4        1.0  0.14185  0.35815  0.25000  1.0000 -0.7735932304
O   O5        1.0  0.35815  0.25000  0.14185  1.0000 -0.7755852325
O   O6        1.0  0.25000  0.14185  0.35815  1.0000 -0.7735932304
O   O7        1.0  0.71980  0.51520  0.94260  1.0000 -0.5731268509
O   O8        1.0  0.51520  0.94260  0.71980  1.0000 -0.5731268509
O   O9        1.0  0.94260  0.71980  0.51520  1.0000 -0.5731268509
O   O10       1.0  0.98480  0.78020  0.55740  1.0000 -0.5731268509
O   O11       1.0  0.55740  0.98480  0.78020  1.0000 -0.5731268509
O   O12       1.0  0.78020  0.55740  0.98480  1.0000 -0.5731268509
O   O13       1.0  0.28020  0.48480  0.05740  1.0000 -0.5731268509
O   O14       1.0  0.48480  0.05740  0.28020  1.0000 -0.5731268509
O   O15       1.0  0.05740  0.28020  0.48480  1.0000 -0.5731268509
O   O16       1.0  0.01520  0.21980  0.44260  1.0000 -0.5731268509
O   O17       1.0  0.44260  0.01520  0.21980  1.0000 -0.5731268509
O   O18       1.0  0.21980  0.44260  0.01520  1.0000 -0.5731268509
O   O19       1.0  0.68026  0.59596  0.81846  1.0000 -0.4675843899
O   O20       1.0  0.59596  0.81846  0.68026  1.0000 -0.4675843899
O   O21       1.0  0.81846  0.68026  0.59596  1.0000 -0.4675843899
O   O22       1.0  0.90404  0.81974  0.68154  1.0000 -0.4675843899
O   O23       1.0  0.68154  0.90404  0.81974  1.0000 -0.4675843899
O   O24       1.0  0.81974  0.68154  0.90404  1.0000 -0.4675843899
O   O25       1.0  0.31974  0.40404  0.18154  1.0000 -0.4675843899
O   O26       1.0  0.40404  0.18154  0.31974  1.0000 -0.4675843899
O   O27       1.0  0.18154  0.31974  0.40404  1.0000 -0.4675843899
O   O28       1.0  0.09596  0.18026  0.31846  1.0000 -0.4675843899
O   O29       1.0  0.31846  0.09596  0.18026  1.0000 -0.4675843899
O   O30       1.0  0.18026  0.31846  0.09596  1.0000 -0.4675843899
O   O31       1.0  0.57677  0.19927  0.07477  1.0000 -0.5375882569
O   O32       1.0  0.19927  0.07477  0.57677  1.0000 -0.5375882569
O   O33       1.0  0.07477  0.57677  0.19927  1.0000 -0.5375882569
O   O34       1.0  0.30073  0.92323  0.42523  1.0000 -0.5375882569
O   O35       1.0  0.42523  0.30073  0.92323  1.0000 -0.5375882569
O   O36       1.0  0.92323  0.42523  0.30073  1.0000 -0.5375882569
O   O37       1.0  0.42323  0.80073  0.92523  1.0000 -0.5375882569
O   O38       1.0  0.80073  0.92523  0.42323  1.0000 -0.5375882569
O   O39       1.0  0.92523  0.42323  0.80073  1.0000 -0.5375882569
O   O40       1.0  0.69927  0.07677  0.57477  1.0000 -0.5375882569
O   O41       1.0  0.57477  0.69927  0.07677  1.0000 -0.5375882569
O   O42       1.0  0.07677  0.57477  0.69927  1.0000 -0.5375882569
O   O43       1.0  0.51123  0.35673  0.96143  1.0000 -0.5635216716
O   O44       1.0  0.35673  0.96143  0.51123  1.0000 -0.5635216716
O   O45       1.0  0.96143  0.51123  0.35673  1.0000 -0.5635216716
O   O46       1.0  0.14327  0.98877  0.53857  1.0000 -0.5635216716
O   O47       1.0  0.53857  0.14327  0.98877  1.0000 -0.5635216716
O   O48       1.0  0.98877  0.53857  0.14327  1.0000 -0.5635216716
O   O49       1.0  0.48877  0.64327  0.03857  1.0000 -0.5635216716
O   O50       1.0  0.64327  0.03857  0.48877  1.0000 -0.5635216716
O   O51       1.0  0.03857  0.48877  0.64327  1.0000 -0.5635216716
O   O52       1.0  0.85673  0.01123  0.46143  1.0000 -0.5635216716
O   O53       1.0  0.46143  0.85673  0.01123  1.0000 -0.5635216716
O   O54       1.0  0.01123  0.46143  0.85673  1.0000 -0.5635216716
