# DDEC6 charges by PACMAN v1.1 (https://github.com/mtap-research/PACMAN-charge/)
data_2014[Cd][pcu]3[ASR]4
_chemical_formula_sum              "Cd6 H32 C48 N20 O16"
_cell_length_a       15.443
_cell_length_b       9.638
_cell_length_c       18.717
_cell_angle_alpha    90
_cell_angle_beta     90
_cell_angle_gamma    90

_symmetry_space_group_name_H-M    "P 1"
_symmetry_Int_Tables_number       1

loop_
  _symmetry_equiv_pos_as_xyz
  'x, y, z'

loop_
  _atom_site_type_symbol
  _atom_site_label
  _atom_site_symmetry_multiplicity
  _atom_site_fract_x
  _atom_site_fract_y
  _atom_site_fract_z
  _atom_site_occupancy
  _atom_site_charge
Cd  Cd1       1.0  0.00000  0.00000  0.00000  1.0000 0.9865442894
Cd  Cd2       1.0  0.50000  0.00000  0.50000  1.0000 0.9865442894
Cd  Cd3       1.0  0.78310  0.11647  0.06098  1.0000 0.8326187513
Cd  Cd4       1.0  0.28310  0.88353  0.43902  1.0000 0.8326187513
Cd  Cd5       1.0  0.21690  0.88353  0.93902  1.0000 0.8326187513
Cd  Cd6       1.0  0.71690  0.11647  0.56098  1.0000 0.8326187513
H   H1        1.0  0.89270  0.35750  0.99310  1.0000 0.108389043
H   H2        1.0  0.39270  0.64250  0.50690  1.0000 0.108389043
H   H3        1.0  0.10730  0.64250  0.00690  1.0000 0.108389043
H   H4        1.0  0.60730  0.35750  0.49310  1.0000 0.108389043
H   H5        1.0  0.91620  0.58890  0.98190  1.0000 0.1400291554
H   H6        1.0  0.41620  0.41110  0.51810  1.0000 0.1400291554
H   H7        1.0  0.08380  0.41110  0.01810  1.0000 0.1400291554
H   H8        1.0  0.58380  0.58890  0.48190  1.0000 0.1400291554
H   H9        1.0  0.70950  0.65140  0.10470  1.0000 0.1400291554
H   H10       1.0  0.20950  0.34860  0.39530  1.0000 0.1400291554
H   H11       1.0  0.29050  0.34860  0.89530  1.0000 0.1400291554
H   H12       1.0  0.79050  0.65140  0.60470  1.0000 0.1400291554
H   H13       1.0  0.69370  0.41830  0.11480  1.0000 0.1008486345
H   H14       1.0  0.19370  0.58170  0.38520  1.0000 0.1008486345
H   H15       1.0  0.30630  0.58170  0.88520  1.0000 0.1008486345
H   H16       1.0  0.80630  0.41830  0.61480  1.0000 0.1008486345
H   H17       1.0  0.85340  0.99360  0.66680  1.0000 0.1154912494
H   H18       1.0  0.35340  0.00640  0.83320  1.0000 0.1154912494
H   H19       1.0  0.14660  0.00640  0.33320  1.0000 0.1154912494
H   H20       1.0  0.64660  0.99360  0.16680  1.0000 0.1154912494
H   H21       1.0  0.90440  0.99010  0.78130  1.0000 0.1400291554
H   H22       1.0  0.40440  0.00990  0.71870  1.0000 0.1400291554
H   H23       1.0  0.09560  0.00990  0.21870  1.0000 0.1400291554
H   H24       1.0  0.59560  0.99010  0.28130  1.0000 0.1400291554
H   H25       1.0  0.72130  0.26310  0.83240  1.0000 0.1400291554
H   H26       1.0  0.22130  0.73690  0.66760  1.0000 0.1400291554
H   H27       1.0  0.27870  0.73690  0.16760  1.0000 0.1400291554
H   H28       1.0  0.77870  0.26310  0.33240  1.0000 0.1400291554
H   H29       1.0  0.68080  0.26930  0.71480  1.0000 0.1008486345
H   H30       1.0  0.18080  0.73070  0.78520  1.0000 0.1008486345
H   H31       1.0  0.31920  0.73070  0.28520  1.0000 0.1008486345
H   H32       1.0  0.81920  0.26930  0.21480  1.0000 0.1008486345
C   C1        1.0  0.85540  0.41810  0.01660  1.0000 0.0621690825
C   C2        1.0  0.35540  0.58190  0.48340  1.0000 0.0621690825
C   C3        1.0  0.14460  0.58190  0.98340  1.0000 0.0621690825
C   C4        1.0  0.64460  0.41810  0.51660  1.0000 0.0621690825
C   C5        1.0  0.86990  0.55700  0.00910  1.0000 -0.1478767146
C   C6        1.0  0.36990  0.44300  0.49090  1.0000 -0.1478767146
C   C7        1.0  0.13010  0.44300  0.99090  1.0000 -0.1478767146
C   C8        1.0  0.63010  0.55700  0.50910  1.0000 -0.1478767146
C   C9        1.0  0.81530  0.64890  0.04230  1.0000 0.0123540445
C   C10       1.0  0.31530  0.35110  0.45770  1.0000 0.0123540445
C   C11       1.0  0.18470  0.35110  0.95770  1.0000 0.0123540445
C   C12       1.0  0.68470  0.64890  0.54230  1.0000 0.0123540445
C   C13       1.0  0.74850  0.59300  0.08170  1.0000 -0.1654878326
C   C14       1.0  0.24850  0.40700  0.41830  1.0000 -0.1654878326
C   C15       1.0  0.25150  0.40700  0.91830  1.0000 -0.1654878326
C   C16       1.0  0.75150  0.59300  0.58170  1.0000 -0.1654878326
C   C17       1.0  0.73900  0.45270  0.08720  1.0000 0.0621690825
C   C18       1.0  0.23900  0.54730  0.41280  1.0000 0.0621690825
C   C19       1.0  0.26100  0.54730  0.91280  1.0000 0.0621690825
C   C20       1.0  0.76100  0.45270  0.58720  1.0000 0.0621690825
C   C21       1.0  0.83110  0.80190  0.03690  1.0000 0.5810439892
C   C22       1.0  0.33110  0.19810  0.46310  1.0000 0.5810439892
C   C23       1.0  0.16890  0.19810  0.96310  1.0000 0.5810439892
C   C24       1.0  0.66890  0.80190  0.53690  1.0000 0.5810439892
C   C25       1.0  0.82730  0.05070  0.70060  1.0000 0.0685126938
C   C26       1.0  0.32730  0.94930  0.79940  1.0000 0.0685126938
C   C27       1.0  0.17270  0.94930  0.29940  1.0000 0.0685126938
C   C28       1.0  0.67270  0.05070  0.20060  1.0000 0.0685126938
C   C29       1.0  0.85770  0.04640  0.76940  1.0000 -0.1478767146
C   C30       1.0  0.35770  0.95360  0.73060  1.0000 -0.1478767146
C   C31       1.0  0.14230  0.95360  0.23060  1.0000 -0.1478767146
C   C32       1.0  0.64230  0.04640  0.26940  1.0000 -0.1478767146
C   C33       1.0  0.81830  0.12570  0.82000  1.0000 0.0123540445
C   C34       1.0  0.31830  0.87430  0.68000  1.0000 0.0123540445
C   C35       1.0  0.18170  0.87430  0.18000  1.0000 0.0123540445
C   C36       1.0  0.68170  0.12570  0.32000  1.0000 0.0123540445
C   C37       1.0  0.75030  0.20870  0.79910  1.0000 -0.1594818749
C   C38       1.0  0.25030  0.79130  0.70090  1.0000 -0.1594818749
C   C39       1.0  0.24970  0.79130  0.20090  1.0000 -0.1594818749
C   C40       1.0  0.74970  0.20870  0.29910  1.0000 -0.1594818749
C   C41       1.0  0.72560  0.21050  0.72850  1.0000 0.0621690825
C   C42       1.0  0.22560  0.78950  0.77150  1.0000 0.0621690825
C   C43       1.0  0.27440  0.78950  0.27150  1.0000 0.0621690825
C   C44       1.0  0.77440  0.21050  0.22850  1.0000 0.0621690825
C   C45       1.0  0.84720  0.11890  0.89690  1.0000 0.5810439892
C   C46       1.0  0.34720  0.88110  0.60310  1.0000 0.5810439892
C   C47       1.0  0.15280  0.88110  0.10310  1.0000 0.5810439892
C   C48       1.0  0.65280  0.11890  0.39690  1.0000 0.5810439892
N   N1        1.0  0.79130  0.36350  0.05520  1.0000 -0.2425009117
N   N2        1.0  0.29130  0.63650  0.44480  1.0000 -0.2425009117
N   N3        1.0  0.20870  0.63650  0.94480  1.0000 -0.2425009117
N   N4        1.0  0.70870  0.36350  0.55520  1.0000 -0.2425009117
N   N5        1.0  0.76270  0.13210  0.67940  1.0000 -0.2425009117
N   N6        1.0  0.26270  0.86790  0.82060  1.0000 -0.2425009117
N   N7        1.0  0.23730  0.86790  0.32060  1.0000 -0.2425009117
N   N8        1.0  0.73730  0.13210  0.17940  1.0000 -0.2425009117
N   N9        1.0  0.92850  0.12120  0.08510  1.0000 -0.5441569306
N   N10       1.0  0.42850  0.87880  0.41490  1.0000 -0.5441569306
N   N11       1.0  0.07150  0.87880  0.91490  1.0000 -0.5441569306
N   N12       1.0  0.57150  0.12120  0.58510  1.0000 -0.5441569306
N   N13       1.0  0.96320  0.17100  0.13330  1.0000 0.4316273711
N   N14       1.0  0.46320  0.82900  0.36670  1.0000 0.4316273711
N   N15       1.0  0.03680  0.82900  0.86670  1.0000 0.4316273711
N   N16       1.0  0.53680  0.17100  0.63330  1.0000 0.4316273711
N   N17       1.0  0.99760  0.21500  0.18190  1.0000 -0.345740474
N   N18       1.0  0.49760  0.78500  0.31810  1.0000 -0.345740474
N   N19       1.0  0.00240  0.78500  0.81810  1.0000 -0.345740474
N   N20       1.0  0.50240  0.21500  0.68190  1.0000 -0.345740474
O   O1        1.0  0.92590  0.10660  0.90811  1.0000 -0.5484163878
O   O2        1.0  0.42590  0.89340  0.59189  1.0000 -0.5484163878
O   O3        1.0  0.07410  0.89340  0.09189  1.0000 -0.5484163878
O   O4        1.0  0.57410  0.10660  0.40811  1.0000 -0.5484163878
O   O5        1.0  0.78830  0.12880  0.94202  1.0000 -0.5441569306
O   O6        1.0  0.28830  0.87120  0.55798  1.0000 -0.5441569306
O   O7        1.0  0.21170  0.87120  0.05798  1.0000 -0.5441569306
O   O8        1.0  0.71170  0.12880  0.44202  1.0000 -0.5441569306
O   O9        1.0  0.89290  0.83880  0.99930  1.0000 -0.5484163878
O   O10       1.0  0.39290  0.16120  0.50070  1.0000 -0.5484163878
O   O11       1.0  0.10710  0.16120  0.00070  1.0000 -0.5484163878
O   O12       1.0  0.60710  0.83880  0.49930  1.0000 -0.5484163878
O   O13       1.0  0.78040  0.87950  0.07033  1.0000 -0.5484163878
O   O14       1.0  0.28040  0.12050  0.42967  1.0000 -0.5484163878
O   O15       1.0  0.21960  0.12050  0.92967  1.0000 -0.5484163878
O   O16       1.0  0.71960  0.87950  0.57033  1.0000 -0.5484163878
