# DDEC6 charges by PACMAN v1.1 (https://github.com/mtap-research/PACMAN-charge/)
data_2014[ZnGd][nan]3[ASR]1
_chemical_formula_sum              "Gd2 Zn2 H20 C40 N6 O20"
_cell_length_a       10.602
_cell_length_b       11.33
_cell_length_c       12.446
_cell_angle_alpha    86.27
_cell_angle_beta     82.02
_cell_angle_gamma    89.22

_symmetry_space_group_name_H-M    "P 1"
_symmetry_Int_Tables_number       1

loop_
  _symmetry_equiv_pos_as_xyz
  'x, y, z'

loop_
  _atom_site_type_symbol
  _atom_site_label
  _atom_site_symmetry_multiplicity
  _atom_site_fract_x
  _atom_site_fract_y
  _atom_site_fract_z
  _atom_site_occupancy
  _atom_site_charge
Gd  Gd1       1.0  0.42748  0.98598  0.26144  1.0000 1.9610807615
Gd  Gd2       1.0  0.57252  0.01402  0.73856  1.0000 1.9610807615
Zn  Zn1       1.0  0.63184  0.33770  0.29809  1.0000 0.7461139875
Zn  Zn2       1.0  0.36816  0.66230  0.70191  1.0000 0.7461139875
H   H1        1.0  0.32640  0.32000  0.31930  1.0000 0.1205003503
H   H2        1.0  0.67360  0.68000  0.68070  1.0000 0.1205003503
H   H3        1.0  0.18700  0.61650  0.44750  1.0000 0.130124074
H   H4        1.0  0.81300  0.38350  0.55250  1.0000 0.130124074
H   H5        1.0  0.15450  0.43090  0.39000  1.0000 0.1205003503
H   H6        1.0  0.84550  0.56910  0.61000  1.0000 0.1205003503
H   H7        1.0  0.10310  0.29430  0.18270  1.0000 0.1364041361
H   H8        1.0  0.89690  0.70570  0.81730  1.0000 0.1364041361
H   H9        1.0  0.95720  0.02990  0.38950  1.0000 0.1517310756
H   H10       1.0  0.04280  0.97010  0.61050  1.0000 0.1517310756
H   H11       1.0  0.76150  0.11820  0.39330  1.0000 0.130124074
H   H12       1.0  0.23850  0.88180  0.60670  1.0000 0.130124074
H   H13       1.0  0.90460  0.37780  0.19590  1.0000 0.110262649
H   H14       1.0  0.09540  0.62220  0.80410  1.0000 0.110262649
H   H15       1.0  0.70520  0.54050  0.10450  1.0000 0.1205003503
H   H16       1.0  0.29480  0.45950  0.89550  1.0000 0.1205003503
H   H17       1.0  0.68440  0.39790  0.82310  1.0000 0.1205003503
H   H18       1.0  0.31560  0.60210  0.17690  1.0000 0.1205003503
H   H19       1.0  0.72470  0.55970  0.91740  1.0000 0.130124074
H   H20       1.0  0.27530  0.44030  0.08260  1.0000 0.130124074
C   C1        1.0  0.47890  0.54290  0.36820  1.0000 0.0673106182
C   C2        1.0  0.52110  0.45710  0.63180  1.0000 0.0673106182
C   C3        1.0  0.56630  0.17770  0.13700  1.0000 0.5415084678
C   C4        1.0  0.43370  0.82230  0.86300  1.0000 0.5415084678
C   C5        1.0  0.39990  0.73700  0.44640  1.0000 0.6458206492
C   C6        1.0  0.60010  0.26300  0.55360  1.0000 0.6458206492
C   C7        1.0  0.61860  0.58040  0.35610  1.0000 0.527546944
C   C8        1.0  0.38140  0.41960  0.64390  1.0000 0.527546944
C   C9        1.0  0.37890  0.61470  0.41140  1.0000 -0.0703335002
C   C10       1.0  0.62110  0.38530  0.58860  1.0000 -0.0703335002
C   C11       1.0  0.61870  0.28380  0.06740  1.0000 0.0801273956
C   C12       1.0  0.38130  0.71620  0.93260  1.0000 0.0801273956
C   C13       1.0  0.18250  0.09340  0.27930  1.0000 0.5583263355
C   C14       1.0  0.81750  0.90660  0.72070  1.0000 0.5583263355
C   C15       1.0  0.34000  0.39440  0.34290  1.0000 0.0801273956
C   C16       1.0  0.66000  0.60560  0.65710  1.0000 0.0801273956
C   C17       1.0  0.60460  0.18490  0.88950  1.0000 0.5984890181
C   C18       1.0  0.39540  0.81510  0.11050  1.0000 0.5984890181
C   C19       1.0  0.25600  0.57110  0.41910  1.0000 -0.0703335002
C   C20       1.0  0.74400  0.42890  0.58090  1.0000 -0.0703335002
C   C21       1.0  0.05330  0.15050  0.28420  1.0000 0.0323869902
C   C22       1.0  0.94670  0.84950  0.71580  1.0000 0.0323869902
C   C23       1.0  0.23650  0.46070  0.38490  1.0000 -0.1310433579
C   C24       1.0  0.76350  0.53930  0.61510  1.0000 -0.1310433579
C   C25       1.0  0.63240  0.28750  0.95440  1.0000 -0.0265379465
C   C26       1.0  0.36760  0.71250  0.04560  1.0000 -0.0265379465
C   C27       1.0  0.03510  0.25680  0.22640  1.0000 -0.1692588908
C   C28       1.0  0.96490  0.74320  0.77360  1.0000 -0.1692588908
C   C29       1.0  0.94860  0.10020  0.34820  1.0000 -0.141020747
C   C30       1.0  0.05140  0.89980  0.65180  1.0000 -0.141020747
C   C31       1.0  0.83120  0.15430  0.35080  1.0000 0.0801273956
C   C32       1.0  0.16880  0.84570  0.64920  1.0000 0.0801273956
C   C33       1.0  0.91510  0.30610  0.23450  1.0000 0.0673106182
C   C34       1.0  0.08490  0.69390  0.76550  1.0000 0.0673106182
C   C35       1.0  0.68640  0.47630  0.06670  1.0000 0.0801273956
C   C36       1.0  0.31360  0.52370  0.93330  1.0000 0.0801273956
C   C37       1.0  0.67370  0.39210  0.89870  1.0000 -0.0703335002
C   C38       1.0  0.32630  0.60790  0.10130  1.0000 -0.0703335002
C   C39       1.0  0.69930  0.48820  0.95450  1.0000 -0.141020747
C   C40       1.0  0.30070  0.51180  0.04550  1.0000 -0.141020747
N   N1        1.0  0.45970  0.43460  0.33540  1.0000 -0.2386193108
N   N2        1.0  0.54030  0.56540  0.66460  1.0000 -0.2386193108
N   N3        1.0  0.81300  0.25700  0.29450  1.0000 -0.2041203287
N   N4        1.0  0.18700  0.74300  0.70550  1.0000 -0.2041203287
N   N5        1.0  0.64770  0.37540  0.12270  1.0000 -0.2522842196
N   N6        1.0  0.35230  0.62460  0.87730  1.0000 -0.2522842196
O   O1        1.0  0.53420  0.08880  0.09370  1.0000 -0.5317236316
O   O2        1.0  0.46580  0.91120  0.90630  1.0000 -0.5317236316
O   O3        1.0  0.55300  0.18390  0.24000  1.0000 -0.6182138008
O   O4        1.0  0.44700  0.81610  0.76000  1.0000 -0.6182138008
O   O5        1.0  0.19730  0.99880  0.33540  1.0000 -0.6106336993
O   O6        1.0  0.80270  0.00120  0.66460  1.0000 -0.6106336993
O   O7        1.0  0.27590  0.14200  0.21750  1.0000 -0.6431091708
O   O8        1.0  0.72410  0.85800  0.78250  1.0000 -0.6431091708
O   O9        1.0  0.41740  0.74910  0.54270  1.0000 -0.5317236316
O   O10       1.0  0.58260  0.25090  0.45730  1.0000 -0.5317236316
O   O11       1.0  0.70050  0.50260  0.32490  1.0000 -0.5599066896
O   O12       1.0  0.29950  0.49740  0.67510  1.0000 -0.5599066896
O   O13       1.0  0.69400  0.11340  0.86120  1.0000 -0.5881143641
O   O14       1.0  0.30600  0.88660  0.13880  1.0000 -0.5881143641
O   O15       1.0  0.39200  0.82020  0.37690  1.0000 -0.6643925887
O   O16       1.0  0.60800  0.17980  0.62310  1.0000 -0.6643925887
O   O17       1.0  0.49800  0.17890  0.85840  1.0000 -0.5881143641
O   O18       1.0  0.50200  0.82110  0.14160  1.0000 -0.5881143641
O   O19       1.0  0.64160  0.68250  0.37660  1.0000 -0.4863374663
O   O20       1.0  0.35840  0.31750  0.62340  1.0000 -0.4863374663
