# DDEC6 charges by PACMAN v1.1 (https://github.com/mtap-research/PACMAN-charge/)
data_2014[Fe][acs]3[ASR]2
_chemical_formula_sum              "Fe12 H192 C264 O52"
_cell_length_a       11.87
_cell_length_b       24.763
_cell_length_c       31.338
_cell_angle_alpha    90
_cell_angle_beta     90
_cell_angle_gamma    90

_symmetry_space_group_name_H-M    "P 1"
_symmetry_Int_Tables_number       1

loop_
  _symmetry_equiv_pos_as_xyz
  'x, y, z'

loop_
  _atom_site_type_symbol
  _atom_site_label
  _atom_site_symmetry_multiplicity
  _atom_site_fract_x
  _atom_site_fract_y
  _atom_site_fract_z
  _atom_site_occupancy
  _atom_site_charge
Fe  Fe1       1.0  0.45453  0.61115  0.25000  1.0000 1.2280826233
Fe  Fe2       1.0  0.04547  0.11115  0.75000  1.0000 1.2280826233
Fe  Fe3       1.0  0.95453  0.88885  0.25000  1.0000 1.2280826233
Fe  Fe4       1.0  0.54547  0.38885  0.75000  1.0000 1.2280826233
Fe  Fe5       1.0  0.71491  0.56166  0.25000  1.0000 1.1612049303
Fe  Fe6       1.0  0.78509  0.06166  0.75000  1.0000 1.1612049303
Fe  Fe7       1.0  0.21491  0.93834  0.25000  1.0000 1.1612049303
Fe  Fe8       1.0  0.28509  0.43834  0.75000  1.0000 1.1612049303
Fe  Fe9       1.0  0.49182  0.48104  0.25000  1.0000 1.2430216632
Fe  Fe10      1.0  0.00818  0.98104  0.75000  1.0000 1.2430216632
Fe  Fe11      1.0  0.99182  0.01896  0.25000  1.0000 1.2430216632
Fe  Fe12      1.0  0.50818  0.51896  0.75000  1.0000 1.2430216632
H   H1        1.0  0.95090  0.85810  0.06360  1.0000 0.1480948366
H   H2        1.0  0.54910  0.35810  0.93640  1.0000 0.1480948366
H   H3        1.0  0.45090  0.64190  0.43640  1.0000 0.1480948366
H   H4        1.0  0.04910  0.14190  0.56360  1.0000 0.1480948366
H   H5        1.0  0.04910  0.14190  0.93640  1.0000 0.1480948366
H   H6        1.0  0.45090  0.64190  0.06360  1.0000 0.1480948366
H   H7        1.0  0.54910  0.35810  0.56360  1.0000 0.1480948366
H   H8        1.0  0.95090  0.85810  0.43640  1.0000 0.1480948366
H   H9        1.0  0.89090  0.81540  0.09440  1.0000 0.1406898729
H   H10       1.0  0.60910  0.31540  0.90560  1.0000 0.1406898729
H   H11       1.0  0.39090  0.68460  0.40560  1.0000 0.1406898729
H   H12       1.0  0.10910  0.18460  0.59440  1.0000 0.1406898729
H   H13       1.0  0.10910  0.18460  0.90560  1.0000 0.1406898729
H   H14       1.0  0.39090  0.68460  0.09440  1.0000 0.1406898729
H   H15       1.0  0.60910  0.31540  0.59440  1.0000 0.1406898729
H   H16       1.0  0.89090  0.81540  0.40560  1.0000 0.1406898729
H   H17       1.0  0.96370  0.79480  0.05470  1.0000 0.129703357
H   H18       1.0  0.53630  0.29480  0.94530  1.0000 0.129703357
H   H19       1.0  0.46370  0.70520  0.44530  1.0000 0.129703357
H   H20       1.0  0.03630  0.20520  0.55470  1.0000 0.129703357
H   H21       1.0  0.03630  0.20520  0.94530  1.0000 0.129703357
H   H22       1.0  0.46370  0.70520  0.05470  1.0000 0.129703357
H   H23       1.0  0.53630  0.29480  0.55470  1.0000 0.129703357
H   H24       1.0  0.96370  0.79480  0.44530  1.0000 0.129703357
H   H25       1.0  0.45950  0.81080  0.96580  1.0000 0.1406898729
H   H26       1.0  0.04050  0.31080  0.03420  1.0000 0.1406898729
H   H27       1.0  0.95950  0.68920  0.53420  1.0000 0.1406898729
H   H28       1.0  0.54050  0.18920  0.46580  1.0000 0.1406898729
H   H29       1.0  0.54050  0.18920  0.03420  1.0000 0.1406898729
H   H30       1.0  0.95950  0.68920  0.96580  1.0000 0.1406898729
H   H31       1.0  0.04050  0.31080  0.46580  1.0000 0.1406898729
H   H32       1.0  0.45950  0.81080  0.53420  1.0000 0.1406898729
H   H33       1.0  0.48530  0.87280  0.95530  1.0000 0.129703357
H   H34       1.0  0.01470  0.37280  0.04470  1.0000 0.129703357
H   H35       1.0  0.98530  0.62720  0.54470  1.0000 0.129703357
H   H36       1.0  0.51470  0.12720  0.45530  1.0000 0.129703357
H   H37       1.0  0.51470  0.12720  0.04470  1.0000 0.129703357
H   H38       1.0  0.98530  0.62720  0.95530  1.0000 0.129703357
H   H39       1.0  0.01470  0.37280  0.45530  1.0000 0.129703357
H   H40       1.0  0.48530  0.87280  0.54470  1.0000 0.129703357
H   H41       1.0  0.53670  0.82610  0.92570  1.0000 0.1406898729
H   H42       1.0  0.96330  0.32610  0.07430  1.0000 0.1406898729
H   H43       1.0  0.03670  0.67390  0.57430  1.0000 0.1406898729
H   H44       1.0  0.46330  0.17390  0.42570  1.0000 0.1406898729
H   H45       1.0  0.46330  0.17390  0.07430  1.0000 0.1406898729
H   H46       1.0  0.03670  0.67390  0.92570  1.0000 0.1406898729
H   H47       1.0  0.96330  0.32610  0.42570  1.0000 0.1406898729
H   H48       1.0  0.53670  0.82610  0.57430  1.0000 0.1406898729
H   H49       1.0  0.16810  0.45460  0.01490  1.0000 0.1205549767
H   H50       1.0  0.33190  0.95460  0.98510  1.0000 0.1205549767
H   H51       1.0  0.66810  0.04540  0.48510  1.0000 0.1205549767
H   H52       1.0  0.83190  0.54540  0.51490  1.0000 0.1205549767
H   H53       1.0  0.83190  0.54540  0.98510  1.0000 0.1205549767
H   H54       1.0  0.66810  0.04540  0.01490  1.0000 0.1205549767
H   H55       1.0  0.33190  0.95460  0.51490  1.0000 0.1205549767
H   H56       1.0  0.16810  0.45460  0.48510  1.0000 0.1205549767
H   H57       1.0  0.93780  0.61410  0.05640  1.0000 0.1406898729
H   H58       1.0  0.56220  0.11410  0.94360  1.0000 0.1406898729
H   H59       1.0  0.43780  0.88590  0.44360  1.0000 0.1406898729
H   H60       1.0  0.06220  0.38590  0.55640  1.0000 0.1406898729
H   H61       1.0  0.06220  0.38590  0.94360  1.0000 0.1406898729
H   H62       1.0  0.43780  0.88590  0.05640  1.0000 0.1406898729
H   H63       1.0  0.56220  0.11410  0.55640  1.0000 0.1406898729
H   H64       1.0  0.93780  0.61410  0.44360  1.0000 0.1406898729
H   H65       1.0  0.82110  0.58200  0.05250  1.0000 0.1480948366
H   H66       1.0  0.67890  0.08200  0.94750  1.0000 0.1480948366
H   H67       1.0  0.32110  0.91800  0.44750  1.0000 0.1480948366
H   H68       1.0  0.17890  0.41800  0.55250  1.0000 0.1480948366
H   H69       1.0  0.17890  0.41800  0.94750  1.0000 0.1480948366
H   H70       1.0  0.32110  0.91800  0.05250  1.0000 0.1480948366
H   H71       1.0  0.67890  0.08200  0.55250  1.0000 0.1480948366
H   H72       1.0  0.82110  0.58200  0.44750  1.0000 0.1480948366
H   H73       1.0  0.90950  0.56630  0.08900  1.0000 0.1406898729
H   H74       1.0  0.59050  0.06630  0.91100  1.0000 0.1406898729
H   H75       1.0  0.40950  0.93370  0.41100  1.0000 0.1406898729
H   H76       1.0  0.09050  0.43370  0.58900  1.0000 0.1406898729
H   H77       1.0  0.09050  0.43370  0.91100  1.0000 0.1406898729
H   H78       1.0  0.40950  0.93370  0.08900  1.0000 0.1406898729
H   H79       1.0  0.59050  0.06630  0.58900  1.0000 0.1406898729
H   H80       1.0  0.90950  0.56630  0.41100  1.0000 0.1406898729
H   H81       1.0  0.79930  0.65650  0.13290  1.0000 0.1205549767
H   H82       1.0  0.70070  0.15650  0.86710  1.0000 0.1205549767
H   H83       1.0  0.29930  0.84350  0.36710  1.0000 0.1205549767
H   H84       1.0  0.20070  0.34350  0.63290  1.0000 0.1205549767
H   H85       1.0  0.20070  0.34350  0.86710  1.0000 0.1205549767
H   H86       1.0  0.29930  0.84350  0.13290  1.0000 0.1205549767
H   H87       1.0  0.70070  0.15650  0.63290  1.0000 0.1205549767
H   H88       1.0  0.79930  0.65650  0.36710  1.0000 0.1205549767
H   H89       1.0  0.83340  0.71710  0.07710  1.0000 0.1205549767
H   H90       1.0  0.66667  0.21710  0.92290  1.0000 0.1205549767
H   H91       1.0  0.33340  0.78290  0.42290  1.0000 0.1205549767
H   H92       1.0  0.16660  0.28290  0.57710  1.0000 0.1205549767
H   H93       1.0  0.16660  0.28290  0.92290  1.0000 0.1205549767
H   H94       1.0  0.33340  0.78290  0.07710  1.0000 0.1205549767
H   H95       1.0  0.66667  0.21710  0.57710  1.0000 0.1205549767
H   H96       1.0  0.83340  0.71710  0.42290  1.0000 0.1205549767
H   H97       1.0  0.54910  0.79940  0.10750  1.0000 0.1205549767
H   H98       1.0  0.95090  0.29940  0.89250  1.0000 0.1205549767
H   H99       1.0  0.04910  0.70060  0.39250  1.0000 0.1205549767
H   H100      1.0  0.45090  0.20060  0.60750  1.0000 0.1205549767
H   H101      1.0  0.45090  0.20060  0.89250  1.0000 0.1205549767
H   H102      1.0  0.04910  0.70060  0.10750  1.0000 0.1205549767
H   H103      1.0  0.95090  0.29940  0.60750  1.0000 0.1205549767
H   H104      1.0  0.54910  0.79940  0.39250  1.0000 0.1205549767
H   H105      1.0  0.51490  0.73880  0.16300  1.0000 0.129703357
H   H106      1.0  0.98510  0.23880  0.83700  1.0000 0.129703357
H   H107      1.0  0.01490  0.76120  0.33700  1.0000 0.129703357
H   H108      1.0  0.48510  0.26120  0.66300  1.0000 0.129703357
H   H109      1.0  0.48510  0.26120  0.83700  1.0000 0.129703357
H   H110      1.0  0.01490  0.76120  0.16300  1.0000 0.129703357
H   H111      1.0  0.98510  0.23880  0.66300  1.0000 0.129703357
H   H112      1.0  0.51490  0.73880  0.33700  1.0000 0.129703357
H   H113      1.0  0.88470  0.87090  0.99180  1.0000 0.1205549767
H   H114      1.0  0.61530  0.37090  0.00820  1.0000 0.1205549767
H   H115      1.0  0.38470  0.62910  0.50820  1.0000 0.1205549767
H   H116      1.0  0.11530  0.12910  0.49180  1.0000 0.1205549767
H   H117      1.0  0.11530  0.12910  0.00820  1.0000 0.1205549767
H   H118      1.0  0.38470  0.62910  0.99180  1.0000 0.1205549767
H   H119      1.0  0.61530  0.37090  0.49180  1.0000 0.1205549767
H   H120      1.0  0.88470  0.87090  0.50820  1.0000 0.1205549767
H   H121      1.0  0.54540  0.78740  0.02890  1.0000 0.1205549767
H   H122      1.0  0.95460  0.28740  0.97110  1.0000 0.1205549767
H   H123      1.0  0.04540  0.71260  0.47110  1.0000 0.1205549767
H   H124      1.0  0.45460  0.21260  0.52890  1.0000 0.1205549767
H   H125      1.0  0.45460  0.21260  0.97110  1.0000 0.1205549767
H   H126      1.0  0.04540  0.71260  0.02890  1.0000 0.1205549767
H   H127      1.0  0.95460  0.28740  0.52890  1.0000 0.1205549767
H   H128      1.0  0.54540  0.78740  0.47110  1.0000 0.1205549767
H   H129      1.0  0.88480  0.84470  0.91660  1.0000 0.1205549767
H   H130      1.0  0.61520  0.34470  0.08340  1.0000 0.1205549767
H   H131      1.0  0.38480  0.65530  0.58340  1.0000 0.1205549767
H   H132      1.0  0.11520  0.15530  0.41660  1.0000 0.1205549767
H   H133      1.0  0.11520  0.15530  0.08340  1.0000 0.1205549767
H   H134      1.0  0.38480  0.65530  0.91660  1.0000 0.1205549767
H   H135      1.0  0.61520  0.34470  0.41660  1.0000 0.1205549767
H   H136      1.0  0.88480  0.84470  0.58340  1.0000 0.1205549767
H   H137      1.0  0.92320  0.88820  0.85210  1.0000 0.129703357
H   H138      1.0  0.57680  0.38820  0.14790  1.0000 0.129703357
H   H139      1.0  0.42320  0.61180  0.64790  1.0000 0.129703357
H   H140      1.0  0.07680  0.11180  0.35210  1.0000 0.129703357
H   H141      1.0  0.07680  0.11180  0.14790  1.0000 0.129703357
H   H142      1.0  0.42320  0.61180  0.85210  1.0000 0.129703357
H   H143      1.0  0.57680  0.38820  0.35210  1.0000 0.129703357
H   H144      1.0  0.92320  0.88820  0.64790  1.0000 0.129703357
H   H145      1.0  0.64310  0.98020  0.86700  1.0000 0.1205549767
H   H146      1.0  0.85690  0.48020  0.13300  1.0000 0.1205549767
H   H147      1.0  0.14310  0.51980  0.63300  1.0000 0.1205549767
H   H148      1.0  0.35690  0.01980  0.36700  1.0000 0.1205549767
H   H149      1.0  0.35690  0.01980  0.13300  1.0000 0.1205549767
H   H150      1.0  0.14310  0.51980  0.86700  1.0000 0.1205549767
H   H151      1.0  0.85690  0.48020  0.36700  1.0000 0.1205549767
H   H152      1.0  0.64310  0.98020  0.63300  1.0000 0.1205549767
H   H153      1.0  0.60500  0.93660  0.93170  1.0000 0.1104868724
H   H154      1.0  0.89500  0.43660  0.06830  1.0000 0.1104868724
H   H155      1.0  0.10500  0.56340  0.56830  1.0000 0.1104868724
H   H156      1.0  0.39500  0.06340  0.43170  1.0000 0.1104868724
H   H157      1.0  0.39500  0.06340  0.06830  1.0000 0.1104868724
H   H158      1.0  0.10500  0.56340  0.93170  1.0000 0.1104868724
H   H159      1.0  0.89500  0.43660  0.43170  1.0000 0.1104868724
H   H160      1.0  0.60500  0.93660  0.56830  1.0000 0.1104868724
H   H161      1.0  0.25190  0.61070  0.13560  1.0000 0.1205549767
H   H162      1.0  0.24810  0.11070  0.86440  1.0000 0.1205549767
H   H163      1.0  0.75190  0.88930  0.36440  1.0000 0.1205549767
H   H164      1.0  0.74810  0.38930  0.63560  1.0000 0.1205549767
H   H165      1.0  0.74810  0.38930  0.86440  1.0000 0.1205549767
H   H166      1.0  0.75190  0.88930  0.13560  1.0000 0.1205549767
H   H167      1.0  0.24810  0.11070  0.63560  1.0000 0.1205549767
H   H168      1.0  0.25190  0.61070  0.36440  1.0000 0.1205549767
H   H169      1.0  0.14180  0.60120  0.07430  1.0000 0.1104868724
H   H170      1.0  0.35820  0.10120  0.92570  1.0000 0.1104868724
H   H171      1.0  0.64180  0.89880  0.42570  1.0000 0.1104868724
H   H172      1.0  0.85820  0.39880  0.57430  1.0000 0.1104868724
H   H173      1.0  0.85820  0.39880  0.92570  1.0000 0.1104868724
H   H174      1.0  0.64180  0.89880  0.07430  1.0000 0.1104868724
H   H175      1.0  0.35820  0.10120  0.57430  1.0000 0.1104868724
H   H176      1.0  0.14180  0.60120  0.42570  1.0000 0.1104868724
H   H177      1.0  0.12760  0.43960  0.09410  1.0000 0.1205549767
H   H178      1.0  0.37240  0.93960  0.90590  1.0000 0.1205549767
H   H179      1.0  0.62760  0.06040  0.40590  1.0000 0.1205549767
H   H180      1.0  0.87240  0.56040  0.59410  1.0000 0.1205549767
H   H181      1.0  0.87240  0.56040  0.90590  1.0000 0.1205549767
H   H182      1.0  0.62760  0.06040  0.09410  1.0000 0.1205549767
H   H183      1.0  0.37240  0.93960  0.59410  1.0000 0.1205549767
H   H184      1.0  0.12760  0.43960  0.40590  1.0000 0.1205549767
H   H185      1.0  0.23900  0.44900  0.15490  1.0000 0.1205549767
H   H186      1.0  0.26100  0.94900  0.84510  1.0000 0.1205549767
H   H187      1.0  0.73900  0.05100  0.34510  1.0000 0.1205549767
H   H188      1.0  0.76100  0.55100  0.65490  1.0000 0.1205549767
H   H189      1.0  0.76100  0.55100  0.84510  1.0000 0.1205549767
H   H190      1.0  0.73900  0.05100  0.15490  1.0000 0.1205549767
H   H191      1.0  0.26100  0.94900  0.65490  1.0000 0.1205549767
H   H192      1.0  0.23900  0.44900  0.34510  1.0000 0.1205549767
C   C1        1.0  0.62910  0.65180  0.18920  1.0000 0.6011119447
C   C2        1.0  0.87090  0.15180  0.81080  1.0000 0.6011119447
C   C3        1.0  0.12910  0.84820  0.31080  1.0000 0.6011119447
C   C4        1.0  0.37090  0.34820  0.68920  1.0000 0.6011119447
C   C5        1.0  0.37090  0.34820  0.81080  1.0000 0.6011119447
C   C6        1.0  0.12910  0.84820  0.18920  1.0000 0.6011119447
C   C7        1.0  0.87090  0.15180  0.68920  1.0000 0.6011119447
C   C8        1.0  0.62910  0.65180  0.31080  1.0000 0.6011119447
C   C9        1.0  0.91270  0.82310  0.06490  1.0000 -0.4614461996
C   C10       1.0  0.58730  0.32310  0.93510  1.0000 -0.4614461996
C   C11       1.0  0.41270  0.67690  0.43510  1.0000 -0.4614461996
C   C12       1.0  0.08730  0.17690  0.56490  1.0000 -0.4614461996
C   C13       1.0  0.08730  0.17690  0.93510  1.0000 -0.4614461996
C   C14       1.0  0.41270  0.67690  0.06490  1.0000 -0.4614461996
C   C15       1.0  0.58730  0.32310  0.56490  1.0000 -0.4614461996
C   C16       1.0  0.91270  0.82310  0.43510  1.0000 -0.4614461996
C   C17       1.0  0.51620  0.83610  0.95500  1.0000 -0.4524653256
C   C18       1.0  0.98380  0.33610  0.04500  1.0000 -0.4524653256
C   C19       1.0  0.01620  0.66390  0.54500  1.0000 -0.4524653256
C   C20       1.0  0.48380  0.16390  0.45500  1.0000 -0.4524653256
C   C21       1.0  0.48380  0.16390  0.04500  1.0000 -0.4524653256
C   C22       1.0  0.01620  0.66390  0.95500  1.0000 -0.4524653256
C   C23       1.0  0.98380  0.33610  0.45500  1.0000 -0.4524653256
C   C24       1.0  0.51620  0.83610  0.54500  1.0000 -0.4524653256
C   C25       1.0  0.81790  0.96710  0.81300  1.0000 0.6086504521
C   C26       1.0  0.68210  0.46710  0.18700  1.0000 0.6086504521
C   C27       1.0  0.31790  0.53290  0.68700  1.0000 0.6086504521
C   C28       1.0  0.18210  0.03290  0.31300  1.0000 0.6086504521
C   C29       1.0  0.18210  0.03290  0.18700  1.0000 0.6086504521
C   C30       1.0  0.31790  0.53290  0.81300  1.0000 0.6086504521
C   C31       1.0  0.68210  0.46710  0.31300  1.0000 0.6086504521
C   C32       1.0  0.81790  0.96710  0.68700  1.0000 0.6086504521
C   C33       1.0  0.33380  0.53770  0.18910  1.0000 0.6086504521
C   C34       1.0  0.16620  0.03770  0.81090  1.0000 0.6011119447
C   C35       1.0  0.83380  0.96230  0.31090  1.0000 0.6086504521
C   C36       1.0  0.66620  0.46230  0.68910  1.0000 0.6011119447
C   C37       1.0  0.66620  0.46230  0.81090  1.0000 0.6011119447
C   C38       1.0  0.83380  0.96230  0.18910  1.0000 0.6086504521
C   C39       1.0  0.16620  0.03770  0.68910  1.0000 0.6011119447
C   C40       1.0  0.33380  0.53770  0.31090  1.0000 0.6086504521
C   C41       1.0  0.05790  0.51050  0.03776  1.0000 -0.0011897984
C   C42       1.0  0.44210  0.01050  0.96224  1.0000 -0.0011897984
C   C43       1.0  0.55790  0.98950  0.46224  1.0000 -0.0011897984
C   C44       1.0  0.94210  0.48950  0.53776  1.0000 -0.0011897984
C   C45       1.0  0.94210  0.48950  0.96224  1.0000 -0.0011897984
C   C46       1.0  0.55790  0.98950  0.03776  1.0000 -0.0011897984
C   C47       1.0  0.44210  0.01050  0.53776  1.0000 -0.0011897984
C   C48       1.0  0.05790  0.51050  0.46224  1.0000 -0.0011897984
C   C49       1.0  0.95760  0.53760  0.02893  1.0000 0.1205549767
C   C50       1.0  0.54240  0.03760  0.97107  1.0000 0.1205549767
C   C51       1.0  0.45760  0.96240  0.47107  1.0000 0.129703357
C   C52       1.0  0.04240  0.46240  0.52893  1.0000 0.1205549767
C   C53       1.0  0.04240  0.46240  0.97107  1.0000 0.1205549767
C   C54       1.0  0.45760  0.96240  0.02893  1.0000 0.1205549767
C   C55       1.0  0.54240  0.03760  0.52893  1.0000 0.1205549767
C   C56       1.0  0.95760  0.53760  0.47107  1.0000 0.1205549767
C   C57       1.0  0.09980  0.47310  0.00888  1.0000 -0.2207573243
C   C58       1.0  0.40020  0.97310  0.99112  1.0000 -0.2207573243
C   C59       1.0  0.59980  0.02690  0.49112  1.0000 -0.2207573243
C   C60       1.0  0.90020  0.52690  0.50888  1.0000 -0.2207573243
C   C61       1.0  0.90020  0.52690  0.99112  1.0000 -0.2207573243
C   C62       1.0  0.59980  0.02690  0.00888  1.0000 -0.2207573243
C   C63       1.0  0.40020  0.97310  0.50888  1.0000 -0.2207573243
C   C64       1.0  0.09980  0.47310  0.49112  1.0000 -0.2207573243
C   C65       1.0  0.90130  0.57880  0.05950  1.0000 -0.4614461996
C   C66       1.0  0.59870  0.07880  0.94050  1.0000 -0.4614461996
C   C67       1.0  0.40130  0.92120  0.44050  1.0000 -0.4614461996
C   C68       1.0  0.09870  0.42120  0.55950  1.0000 -0.4614461996
C   C69       1.0  0.09870  0.42120  0.94050  1.0000 -0.4614461996
C   C70       1.0  0.40130  0.92120  0.05950  1.0000 -0.4614461996
C   C71       1.0  0.59870  0.07880  0.55950  1.0000 -0.4614461996
C   C72       1.0  0.90130  0.57880  0.44050  1.0000 -0.4614461996
C   C73       1.0  0.65380  0.69190  0.15335  1.0000 -0.023100874
C   C74       1.0  0.84620  0.19190  0.84665  1.0000 -0.023100874
C   C75       1.0  0.15380  0.80810  0.34665  1.0000 -0.023100874
C   C76       1.0  0.34620  0.30810  0.65335  1.0000 -0.023100874
C   C77       1.0  0.34620  0.30810  0.84665  1.0000 -0.023100874
C   C78       1.0  0.15380  0.80810  0.15335  1.0000 -0.023100874
C   C79       1.0  0.84620  0.19190  0.65335  1.0000 -0.023100874
C   C80       1.0  0.65380  0.69190  0.34665  1.0000 -0.023100874
C   C81       1.0  0.74850  0.68550  0.12773  1.0000 -0.0982073332
C   C82       1.0  0.75150  0.18550  0.87227  1.0000 -0.0982073332
C   C83       1.0  0.24850  0.81450  0.37227  1.0000 -0.0982073332
C   C84       1.0  0.25150  0.31450  0.62773  1.0000 -0.0982073332
C   C85       1.0  0.25150  0.31450  0.87227  1.0000 -0.0982073332
C   C86       1.0  0.24850  0.81450  0.12773  1.0000 -0.0982073332
C   C87       1.0  0.75150  0.18550  0.62773  1.0000 -0.0982073332
C   C88       1.0  0.74850  0.68550  0.37227  1.0000 -0.0982073332
C   C89       1.0  0.76860  0.72140  0.09457  1.0000 -0.1495929932
C   C90       1.0  0.73140  0.22140  0.90543  1.0000 -0.1495929932
C   C91       1.0  0.26860  0.77860  0.40543  1.0000 -0.1495929932
C   C92       1.0  0.23140  0.27860  0.59457  1.0000 -0.1495929932
C   C93       1.0  0.23140  0.27860  0.90543  1.0000 -0.1495929932
C   C94       1.0  0.26860  0.77860  0.09457  1.0000 -0.1495929932
C   C95       1.0  0.73140  0.22140  0.59457  1.0000 -0.1495929932
C   C96       1.0  0.76860  0.72140  0.40543  1.0000 -0.1495929932
C   C97       1.0  0.69410  0.76400  0.08681  1.0000 0.088054773
C   C98       1.0  0.80590  0.26400  0.91319  1.0000 0.088054773
C   C99       1.0  0.19410  0.73600  0.41319  1.0000 0.088054773
C   C100      1.0  0.30590  0.23600  0.58681  1.0000 0.088054773
C   C101      1.0  0.30590  0.23600  0.91319  1.0000 0.088054773
C   C102      1.0  0.19410  0.73600  0.08681  1.0000 0.088054773
C   C103      1.0  0.80590  0.26400  0.58681  1.0000 0.088054773
C   C104      1.0  0.69410  0.76400  0.41319  1.0000 0.088054773
C   C105      1.0  0.59970  0.77040  0.11255  1.0000 -0.155967108
C   C106      1.0  0.90030  0.27040  0.88745  1.0000 -0.155967108
C   C107      1.0  0.09970  0.72960  0.38745  1.0000 -0.155967108
C   C108      1.0  0.40030  0.22960  0.61255  1.0000 -0.155967108
C   C109      1.0  0.40030  0.22960  0.88745  1.0000 -0.155967108
C   C110      1.0  0.09970  0.72960  0.11255  1.0000 -0.155967108
C   C111      1.0  0.90030  0.27040  0.61255  1.0000 -0.155967108
C   C112      1.0  0.59970  0.77040  0.38745  1.0000 -0.155967108
C   C113      1.0  0.57960  0.73440  0.14556  1.0000 -0.0924376814
C   C114      1.0  0.92040  0.23440  0.85444  1.0000 -0.0924376814
C   C115      1.0  0.07960  0.76560  0.35444  1.0000 -0.0924376814
C   C116      1.0  0.42040  0.26560  0.64556  1.0000 -0.0924376814
C   C117      1.0  0.42040  0.26560  0.85444  1.0000 -0.0924376814
C   C118      1.0  0.07960  0.76560  0.14556  1.0000 -0.0924376814
C   C119      1.0  0.92040  0.23440  0.64556  1.0000 -0.0924376814
C   C120      1.0  0.57960  0.73440  0.35444  1.0000 -0.0924376814
C   C121      1.0  0.70760  0.79980  0.04781  1.0000 0.0073563954
C   C122      1.0  0.79240  0.29980  0.95219  1.0000 0.0073563954
C   C123      1.0  0.20760  0.70020  0.45219  1.0000 0.0073563954
C   C124      1.0  0.29240  0.20020  0.54781  1.0000 0.0073563954
C   C125      1.0  0.29240  0.20020  0.95219  1.0000 0.0073563954
C   C126      1.0  0.20760  0.70020  0.04781  1.0000 0.0073563954
C   C127      1.0  0.79240  0.29980  0.54781  1.0000 0.0073563954
C   C128      1.0  0.70760  0.79980  0.45219  1.0000 0.0073563954
C   C129      1.0  0.80880  0.82450  0.03712  1.0000 0.1205549767
C   C130      1.0  0.69120  0.32450  0.96288  1.0000 0.1205549767
C   C131      1.0  0.30880  0.67550  0.46288  1.0000 0.1205549767
C   C132      1.0  0.19120  0.17550  0.53712  1.0000 0.1205549767
C   C133      1.0  0.19120  0.17550  0.96288  1.0000 0.1205549767
C   C134      1.0  0.30880  0.67550  0.03712  1.0000 0.1205549767
C   C135      1.0  0.69120  0.32450  0.53712  1.0000 0.1205549767
C   C136      1.0  0.80880  0.82450  0.46288  1.0000 0.1205549767
C   C137      1.0  0.81570  0.85390  0.99932  1.0000 -0.2134906985
C   C138      1.0  0.68430  0.35390  0.00068  1.0000 -0.2134906985
C   C139      1.0  0.31570  0.64610  0.50068  1.0000 -0.2134906985
C   C140      1.0  0.18430  0.14610  0.49932  1.0000 -0.2134906985
C   C141      1.0  0.18430  0.14610  0.00068  1.0000 -0.2134906985
C   C142      1.0  0.31570  0.64610  0.99932  1.0000 -0.2134906985
C   C143      1.0  0.68430  0.35390  0.49932  1.0000 -0.2134906985
C   C144      1.0  0.81570  0.85390  0.50068  1.0000 -0.2134906985
C   C145      1.0  0.72270  0.85860  0.97227  1.0000 0.0073563954
C   C146      1.0  0.77730  0.35860  0.02773  1.0000 0.0073563954
C   C147      1.0  0.22270  0.64140  0.52773  1.0000 0.0073563954
C   C148      1.0  0.27730  0.14140  0.47227  1.0000 0.0073563954
C   C149      1.0  0.27730  0.14140  0.02773  1.0000 0.0073563954
C   C150      1.0  0.22270  0.64140  0.97227  1.0000 0.0073563954
C   C151      1.0  0.77730  0.35860  0.47227  1.0000 0.0073563954
C   C152      1.0  0.72270  0.85860  0.52773  1.0000 0.0073563954
C   C153      1.0  0.62130  0.83380  0.98347  1.0000 0.129703357
C   C154      1.0  0.87870  0.33380  0.01653  1.0000 0.129703357
C   C155      1.0  0.12130  0.66620  0.51653  1.0000 0.129703357
C   C156      1.0  0.37870  0.16620  0.48347  1.0000 0.129703357
C   C157      1.0  0.37870  0.16620  0.01653  1.0000 0.129703357
C   C158      1.0  0.12130  0.66620  0.98347  1.0000 0.129703357
C   C159      1.0  0.87870  0.33380  0.48347  1.0000 0.129703357
C   C160      1.0  0.62130  0.83380  0.51653  1.0000 0.129703357
C   C161      1.0  0.61430  0.80440  0.02123  1.0000 -0.2207573243
C   C162      1.0  0.88570  0.30440  0.97877  1.0000 -0.2207573243
C   C163      1.0  0.11430  0.69560  0.47877  1.0000 -0.2207573243
C   C164      1.0  0.38570  0.19560  0.52123  1.0000 -0.2207573243
C   C165      1.0  0.38570  0.19560  0.97877  1.0000 -0.2207573243
C   C166      1.0  0.11430  0.69560  0.02123  1.0000 -0.2207573243
C   C167      1.0  0.88570  0.30440  0.52123  1.0000 -0.2207573243
C   C168      1.0  0.61430  0.80440  0.47877  1.0000 -0.2207573243
C   C169      1.0  0.74120  0.88640  0.93034  1.0000 0.088054773
C   C170      1.0  0.75880  0.38640  0.06966  1.0000 0.088054773
C   C171      1.0  0.24120  0.61360  0.56966  1.0000 0.088054773
C   C172      1.0  0.25880  0.11360  0.43034  1.0000 0.088054773
C   C173      1.0  0.25880  0.11360  0.06966  1.0000 0.088054773
C   C174      1.0  0.24120  0.61360  0.93034  1.0000 0.088054773
C   C175      1.0  0.75880  0.38640  0.43034  1.0000 0.088054773
C   C176      1.0  0.74120  0.88640  0.56966  1.0000 0.088054773
C   C177      1.0  0.83570  0.87220  0.90656  1.0000 -0.1495929932
C   C178      1.0  0.66430  0.37220  0.09344  1.0000 -0.1495929932
C   C179      1.0  0.33570  0.62780  0.59344  1.0000 -0.1495929932
C   C180      1.0  0.16430  0.12780  0.40656  1.0000 -0.1495929932
C   C181      1.0  0.16430  0.12780  0.09344  1.0000 -0.1495929932
C   C182      1.0  0.33570  0.62780  0.90656  1.0000 -0.1495929932
C   C183      1.0  0.66430  0.37220  0.40656  1.0000 -0.1495929932
C   C184      1.0  0.83570  0.87220  0.59344  1.0000 -0.1495929932
C   C185      1.0  0.85860  0.89800  0.86821  1.0000 -0.0924376814
C   C186      1.0  0.64140  0.39800  0.13179  1.0000 -0.0924376814
C   C187      1.0  0.35860  0.60200  0.63179  1.0000 -0.0924376814
C   C188      1.0  0.14140  0.10200  0.36821  1.0000 -0.0924376814
C   C189      1.0  0.14140  0.10200  0.13179  1.0000 -0.0924376814
C   C190      1.0  0.35860  0.60200  0.86821  1.0000 -0.0924376814
C   C191      1.0  0.64140  0.39800  0.36821  1.0000 -0.0924376814
C   C192      1.0  0.85860  0.89800  0.63179  1.0000 -0.0924376814
C   C193      1.0  0.78670  0.93840  0.85336  1.0000 -0.0309203747
C   C194      1.0  0.71330  0.43840  0.14664  1.0000 -0.0309203747
C   C195      1.0  0.28670  0.56160  0.64664  1.0000 -0.0309203747
C   C196      1.0  0.21330  0.06160  0.35336  1.0000 -0.0309203747
C   C197      1.0  0.21330  0.06160  0.14664  1.0000 -0.0309203747
C   C198      1.0  0.28670  0.56160  0.85336  1.0000 -0.0309203747
C   C199      1.0  0.71330  0.43840  0.35336  1.0000 -0.0309203747
C   C200      1.0  0.78670  0.93840  0.64664  1.0000 -0.0309203747
C   C201      1.0  0.69210  0.95270  0.87710  1.0000 -0.0982073332
C   C202      1.0  0.80790  0.45270  0.12290  1.0000 -0.0924376814
C   C203      1.0  0.19210  0.54730  0.62290  1.0000 -0.0982073332
C   C204      1.0  0.30790  0.04730  0.37710  1.0000 -0.0982073332
C   C205      1.0  0.30790  0.04730  0.12290  1.0000 -0.0924376814
C   C206      1.0  0.19210  0.54730  0.87710  1.0000 -0.0982073332
C   C207      1.0  0.80790  0.45270  0.37710  1.0000 -0.0982073332
C   C208      1.0  0.69210  0.95270  0.62290  1.0000 -0.0982073332
C   C209      1.0  0.66950  0.92670  0.91552  1.0000 -0.1495929932
C   C210      1.0  0.83050  0.42670  0.08448  1.0000 -0.1495929932
C   C211      1.0  0.16950  0.57330  0.58448  1.0000 -0.1495929932
C   C212      1.0  0.33050  0.07330  0.41552  1.0000 -0.1495929932
C   C213      1.0  0.33050  0.07330  0.08448  1.0000 -0.1495929932
C   C214      1.0  0.16950  0.57330  0.91552  1.0000 -0.1495929932
C   C215      1.0  0.83050  0.42670  0.41552  1.0000 -0.1495929932
C   C216      1.0  0.66950  0.92670  0.58448  1.0000 -0.1495929932
C   C217      1.0  0.25590  0.53100  0.15123  1.0000 -0.023100874
C   C218      1.0  0.24410  0.03100  0.84877  1.0000 -0.023100874
C   C219      1.0  0.75590  0.96900  0.34877  1.0000 -0.023100874
C   C220      1.0  0.74410  0.46900  0.65123  1.0000 -0.023100874
C   C221      1.0  0.74410  0.46900  0.84877  1.0000 -0.023100874
C   C222      1.0  0.75590  0.96900  0.15123  1.0000 -0.023100874
C   C223      1.0  0.24410  0.03100  0.65123  1.0000 -0.023100874
C   C224      1.0  0.25590  0.53100  0.34877  1.0000 -0.023100874
C   C225      1.0  0.22690  0.57590  0.12710  1.0000 -0.0982073332
C   C226      1.0  0.27310  0.07590  0.87290  1.0000 -0.0982073332
C   C227      1.0  0.72690  0.92410  0.37290  1.0000 -0.0982073332
C   C228      1.0  0.77310  0.42410  0.62710  1.0000 -0.0982073332
C   C229      1.0  0.77310  0.42410  0.87290  1.0000 -0.0982073332
C   C230      1.0  0.72690  0.92410  0.12710  1.0000 -0.0982073332
C   C231      1.0  0.27310  0.07590  0.62710  1.0000 -0.0982073332
C   C232      1.0  0.22690  0.57590  0.37290  1.0000 -0.0982073332
C   C233      1.0  0.16150  0.57030  0.09060  1.0000 -0.1443744041
C   C234      1.0  0.33850  0.07030  0.90940  1.0000 -0.1443744041
C   C235      1.0  0.66150  0.92970  0.40940  1.0000 -0.1443744041
C   C236      1.0  0.83850  0.42970  0.59060  1.0000 -0.1443744041
C   C237      1.0  0.83850  0.42970  0.90940  1.0000 -0.1443744041
C   C238      1.0  0.66150  0.92970  0.09060  1.0000 -0.1443744041
C   C239      1.0  0.33850  0.07030  0.59060  1.0000 -0.1443744041
C   C240      1.0  0.16150  0.57030  0.40940  1.0000 -0.1443744041
C   C241      1.0  0.12490  0.51930  0.07788  1.0000 0.088054773
C   C242      1.0  0.37510  0.01930  0.92212  1.0000 0.088054773
C   C243      1.0  0.62490  0.98070  0.42212  1.0000 0.088054773
C   C244      1.0  0.87510  0.48070  0.57788  1.0000 0.088054773
C   C245      1.0  0.87510  0.48070  0.92212  1.0000 0.088054773
C   C246      1.0  0.62490  0.98070  0.07788  1.0000 0.088054773
C   C247      1.0  0.37510  0.01930  0.57788  1.0000 0.088054773
C   C248      1.0  0.12490  0.51930  0.42212  1.0000 0.088054773
C   C249      1.0  0.15340  0.47430  0.10230  1.0000 -0.155967108
C   C250      1.0  0.34660  0.97430  0.89770  1.0000 -0.155967108
C   C251      1.0  0.65340  0.02570  0.39770  1.0000 -0.155967108
C   C252      1.0  0.84660  0.52570  0.60230  1.0000 -0.155967108
C   C253      1.0  0.84660  0.52570  0.89770  1.0000 -0.155967108
C   C254      1.0  0.65340  0.02570  0.10230  1.0000 -0.155967108
C   C255      1.0  0.34660  0.97430  0.60230  1.0000 -0.155967108
C   C256      1.0  0.15340  0.47430  0.39770  1.0000 -0.155967108
C   C257      1.0  0.21910  0.47990  0.13860  1.0000 -0.0924376814
C   C258      1.0  0.28090  0.97990  0.86140  1.0000 -0.0924376814
C   C259      1.0  0.71910  0.02010  0.36140  1.0000 -0.0924376814
C   C260      1.0  0.78090  0.52010  0.63860  1.0000 -0.0924376814
C   C261      1.0  0.78090  0.52010  0.86140  1.0000 -0.0924376814
C   C262      1.0  0.71910  0.02010  0.13860  1.0000 -0.0924376814
C   C263      1.0  0.28090  0.97990  0.63860  1.0000 -0.0924376814
C   C264      1.0  0.21910  0.47990  0.36140  1.0000 -0.0924376814
O   O1        1.0  0.53400  0.65440  0.20509  1.0000 -0.535423819
O   O2        1.0  0.96600  0.15440  0.79491  1.0000 -0.5348678269
O   O3        1.0  0.03400  0.84560  0.29491  1.0000 -0.535423819
O   O4        1.0  0.46600  0.34560  0.70509  1.0000 -0.5348678269
O   O5        1.0  0.46600  0.34560  0.79491  1.0000 -0.5348678269
O   O6        1.0  0.03400  0.84560  0.20509  1.0000 -0.535423819
O   O7        1.0  0.96600  0.15440  0.70509  1.0000 -0.5348678269
O   O8        1.0  0.53400  0.65440  0.29491  1.0000 -0.535423819
O   O9        1.0  0.70640  0.62130  0.20090  1.0000 -0.5500675155
O   O10       1.0  0.79360  0.12130  0.79910  1.0000 -0.5500675155
O   O11       1.0  0.20640  0.87870  0.29910  1.0000 -0.5500675155
O   O12       1.0  0.29360  0.37870  0.70090  1.0000 -0.5500675155
O   O13       1.0  0.29360  0.37870  0.79910  1.0000 -0.5500675155
O   O14       1.0  0.20640  0.87870  0.20090  1.0000 -0.5500675155
O   O15       1.0  0.79360  0.12130  0.70090  1.0000 -0.5500675155
O   O16       1.0  0.70640  0.62130  0.29910  1.0000 -0.5500675155
O   O17       1.0  0.75370  0.00430  0.79973  1.0000 -0.5620143191
O   O18       1.0  0.74630  0.50430  0.20027  1.0000 -0.5620143191
O   O19       1.0  0.25370  0.49570  0.70027  1.0000 -0.5620143191
O   O20       1.0  0.24630  0.99570  0.29973  1.0000 -0.5620143191
O   O21       1.0  0.24630  0.99570  0.20027  1.0000 -0.5620143191
O   O22       1.0  0.25370  0.49570  0.79973  1.0000 -0.5620143191
O   O23       1.0  0.74630  0.50430  0.29973  1.0000 -0.5620143191
O   O24       1.0  0.75370  0.00430  0.70027  1.0000 -0.5620143191
O   O25       1.0  0.90970  0.95200  0.79603  1.0000 -0.5620143191
O   O26       1.0  0.59030  0.45200  0.20397  1.0000 -0.5620143191
O   O27       1.0  0.40970  0.54800  0.70397  1.0000 -0.5620143191
O   O28       1.0  0.09030  0.04800  0.29603  1.0000 -0.5620143191
O   O29       1.0  0.09030  0.04800  0.20397  1.0000 -0.5620143191
O   O30       1.0  0.40970  0.54800  0.79603  1.0000 -0.5620143191
O   O31       1.0  0.59030  0.45200  0.29603  1.0000 -0.5620143191
O   O32       1.0  0.90970  0.95200  0.70397  1.0000 -0.5620143191
O   O33       1.0  0.35070  0.58450  0.20317  1.0000 -0.5500675155
O   O34       1.0  0.14930  0.08450  0.79683  1.0000 -0.5500675155
O   O35       1.0  0.85070  0.91550  0.29683  1.0000 -0.5500675155
O   O36       1.0  0.64930  0.41550  0.70317  1.0000 -0.5500675155
O   O37       1.0  0.64930  0.41550  0.79683  1.0000 -0.5500675155
O   O38       1.0  0.85070  0.91550  0.20317  1.0000 -0.5500675155
O   O39       1.0  0.14930  0.08450  0.70317  1.0000 -0.5500675155
O   O40       1.0  0.35070  0.58450  0.29683  1.0000 -0.5500675155
O   O41       1.0  0.37180  0.49470  0.20484  1.0000 -0.5500675155
O   O42       1.0  0.12820  0.99470  0.79516  1.0000 -0.5500675155
O   O43       1.0  0.87180  0.00530  0.29516  1.0000 -0.5500675155
O   O44       1.0  0.62820  0.50530  0.70484  1.0000 -0.5500675155
O   O45       1.0  0.62820  0.50530  0.79516  1.0000 -0.5500675155
O   O46       1.0  0.87180  0.00530  0.20484  1.0000 -0.5500675155
O   O47       1.0  0.12820  0.99470  0.70484  1.0000 -0.5500675155
O   O48       1.0  0.37180  0.49470  0.29516  1.0000 -0.5500675155
O   O49       1.0  0.54910  0.55170  0.25000  1.0000 -0.9070617892
O   O50       1.0  0.95090  0.05170  0.75000  1.0000 -0.9070617892
O   O51       1.0  0.04910  0.94830  0.25000  1.0000 -0.9070617892
O   O52       1.0  0.45090  0.44830  0.75000  1.0000 -0.9070617892
