# DDEC6 charges by PACMAN v1.1 (https://github.com/mtap-research/PACMAN-charge/)
data_2014[Zn][utp]3[ASR]1
_chemical_formula_sum              "Zn8 H168 C216 N56"
_cell_length_a       9.4743
_cell_length_b       28.0922
_cell_length_c       28.4095
_cell_angle_alpha    90
_cell_angle_beta     90
_cell_angle_gamma    90

_symmetry_space_group_name_H-M    "P 1"
_symmetry_Int_Tables_number       1

loop_
  _symmetry_equiv_pos_as_xyz
  'x, y, z'

loop_
  _atom_site_type_symbol
  _atom_site_label
  _atom_site_symmetry_multiplicity
  _atom_site_fract_x
  _atom_site_fract_y
  _atom_site_fract_z
  _atom_site_occupancy
  _atom_site_charge
Zn  Zn1       1.0  0.90457  0.48882  0.36845  1.0000 0.4477298341
Zn  Zn2       1.0  0.59543  0.98882  0.13155  1.0000 0.4477298341
Zn  Zn3       1.0  0.09543  0.48882  0.86845  1.0000 0.4477298341
Zn  Zn4       1.0  0.40457  0.98882  0.63155  1.0000 0.4477298341
Zn  Zn5       1.0  0.90457  0.51118  0.13155  1.0000 0.4477298341
Zn  Zn6       1.0  0.59543  0.01118  0.36845  1.0000 0.4477298341
Zn  Zn7       1.0  0.09543  0.51118  0.63155  1.0000 0.4477298341
Zn  Zn8       1.0  0.40457  0.01118  0.86845  1.0000 0.4477298341
H   H1        1.0  0.51420  0.88430  0.15290  1.0000 0.1013585378
H   H2        1.0  0.98580  0.38430  0.34710  1.0000 0.1013585378
H   H3        1.0  0.48580  0.88430  0.65290  1.0000 0.1013585378
H   H4        1.0  0.01420  0.38430  0.84710  1.0000 0.1013585378
H   H5        1.0  0.50430  0.69940  0.05720  1.0000 0.1112255309
H   H6        1.0  0.99570  0.19940  0.44280  1.0000 0.1112255309
H   H7        1.0  0.49570  0.69940  0.55720  1.0000 0.1112255309
H   H8        1.0  0.00430  0.19940  0.94280  1.0000 0.1112255309
H   H9        1.0  0.76250  0.83930  0.05000  1.0000 0.1195260545
H   H10       1.0  0.73750  0.33930  0.45000  1.0000 0.1195260545
H   H11       1.0  0.23750  0.83930  0.55000  1.0000 0.1195260545
H   H12       1.0  0.26250  0.33930  0.95000  1.0000 0.1195260545
H   H13       1.0  0.22430  0.69740  0.07350  1.0000 0.1112255309
H   H14       1.0  0.27570  0.19740  0.42650  1.0000 0.1112255309
H   H15       1.0  0.77570  0.69740  0.57350  1.0000 0.1112255309
H   H16       1.0  0.72430  0.19740  0.92650  1.0000 0.1112255309
H   H17       1.0  0.10220  0.66200  0.01290  1.0000 0.1112255309
H   H18       1.0  0.39780  0.16200  0.48710  1.0000 0.1112255309
H   H19       1.0  0.89780  0.66200  0.51290  1.0000 0.1112255309
H   H20       1.0  0.60220  0.16200  0.98710  1.0000 0.1112255309
H   H21       1.0  0.73190  0.60950  0.23220  1.0000 0.1112255309
H   H22       1.0  0.76810  0.10950  0.26780  1.0000 0.1112255309
H   H23       1.0  0.26810  0.60950  0.73220  1.0000 0.1112255309
H   H24       1.0  0.23190  0.10950  0.76780  1.0000 0.1112255309
H   H25       1.0  0.52720  0.80490  0.18150  1.0000 0.1195260545
H   H26       1.0  0.97280  0.30490  0.31850  1.0000 0.1195260545
H   H27       1.0  0.47280  0.80490  0.68150  1.0000 0.1195260545
H   H28       1.0  0.02720  0.30490  0.81850  1.0000 0.1195260545
H   H29       1.0  0.59820  0.77490  0.04630  1.0000 0.1195260545
H   H30       1.0  0.90180  0.27490  0.45370  1.0000 0.1195260545
H   H31       1.0  0.40180  0.77490  0.54630  1.0000 0.1195260545
H   H32       1.0  0.09820  0.27490  0.95370  1.0000 0.1195260545
H   H33       1.0  0.22890  0.52430  0.96390  1.0000 0.1112255309
H   H34       1.0  0.27110  0.02430  0.53610  1.0000 0.1112255309
H   H35       1.0  0.77110  0.52430  0.46390  1.0000 0.1112255309
H   H36       1.0  0.72890  0.02430  0.03610  1.0000 0.1112255309
H   H37       1.0  0.37990  0.57040  0.11100  1.0000 0.1112255309
H   H38       1.0  0.12010  0.07040  0.38900  1.0000 0.1112255309
H   H39       1.0  0.62010  0.57040  0.61100  1.0000 0.1112255309
H   H40       1.0  0.87990  0.07040  0.88900  1.0000 0.1112255309
H   H41       1.0  0.42950  0.73010  0.19170  1.0000 0.1261938445
H   H42       1.0  0.07050  0.23010  0.30830  1.0000 0.1261938445
H   H43       1.0  0.57050  0.73010  0.69170  1.0000 0.1261938445
H   H44       1.0  0.92950  0.23010  0.80830  1.0000 0.1261938445
H   H45       1.0  0.25230  0.53490  0.05140  1.0000 0.1112255309
H   H46       1.0  0.24770  0.03490  0.44860  1.0000 0.1112255309
H   H47       1.0  0.74770  0.53490  0.55140  1.0000 0.1112255309
H   H48       1.0  0.75230  0.03490  0.94860  1.0000 0.1112255309
H   H49       1.0  0.78750  0.92600  0.05760  1.0000 0.1112255309
H   H50       1.0  0.71250  0.42600  0.44240  1.0000 0.1112255309
H   H51       1.0  0.21250  0.92600  0.55760  1.0000 0.1112255309
H   H52       1.0  0.28750  0.42600  0.94240  1.0000 0.1112255309
H   H53       1.0  0.65420  0.65080  0.16610  1.0000 0.1112255309
H   H54       1.0  0.84580  0.15080  0.33390  1.0000 0.1112255309
H   H55       1.0  0.34580  0.65080  0.66610  1.0000 0.1112255309
H   H56       1.0  0.15420  0.15080  0.83390  1.0000 0.1112255309
H   H57       1.0  0.80020  0.54600  0.27810  1.0000 0.1013585378
H   H58       1.0  0.69980  0.04600  0.22190  1.0000 0.1013585378
H   H59       1.0  0.19980  0.54600  0.77810  1.0000 0.1013585378
H   H60       1.0  0.30020  0.04600  0.72190  1.0000 0.1013585378
H   H61       1.0  0.85860  0.55770  0.91350  1.0000 0.1195260545
H   H62       1.0  0.64140  0.05770  0.58650  1.0000 0.1195260545
H   H63       1.0  0.14140  0.55770  0.41350  1.0000 0.1195260545
H   H64       1.0  0.35860  0.05770  0.08650  1.0000 0.1195260545
H   H65       1.0  0.33880  0.56740  0.25820  1.0000 0.1195260545
H   H66       1.0  0.16120  0.06740  0.24180  1.0000 0.1195260545
H   H67       1.0  0.66120  0.56740  0.75820  1.0000 0.1195260545
H   H68       1.0  0.83880  0.06740  0.74180  1.0000 0.1195260545
H   H69       1.0  0.90340  0.60810  0.98250  1.0000 0.1195260545
H   H70       1.0  0.59660  0.10810  0.51750  1.0000 0.1195260545
H   H71       1.0  0.09660  0.60810  0.48250  1.0000 0.1195260545
H   H72       1.0  0.40340  0.10810  0.01750  1.0000 0.1195260545
H   H73       1.0  0.25820  0.61120  0.19560  1.0000 0.1195260545
H   H74       1.0  0.24180  0.11120  0.30440  1.0000 0.1195260545
H   H75       1.0  0.74180  0.61120  0.69560  1.0000 0.1195260545
H   H76       1.0  0.75820  0.11120  0.80440  1.0000 0.1195260545
H   H77       1.0  0.58260  0.50280  0.38470  1.0000 0.1112255309
H   H78       1.0  0.91740  0.00280  0.11530  1.0000 0.1112255309
H   H79       1.0  0.41740  0.50280  0.88470  1.0000 0.1112255309
H   H80       1.0  0.08260  0.00280  0.61530  1.0000 0.1112255309
H   H81       1.0  0.41550  0.54750  0.33260  1.0000 0.1195260545
H   H82       1.0  0.08450  0.04750  0.16740  1.0000 0.1195260545
H   H83       1.0  0.58450  0.54750  0.83260  1.0000 0.1195260545
H   H84       1.0  0.91550  0.04750  0.66740  1.0000 0.1195260545
H   H85       1.0  0.51420  0.11570  0.34710  1.0000 0.1013585378
H   H86       1.0  0.98580  0.61570  0.15290  1.0000 0.1013585378
H   H87       1.0  0.48580  0.11570  0.84710  1.0000 0.1013585378
H   H88       1.0  0.01420  0.61570  0.65290  1.0000 0.1013585378
H   H89       1.0  0.50430  0.30060  0.44280  1.0000 0.1112255309
H   H90       1.0  0.99570  0.80060  0.05720  1.0000 0.1112255309
H   H91       1.0  0.49570  0.30060  0.94280  1.0000 0.1112255309
H   H92       1.0  0.00430  0.80060  0.55720  1.0000 0.1112255309
H   H93       1.0  0.76250  0.16070  0.45000  1.0000 0.1195260545
H   H94       1.0  0.73750  0.66070  0.05000  1.0000 0.1195260545
H   H95       1.0  0.23750  0.16070  0.95000  1.0000 0.1195260545
H   H96       1.0  0.26250  0.66070  0.55000  1.0000 0.1195260545
H   H97       1.0  0.22430  0.30260  0.42650  1.0000 0.1112255309
H   H98       1.0  0.27570  0.80260  0.07350  1.0000 0.1112255309
H   H99       1.0  0.77570  0.30260  0.92650  1.0000 0.1112255309
H   H100      1.0  0.72430  0.80260  0.57350  1.0000 0.1112255309
H   H101      1.0  0.10220  0.33800  0.48710  1.0000 0.1112255309
H   H102      1.0  0.39780  0.83800  0.01290  1.0000 0.1112255309
H   H103      1.0  0.89780  0.33800  0.98710  1.0000 0.1112255309
H   H104      1.0  0.60220  0.83800  0.51290  1.0000 0.1112255309
H   H105      1.0  0.73190  0.39050  0.26780  1.0000 0.1112255309
H   H106      1.0  0.76810  0.89050  0.23220  1.0000 0.1112255309
H   H107      1.0  0.26810  0.39050  0.76780  1.0000 0.1112255309
H   H108      1.0  0.23190  0.89050  0.73220  1.0000 0.1112255309
H   H109      1.0  0.52720  0.19510  0.31850  1.0000 0.1195260545
H   H110      1.0  0.97280  0.69510  0.18150  1.0000 0.1195260545
H   H111      1.0  0.47280  0.19510  0.81850  1.0000 0.1195260545
H   H112      1.0  0.02720  0.69510  0.68150  1.0000 0.1195260545
H   H113      1.0  0.59820  0.22510  0.45370  1.0000 0.1195260545
H   H114      1.0  0.90180  0.72510  0.04630  1.0000 0.1195260545
H   H115      1.0  0.40180  0.22510  0.95370  1.0000 0.1195260545
H   H116      1.0  0.09820  0.72510  0.54630  1.0000 0.1195260545
H   H117      1.0  0.22890  0.47570  0.53610  1.0000 0.1112255309
H   H118      1.0  0.27110  0.97570  0.96390  1.0000 0.1112255309
H   H119      1.0  0.77110  0.47570  0.03610  1.0000 0.1112255309
H   H120      1.0  0.72890  0.97570  0.46390  1.0000 0.1112255309
H   H121      1.0  0.37990  0.42960  0.38900  1.0000 0.1112255309
H   H122      1.0  0.12010  0.92960  0.11100  1.0000 0.1112255309
H   H123      1.0  0.62010  0.42960  0.88900  1.0000 0.1112255309
H   H124      1.0  0.87990  0.92960  0.61100  1.0000 0.1112255309
H   H125      1.0  0.42950  0.26990  0.30830  1.0000 0.1261938445
H   H126      1.0  0.07050  0.76990  0.19170  1.0000 0.1261938445
H   H127      1.0  0.57050  0.26990  0.80830  1.0000 0.1261938445
H   H128      1.0  0.92950  0.76990  0.69170  1.0000 0.1261938445
H   H129      1.0  0.25230  0.46510  0.44860  1.0000 0.1112255309
H   H130      1.0  0.24770  0.96510  0.05140  1.0000 0.1112255309
H   H131      1.0  0.74770  0.46510  0.94860  1.0000 0.1112255309
H   H132      1.0  0.75230  0.96510  0.55140  1.0000 0.1112255309
H   H133      1.0  0.78750  0.07400  0.44240  1.0000 0.1112255309
H   H134      1.0  0.71250  0.57400  0.05760  1.0000 0.1112255309
H   H135      1.0  0.21250  0.07400  0.94240  1.0000 0.1112255309
H   H136      1.0  0.28750  0.57400  0.55760  1.0000 0.1112255309
H   H137      1.0  0.65420  0.34920  0.33390  1.0000 0.1112255309
H   H138      1.0  0.84580  0.84920  0.16610  1.0000 0.1112255309
H   H139      1.0  0.34580  0.34920  0.83390  1.0000 0.1112255309
H   H140      1.0  0.15420  0.84920  0.66610  1.0000 0.1112255309
H   H141      1.0  0.80020  0.45400  0.22190  1.0000 0.1013585378
H   H142      1.0  0.69980  0.95400  0.27810  1.0000 0.1013585378
H   H143      1.0  0.19980  0.45400  0.72190  1.0000 0.1013585378
H   H144      1.0  0.30020  0.95400  0.77810  1.0000 0.1013585378
H   H145      1.0  0.85860  0.44230  0.58650  1.0000 0.1195260545
H   H146      1.0  0.64140  0.94230  0.91350  1.0000 0.1195260545
H   H147      1.0  0.14140  0.44230  0.08650  1.0000 0.1195260545
H   H148      1.0  0.35860  0.94230  0.41350  1.0000 0.1195260545
H   H149      1.0  0.33880  0.43260  0.24180  1.0000 0.1195260545
H   H150      1.0  0.16120  0.93260  0.25820  1.0000 0.1195260545
H   H151      1.0  0.66120  0.43260  0.74180  1.0000 0.1195260545
H   H152      1.0  0.83880  0.93260  0.75820  1.0000 0.1195260545
H   H153      1.0  0.90340  0.39190  0.51750  1.0000 0.1195260545
H   H154      1.0  0.59660  0.89190  0.98250  1.0000 0.1195260545
H   H155      1.0  0.09660  0.39190  0.01750  1.0000 0.1195260545
H   H156      1.0  0.40340  0.89190  0.48250  1.0000 0.1195260545
H   H157      1.0  0.25820  0.38880  0.30440  1.0000 0.1195260545
H   H158      1.0  0.24180  0.88880  0.19560  1.0000 0.1195260545
H   H159      1.0  0.74180  0.38880  0.80440  1.0000 0.1195260545
H   H160      1.0  0.75820  0.88880  0.69560  1.0000 0.1195260545
H   H161      1.0  0.58260  0.49720  0.11530  1.0000 0.1112255309
H   H162      1.0  0.91740  0.99720  0.38470  1.0000 0.1112255309
H   H163      1.0  0.41740  0.49720  0.61530  1.0000 0.1112255309
H   H164      1.0  0.08260  0.99720  0.88470  1.0000 0.1112255309
H   H165      1.0  0.41550  0.45250  0.16740  1.0000 0.1195260545
H   H166      1.0  0.08450  0.95250  0.33260  1.0000 0.1195260545
H   H167      1.0  0.58450  0.45250  0.66740  1.0000 0.1195260545
H   H168      1.0  0.91550  0.95250  0.83260  1.0000 0.1195260545
C   C1        1.0  0.31890  0.63840  0.09805  1.0000 0.1706377796
C   C2        1.0  0.18110  0.13840  0.40195  1.0000 0.1706377796
C   C3        1.0  0.68110  0.63840  0.59805  1.0000 0.1706377796
C   C4        1.0  0.81890  0.13840  0.90195  1.0000 0.1706377796
C   C5        1.0  0.57890  0.88394  0.12832  1.0000 0.0198931517
C   C6        1.0  0.92110  0.38394  0.37168  1.0000 0.0198931517
C   C7        1.0  0.42110  0.88394  0.62832  1.0000 0.0198931517
C   C8        1.0  0.07890  0.38394  0.87168  1.0000 0.0198931517
C   C9        1.0  0.50780  0.72057  0.08235  1.0000 -0.1891628876
C   C10       1.0  0.99220  0.22057  0.41765  1.0000 -0.1891628876
C   C11       1.0  0.49220  0.72057  0.58235  1.0000 -0.1891628876
C   C12       1.0  0.00780  0.22057  0.91765  1.0000 -0.1891628876
C   C13       1.0  0.54280  0.58322  0.25005  1.0000 0.1195260545
C   C14       1.0  0.95720  0.08322  0.24995  1.0000 0.1195260545
C   C15       1.0  0.45720  0.58322  0.75005  1.0000 0.1195260545
C   C16       1.0  0.04280  0.08322  0.74995  1.0000 0.1195260545
C   C17       1.0  0.45690  0.70688  0.12565  1.0000 0.1570110011
C   C18       1.0  0.04310  0.20688  0.37435  1.0000 0.1570110011
C   C19       1.0  0.54310  0.70688  0.62565  1.0000 0.1570110011
C   C20       1.0  0.95690  0.20688  0.87435  1.0000 0.1570110011
C   C21       1.0  0.57030  0.79698  0.11310  1.0000 0.1195260545
C   C22       1.0  0.92970  0.29698  0.38690  1.0000 0.1195260545
C   C23       1.0  0.42970  0.79698  0.61310  1.0000 0.1195260545
C   C24       1.0  0.07030  0.29698  0.88690  1.0000 0.1195260545
C   C25       1.0  0.71620  0.85871  0.07148  1.0000 -0.1288499211
C   C26       1.0  0.78380  0.35871  0.42852  1.0000 -0.1288499211
C   C27       1.0  0.28380  0.85871  0.57148  1.0000 -0.1288499211
C   C28       1.0  0.21620  0.35871  0.92852  1.0000 -0.1288499211
C   C29       1.0  0.16590  0.59472  0.02592  1.0000 0.1195260545
C   C30       1.0  0.33410  0.09472  0.47408  1.0000 0.1195260545
C   C31       1.0  0.83410  0.59472  0.52592  1.0000 0.1195260545
C   C32       1.0  0.66590  0.09472  0.97408  1.0000 0.1195260545
C   C33       1.0  0.23240  0.66479  0.06875  1.0000 -0.1891628876
C   C34       1.0  0.26760  0.16479  0.43125  1.0000 -0.1891628876
C   C35       1.0  0.76760  0.66479  0.56875  1.0000 -0.1891628876
C   C36       1.0  0.73240  0.16479  0.93125  1.0000 -0.1891628876
C   C37       1.0  0.15790  0.64353  0.03269  1.0000 -0.1724200214
C   C38       1.0  0.34210  0.14353  0.46731  1.0000 -0.1724200214
C   C39       1.0  0.84210  0.64353  0.53269  1.0000 -0.1724200214
C   C40       1.0  0.65790  0.14353  0.96731  1.0000 -0.1724200214
C   C41       1.0  0.44800  0.63400  0.17290  1.0000 0.1570110011
C   C42       1.0  0.05200  0.13400  0.32710  1.0000 0.1570110011
C   C43       1.0  0.55200  0.63400  0.67290  1.0000 0.1570110011
C   C44       1.0  0.94800  0.13400  0.82710  1.0000 0.1570110011
C   C45       1.0  0.63700  0.60884  0.22382  1.0000 -0.1891628876
C   C46       1.0  0.86300  0.10884  0.27618  1.0000 -0.1891628876
C   C47       1.0  0.36300  0.60884  0.72382  1.0000 -0.1891628876
C   C48       1.0  0.13700  0.10884  0.77618  1.0000 -0.1891628876
C   C49       1.0  0.52170  0.78391  0.15629  1.0000 -0.1891628876
C   C50       1.0  0.97830  0.28391  0.34371  1.0000 -0.1891628876
C   C51       1.0  0.47830  0.78391  0.65629  1.0000 -0.1891628876
C   C52       1.0  0.02170  0.28391  0.84371  1.0000 -0.1891628876
C   C53       1.0  0.56450  0.76579  0.07572  1.0000 -0.1823952911
C   C54       1.0  0.93550  0.26579  0.42428  1.0000 -0.1823952911
C   C55       1.0  0.43550  0.76579  0.57572  1.0000 -0.1823952911
C   C56       1.0  0.06450  0.26579  0.92428  1.0000 -0.1823952911
C   C57       1.0  0.14250  0.53924  0.95932  1.0000 0.0581840368
C   C58       1.0  0.35750  0.03924  0.54068  1.0000 0.0581840368
C   C59       1.0  0.85750  0.53924  0.45932  1.0000 0.0581840368
C   C60       1.0  0.64250  0.03924  0.04068  1.0000 0.0581840368
C   C61       1.0  0.32440  0.58903  0.09123  1.0000 -0.2098450477
C   C62       1.0  0.17560  0.08903  0.40877  1.0000 -0.2098450477
C   C63       1.0  0.67560  0.58903  0.59123  1.0000 -0.2098450477
C   C64       1.0  0.82440  0.08903  0.90877  1.0000 -0.2098450477
C   C65       1.0  0.46400  0.73888  0.16234  1.0000 -0.1891628876
C   C66       1.0  0.03600  0.23888  0.33766  1.0000 -0.1891628876
C   C67       1.0  0.53600  0.73888  0.66234  1.0000 -0.1891628876
C   C68       1.0  0.96400  0.23888  0.83766  1.0000 -0.1891628876
C   C69       1.0  0.24800  0.56768  0.05544  1.0000 -0.2003877677
C   C70       1.0  0.25200  0.06768  0.44456  1.0000 -0.2003877677
C   C71       1.0  0.75200  0.56768  0.55544  1.0000 -0.2003877677
C   C72       1.0  0.74800  0.06768  0.94456  1.0000 -0.2003877677
C   C73       1.0  0.72910  0.90671  0.07578  1.0000 -0.0700590552
C   C74       1.0  0.77090  0.40671  0.42422  1.0000 -0.0700590552
C   C75       1.0  0.27090  0.90671  0.57578  1.0000 -0.0700590552
C   C76       1.0  0.22910  0.40671  0.92422  1.0000 -0.0700590552
C   C77       1.0  0.59010  0.63399  0.18454  1.0000 -0.1823952911
C   C78       1.0  0.90990  0.13399  0.31546  1.0000 -0.1823952911
C   C79       1.0  0.40990  0.63399  0.68454  1.0000 -0.1823952911
C   C80       1.0  0.09010  0.13399  0.81546  1.0000 -0.1823952911
C   C81       1.0  0.72440  0.54072  0.29821  1.0000 0.0198931517
C   C82       1.0  0.77560  0.04072  0.20179  1.0000 0.0198931517
C   C83       1.0  0.27560  0.54072  0.79821  1.0000 0.0198931517
C   C84       1.0  0.22440  0.04072  0.70179  1.0000 0.0198931517
C   C85       1.0  0.93980  0.55740  0.93187  1.0000 -0.0700590552
C   C86       1.0  0.56020  0.05740  0.56813  1.0000 -0.0700590552
C   C87       1.0  0.06020  0.55740  0.43187  1.0000 -0.0700590552
C   C88       1.0  0.43980  0.05740  0.06813  1.0000 -0.0700590552
C   C89       1.0  0.40240  0.58430  0.23959  1.0000 -0.1724200214
C   C90       1.0  0.09760  0.08430  0.26041  1.0000 -0.1724200214
C   C91       1.0  0.59760  0.58430  0.73959  1.0000 -0.1724200214
C   C92       1.0  0.90240  0.08430  0.76041  1.0000 -0.1724200214
C   C93       1.0  0.96400  0.58530  0.97014  1.0000 -0.1157199119
C   C94       1.0  0.53600  0.08530  0.52986  1.0000 -0.1157199119
C   C95       1.0  0.03600  0.58530  0.47014  1.0000 -0.1157199119
C   C96       1.0  0.46400  0.08530  0.02986  1.0000 -0.1157199119
C   C97       1.0  0.35450  0.60990  0.20190  1.0000 -0.1891628876
C   C98       1.0  0.14550  0.10990  0.29810  1.0000 -0.1891628876
C   C99       1.0  0.64550  0.60990  0.70190  1.0000 -0.1891628876
C   C100      1.0  0.85450  0.10990  0.79810  1.0000 -0.1891628876
C   C101      1.0  0.60620  0.51720  0.35630  1.0000 -0.0355581802
C   C102      1.0  0.89380  0.01720  0.14370  1.0000 -0.0355581802
C   C103      1.0  0.39380  0.51720  0.85630  1.0000 -0.0355581802
C   C104      1.0  0.10620  0.01720  0.64370  1.0000 -0.0355581802
C   C105      1.0  0.51120  0.54200  0.32760  1.0000 -0.1288499211
C   C106      1.0  0.98880  0.04200  0.17240  1.0000 -0.1288499211
C   C107      1.0  0.48880  0.54200  0.82760  1.0000 -0.1288499211
C   C108      1.0  0.01120  0.04200  0.67240  1.0000 -0.1288499211
C   C109      1.0  0.31890  0.36160  0.40195  1.0000 0.1706377796
C   C110      1.0  0.18110  0.86160  0.09805  1.0000 0.1706377796
C   C111      1.0  0.68110  0.36160  0.90195  1.0000 0.1706377796
C   C112      1.0  0.81890  0.86160  0.59805  1.0000 0.1706377796
C   C113      1.0  0.57890  0.11606  0.37168  1.0000 0.0198931517
C   C114      1.0  0.92110  0.61606  0.12832  1.0000 0.0198931517
C   C115      1.0  0.42110  0.11606  0.87168  1.0000 0.0198931517
C   C116      1.0  0.07890  0.61606  0.62832  1.0000 0.0198931517
C   C117      1.0  0.50780  0.27943  0.41765  1.0000 -0.1891628876
C   C118      1.0  0.99220  0.77943  0.08235  1.0000 -0.1891628876
C   C119      1.0  0.49220  0.27943  0.91765  1.0000 -0.1891628876
C   C120      1.0  0.00780  0.77943  0.58235  1.0000 -0.1891628876
C   C121      1.0  0.54280  0.41678  0.24995  1.0000 0.1195260545
C   C122      1.0  0.95720  0.91678  0.25005  1.0000 0.1195260545
C   C123      1.0  0.45720  0.41678  0.74995  1.0000 0.1195260545
C   C124      1.0  0.04280  0.91678  0.75005  1.0000 0.1195260545
C   C125      1.0  0.45690  0.29312  0.37435  1.0000 0.1570110011
C   C126      1.0  0.04310  0.79312  0.12565  1.0000 0.1570110011
C   C127      1.0  0.54310  0.29312  0.87435  1.0000 0.1570110011
C   C128      1.0  0.95690  0.79312  0.62565  1.0000 0.1570110011
C   C129      1.0  0.57030  0.20302  0.38690  1.0000 0.1195260545
C   C130      1.0  0.92970  0.70302  0.11310  1.0000 0.1195260545
C   C131      1.0  0.42970  0.20302  0.88690  1.0000 0.1195260545
C   C132      1.0  0.07030  0.70302  0.61310  1.0000 0.1195260545
C   C133      1.0  0.71620  0.14129  0.42852  1.0000 -0.1288499211
C   C134      1.0  0.78380  0.64129  0.07148  1.0000 -0.1288499211
C   C135      1.0  0.28380  0.14129  0.92852  1.0000 -0.1288499211
C   C136      1.0  0.21620  0.64129  0.57148  1.0000 -0.1288499211
C   C137      1.0  0.16590  0.40528  0.47408  1.0000 0.1195260545
C   C138      1.0  0.33410  0.90528  0.02592  1.0000 0.1195260545
C   C139      1.0  0.83410  0.40528  0.97408  1.0000 0.1195260545
C   C140      1.0  0.66590  0.90528  0.52592  1.0000 0.1195260545
C   C141      1.0  0.23240  0.33521  0.43125  1.0000 -0.1891628876
C   C142      1.0  0.26760  0.83521  0.06875  1.0000 -0.1891628876
C   C143      1.0  0.76760  0.33521  0.93125  1.0000 -0.1891628876
C   C144      1.0  0.73240  0.83521  0.56875  1.0000 -0.1891628876
C   C145      1.0  0.15790  0.35647  0.46731  1.0000 -0.1724200214
C   C146      1.0  0.34210  0.85647  0.03269  1.0000 -0.1724200214
C   C147      1.0  0.84210  0.35647  0.96731  1.0000 -0.1724200214
C   C148      1.0  0.65790  0.85647  0.53269  1.0000 -0.1724200214
C   C149      1.0  0.44800  0.36600  0.32710  1.0000 0.1570110011
C   C150      1.0  0.05200  0.86600  0.17290  1.0000 0.1570110011
C   C151      1.0  0.55200  0.36600  0.82710  1.0000 0.1570110011
C   C152      1.0  0.94800  0.86600  0.67290  1.0000 0.1570110011
C   C153      1.0  0.63700  0.39116  0.27618  1.0000 -0.1891628876
C   C154      1.0  0.86300  0.89116  0.22382  1.0000 -0.1891628876
C   C155      1.0  0.36300  0.39116  0.77618  1.0000 -0.1891628876
C   C156      1.0  0.13700  0.89116  0.72382  1.0000 -0.1891628876
C   C157      1.0  0.52170  0.21609  0.34371  1.0000 -0.1891628876
C   C158      1.0  0.97830  0.71609  0.15629  1.0000 -0.1891628876
C   C159      1.0  0.47830  0.21609  0.84371  1.0000 -0.1891628876
C   C160      1.0  0.02170  0.71609  0.65629  1.0000 -0.1891628876
C   C161      1.0  0.56450  0.23421  0.42428  1.0000 -0.1891628876
C   C162      1.0  0.93550  0.73421  0.07572  1.0000 -0.1823952911
C   C163      1.0  0.43550  0.23421  0.92428  1.0000 -0.1823952911
C   C164      1.0  0.06450  0.73421  0.57572  1.0000 -0.1823952911
C   C165      1.0  0.14250  0.46076  0.54068  1.0000 0.0581840368
C   C166      1.0  0.35750  0.96076  0.95932  1.0000 0.0581840368
C   C167      1.0  0.85750  0.46076  0.04068  1.0000 0.0581840368
C   C168      1.0  0.64250  0.96076  0.45932  1.0000 0.0581840368
C   C169      1.0  0.32440  0.41097  0.40877  1.0000 -0.2098450477
C   C170      1.0  0.17560  0.91097  0.09123  1.0000 -0.2098450477
C   C171      1.0  0.67560  0.41097  0.90877  1.0000 -0.2098450477
C   C172      1.0  0.82440  0.91097  0.59123  1.0000 -0.2098450477
C   C173      1.0  0.46400  0.26112  0.33766  1.0000 -0.1891628876
C   C174      1.0  0.03600  0.76112  0.16234  1.0000 -0.1891628876
C   C175      1.0  0.53600  0.26112  0.83766  1.0000 -0.1891628876
C   C176      1.0  0.96400  0.76112  0.66234  1.0000 -0.1891628876
C   C177      1.0  0.24800  0.43232  0.44456  1.0000 -0.2003877677
C   C178      1.0  0.25200  0.93232  0.05544  1.0000 -0.2003877677
C   C179      1.0  0.75200  0.43232  0.94456  1.0000 -0.2003877677
C   C180      1.0  0.74800  0.93232  0.55544  1.0000 -0.2003877677
C   C181      1.0  0.72910  0.09329  0.42422  1.0000 -0.0700590552
C   C182      1.0  0.77090  0.59329  0.07578  1.0000 -0.0700590552
C   C183      1.0  0.27090  0.09329  0.92422  1.0000 -0.0700590552
C   C184      1.0  0.22910  0.59329  0.57578  1.0000 -0.0700590552
C   C185      1.0  0.59010  0.36601  0.31546  1.0000 -0.1823952911
C   C186      1.0  0.90990  0.86601  0.18454  1.0000 -0.1823952911
C   C187      1.0  0.40990  0.36601  0.81546  1.0000 -0.1823952911
C   C188      1.0  0.09010  0.86601  0.68454  1.0000 -0.1823952911
C   C189      1.0  0.72440  0.45928  0.20179  1.0000 0.0198931517
C   C190      1.0  0.77560  0.95928  0.29821  1.0000 0.0198931517
C   C191      1.0  0.27560  0.45928  0.70179  1.0000 0.0198931517
C   C192      1.0  0.22440  0.95928  0.79821  1.0000 0.0198931517
C   C193      1.0  0.93980  0.44260  0.56813  1.0000 -0.0700590552
C   C194      1.0  0.56020  0.94260  0.93187  1.0000 -0.0700590552
C   C195      1.0  0.06020  0.44260  0.06813  1.0000 -0.0700590552
C   C196      1.0  0.43980  0.94260  0.43187  1.0000 -0.0700590552
C   C197      1.0  0.40240  0.41570  0.26041  1.0000 -0.1724200214
C   C198      1.0  0.09760  0.91570  0.23959  1.0000 -0.1724200214
C   C199      1.0  0.59760  0.41570  0.76041  1.0000 -0.1724200214
C   C200      1.0  0.90240  0.91570  0.73959  1.0000 -0.1724200214
C   C201      1.0  0.96400  0.41470  0.52986  1.0000 -0.1157199119
C   C202      1.0  0.53600  0.91470  0.97014  1.0000 -0.1157199119
C   C203      1.0  0.03600  0.41470  0.02986  1.0000 -0.1157199119
C   C204      1.0  0.46400  0.91470  0.47014  1.0000 -0.1157199119
C   C205      1.0  0.35450  0.39010  0.29810  1.0000 -0.1891628876
C   C206      1.0  0.14550  0.89010  0.20190  1.0000 -0.1891628876
C   C207      1.0  0.64550  0.39010  0.79810  1.0000 -0.1891628876
C   C208      1.0  0.85450  0.89010  0.70190  1.0000 -0.1891628876
C   C209      1.0  0.60620  0.48280  0.14370  1.0000 -0.0355581802
C   C210      1.0  0.89380  0.98280  0.35630  1.0000 -0.0355581802
C   C211      1.0  0.39380  0.48280  0.64370  1.0000 -0.0355581802
C   C212      1.0  0.10620  0.98280  0.85630  1.0000 -0.0355581802
C   C213      1.0  0.51120  0.45800  0.17240  1.0000 -0.1288499211
C   C214      1.0  0.98880  0.95800  0.32760  1.0000 -0.1288499211
C   C215      1.0  0.48880  0.45800  0.67240  1.0000 -0.1288499211
C   C216      1.0  0.01120  0.95800  0.82760  1.0000 -0.1288499211
N   N1        1.0  0.40060  0.66051  0.13254  1.0000 -0.2098450477
N   N2        1.0  0.09940  0.16051  0.36746  1.0000 -0.2098450477
N   N3        1.0  0.59940  0.66051  0.63254  1.0000 -0.2098450477
N   N4        1.0  0.90060  0.16051  0.86746  1.0000 -0.2098450477
N   N5        1.0  0.64250  0.92198  0.11102  1.0000 -0.2767610916
N   N6        1.0  0.85750  0.42198  0.38898  1.0000 -0.2767610916
N   N7        1.0  0.35750  0.92198  0.61102  1.0000 -0.2767610916
N   N8        1.0  0.14250  0.42198  0.88898  1.0000 -0.2767610916
N   N9        1.0  0.09270  0.57343  0.98673  1.0000 0.009613063
N   N10       1.0  0.40730  0.07343  0.51327  1.0000 0.009613063
N   N11       1.0  0.90730  0.57343  0.48673  1.0000 0.009613063
N   N12       1.0  0.59270  0.07343  0.01327  1.0000 0.009613063
N   N13       1.0  0.05500  0.52900  0.92492  1.0000 -0.2704765119
N   N14       1.0  0.44500  0.02900  0.57508  1.0000 -0.2704765119
N   N15       1.0  0.94500  0.52900  0.42492  1.0000 -0.2704765119
N   N16       1.0  0.55500  0.02900  0.07508  1.0000 -0.2704765119
N   N17       1.0  0.62130  0.84468  0.10521  1.0000 -0.0028116114
N   N18       1.0  0.87870  0.34468  0.39479  1.0000 -0.0028116114
N   N19       1.0  0.37870  0.84468  0.60521  1.0000 -0.0028116114
N   N20       1.0  0.12130  0.34468  0.89479  1.0000 -0.0028116114
N   N21       1.0  0.59250  0.55644  0.29028  1.0000 0.009613063
N   N22       1.0  0.90750  0.05644  0.20972  1.0000 0.009613063
N   N23       1.0  0.40750  0.55644  0.79028  1.0000 0.009613063
N   N24       1.0  0.09250  0.05644  0.70972  1.0000 0.009613063
N   N25       1.0  0.73320  0.51706  0.33774  1.0000 -0.2408618883
N   N26       1.0  0.76680  0.01706  0.16226  1.0000 -0.2408618883
N   N27       1.0  0.26680  0.51706  0.83774  1.0000 -0.2408618883
N   N28       1.0  0.23320  0.01706  0.66226  1.0000 -0.2408618883
N   N29       1.0  0.40060  0.33949  0.36746  1.0000 -0.2098450477
N   N30       1.0  0.09940  0.83949  0.13254  1.0000 -0.2098450477
N   N31       1.0  0.59940  0.33949  0.86746  1.0000 -0.2098450477
N   N32       1.0  0.90060  0.83949  0.63254  1.0000 -0.2098450477
N   N33       1.0  0.64250  0.07802  0.38898  1.0000 -0.2767610916
N   N34       1.0  0.85750  0.57802  0.11102  1.0000 -0.2767610916
N   N35       1.0  0.35750  0.07802  0.88898  1.0000 -0.2767610916
N   N36       1.0  0.14250  0.57802  0.61102  1.0000 -0.2767610916
N   N37       1.0  0.09270  0.42657  0.51327  1.0000 0.009613063
N   N38       1.0  0.40730  0.92657  0.98673  1.0000 0.009613063
N   N39       1.0  0.90730  0.42657  0.01327  1.0000 0.009613063
N   N40       1.0  0.59270  0.92657  0.48673  1.0000 0.009613063
N   N41       1.0  0.05500  0.47100  0.57508  1.0000 -0.2704765119
N   N42       1.0  0.44500  0.97100  0.92492  1.0000 -0.2704765119
N   N43       1.0  0.94500  0.47100  0.07508  1.0000 -0.2704765119
N   N44       1.0  0.55500  0.97100  0.42492  1.0000 -0.2704765119
N   N45       1.0  0.62130  0.15532  0.39479  1.0000 -0.0028116114
N   N46       1.0  0.87870  0.65532  0.10521  1.0000 -0.0028116114
N   N47       1.0  0.37870  0.15532  0.89479  1.0000 -0.0028116114
N   N48       1.0  0.12130  0.65532  0.60521  1.0000 -0.0028116114
N   N49       1.0  0.59250  0.44356  0.20972  1.0000 0.009613063
N   N50       1.0  0.90750  0.94356  0.29028  1.0000 0.009613063
N   N51       1.0  0.40750  0.44356  0.70972  1.0000 0.009613063
N   N52       1.0  0.09250  0.94356  0.79028  1.0000 0.009613063
N   N53       1.0  0.73320  0.48294  0.16226  1.0000 -0.2408618883
N   N54       1.0  0.76680  0.98294  0.33774  1.0000 -0.2408618883
N   N55       1.0  0.26680  0.48294  0.66226  1.0000 -0.2408618883
N   N56       1.0  0.23320  0.98294  0.83774  1.0000 -0.2408618883
