# DDEC6 charges by PACMAN v1.1 (https://github.com/mtap-research/PACMAN-charge/)
data_2014[Co][pcu]3[ASR]5
_chemical_formula_sum              "Co4 H72 C88 N16 O24"
_cell_length_a       10.1112
_cell_length_b       15.943
_cell_length_c       16.764
_cell_angle_alpha    111.325
_cell_angle_beta     103.68
_cell_angle_gamma    102.598

_symmetry_space_group_name_H-M    "P 1"
_symmetry_Int_Tables_number       1

loop_
  _symmetry_equiv_pos_as_xyz
  'x, y, z'

loop_
  _atom_site_type_symbol
  _atom_site_label
  _atom_site_symmetry_multiplicity
  _atom_site_fract_x
  _atom_site_fract_y
  _atom_site_fract_z
  _atom_site_occupancy
  _atom_site_charge
Co  Co1       1.0  0.57564  0.62343  0.40765  1.0000 0.8462692942
Co  Co2       1.0  0.32211  0.79396  0.40719  1.0000 0.8462692942
Co  Co3       1.0  0.42436  0.37657  0.59235  1.0000 0.8462692942
Co  Co4       1.0  0.67789  0.20604  0.59281  1.0000 0.8462692942
H   H1        1.0  0.32640  0.45650  0.23740  1.0000 0.1191509511
H   H2        1.0  0.13650  0.35510  0.09500  1.0000 0.2970922585
H   H3        1.0  0.75630  0.05820  0.70950  1.0000 0.2899353351
H   H4        1.0  0.34720  0.47140  0.00740  1.0000 0.1283688873
H   H5        1.0  0.55230  0.60600  0.09630  1.0000 0.1283688873
H   H6        1.0  0.64120  0.65840  0.25080  1.0000 0.1105250645
H   H7        1.0  0.41450  0.76770  0.09640  1.0000 0.2899353351
H   H8        1.0  0.47170  0.63320  0.70810  1.0000 0.2899353351
H   H9        1.0  0.96580  0.22630  0.98200  1.0000 0.1191509511
H   H10       1.0  0.06590  0.16400  0.98190  1.0000 0.1482576127
H   H11       1.0  0.94310  0.18760  0.82600  1.0000 0.1191509511
H   H12       1.0  0.02170  0.11360  0.82910  1.0000 0.1283688873
H   H13       1.0  0.54290  0.94900  0.80770  1.0000 0.1366882022
H   H14       1.0  0.31880  0.83000  0.71860  1.0000 0.1283688873
H   H15       1.0  0.23910  0.77250  0.56480  1.0000 0.1105250645
H   H16       1.0  0.58560  0.94900  0.57640  1.0000 0.1283688873
H   H17       1.0  0.39830  0.78620  0.23350  1.0000 0.1191509511
H   H18       1.0  0.07280  0.59180  0.00540  1.0000 0.1191509511
H   H19       1.0  0.94950  0.55890  0.09820  1.0000 0.1283688873
H   H20       1.0  0.05510  0.63990  0.25400  1.0000 0.1105250645
H   H21       1.0  0.52690  0.72300  0.98260  1.0000 0.1191509511
H   H22       1.0  0.44290  0.79020  0.96610  1.0000 0.1283688873
H   H23       1.0  0.41330  0.61430  0.83140  1.0000 0.1283688873
H   H24       1.0  0.32870  0.68130  0.81480  1.0000 0.1283688873
H   H25       1.0  0.79480  0.82980  0.80910  1.0000 0.1366882022
H   H26       1.0  0.92280  0.86950  0.72030  1.0000 0.1283688873
H   H27       1.0  0.83530  0.78570  0.56670  1.0000 0.1105250645
H   H28       1.0  0.49680  0.62090  0.57590  1.0000 0.1283688873
H   H29       1.0  0.03560  0.62160  0.39920  1.0000 0.1283688873
H   H30       1.0  0.78180  0.37660  0.37720  1.0000 0.1105250645
H   H31       1.0  0.96670  0.31300  0.37160  1.0000 0.1105250645
H   H32       1.0  0.18860  0.40590  0.38310  1.0000 0.1105250645
H   H33       1.0  0.68100  0.98760  0.37910  1.0000 0.1105250645
H   H34       1.0  0.85620  0.79140  0.40390  1.0000 0.1283688873
H   H35       1.0  0.08090  0.01220  0.37470  1.0000 0.1105250645
H   H36       1.0  0.88790  0.06920  0.36750  1.0000 0.1105250645
H   H37       1.0  0.67360  0.54350  0.76260  1.0000 0.1191509511
H   H38       1.0  0.86350  0.64490  0.90500  1.0000 0.2970922585
H   H39       1.0  0.24370  0.94180  0.29050  1.0000 0.2899353351
H   H40       1.0  0.65280  0.52860  0.99260  1.0000 0.1283688873
H   H41       1.0  0.44770  0.39400  0.90370  1.0000 0.1283688873
H   H42       1.0  0.35880  0.34160  0.74920  1.0000 0.1105250645
H   H43       1.0  0.58550  0.23230  0.90360  1.0000 0.2899353351
H   H44       1.0  0.52830  0.36680  0.29190  1.0000 0.2899353351
H   H45       1.0  0.03420  0.77370  0.01800  1.0000 0.1191509511
H   H46       1.0  0.93410  0.83600  0.01810  1.0000 0.1482576127
H   H47       1.0  0.05690  0.81240  0.17400  1.0000 0.1191509511
H   H48       1.0  0.97830  0.88640  0.17090  1.0000 0.1283688873
H   H49       1.0  0.45710  0.05100  0.19230  1.0000 0.1366882022
H   H50       1.0  0.68120  0.17000  0.28140  1.0000 0.1283688873
H   H51       1.0  0.76090  0.22750  0.43520  1.0000 0.1105250645
H   H52       1.0  0.41440  0.05100  0.42360  1.0000 0.1283688873
H   H53       1.0  0.60170  0.21380  0.76650  1.0000 0.1191509511
H   H54       1.0  0.92720  0.40820  0.99460  1.0000 0.1191509511
H   H55       1.0  0.05050  0.44110  0.90180  1.0000 0.1283688873
H   H56       1.0  0.94490  0.36010  0.74600  1.0000 0.1105250645
H   H57       1.0  0.47310  0.27700  0.01740  1.0000 0.1191509511
H   H58       1.0  0.55710  0.20980  0.03390  1.0000 0.1283688873
H   H59       1.0  0.58670  0.38570  0.16860  1.0000 0.1283688873
H   H60       1.0  0.67130  0.31870  0.18520  1.0000 0.1283688873
H   H61       1.0  0.20520  0.17020  0.19090  1.0000 0.1366882022
H   H62       1.0  0.07720  0.13050  0.27970  1.0000 0.1283688873
H   H63       1.0  0.16470  0.21430  0.43330  1.0000 0.1105250645
H   H64       1.0  0.50320  0.37910  0.42410  1.0000 0.1283688873
H   H65       1.0  0.96440  0.37840  0.60080  1.0000 0.1283688873
H   H66       1.0  0.21820  0.62340  0.62280  1.0000 0.1105250645
H   H67       1.0  0.03330  0.68700  0.62840  1.0000 0.1105250645
H   H68       1.0  0.81140  0.59410  0.61690  1.0000 0.1105250645
H   H69       1.0  0.31900  0.01240  0.62090  1.0000 0.1105250645
H   H70       1.0  0.14380  0.20860  0.59610  1.0000 0.1283688873
H   H71       1.0  0.91910  0.98780  0.62530  1.0000 0.1105250645
H   H72       1.0  0.11210  0.93080  0.63250  1.0000 0.1105250645
C   C1        1.0  0.37330  0.48610  0.20820  1.0000 -0.0403400664
C   C2        1.0  0.31850  0.44620  0.11370  1.0000 0.1878785238
C   C3        1.0  0.38410  0.49340  0.07040  1.0000 -0.1312357515
C   C4        1.0  0.50550  0.57370  0.12360  1.0000 -0.1161942978
C   C5        1.0  0.55680  0.60600  0.21650  1.0000 0.0602501244
C   C6        1.0  0.16400  0.29030  0.98260  1.0000 0.5359230037
C   C7        1.0  0.03470  0.20450  0.95570  1.0000 -0.3058934911
C   C8        1.0  0.95940  0.14550  0.85420  1.0000 -0.3013715689
C   C9        1.0  0.81610  0.07120  0.83030  1.0000 0.5322754908
C   C10       1.0  0.59020  0.96210  0.70010  1.0000 0.1878785238
C   C11       1.0  0.50900  0.92610  0.74450  1.0000 -0.1312357515
C   C12       1.0  0.37580  0.85490  0.69090  1.0000 -0.138891377
C   C13       1.0  0.32800  0.82110  0.59880  1.0000 0.0387913766
C   C14       1.0  0.53220  0.92450  0.60600  1.0000 -0.0183551754
C   C15       1.0  0.30800  0.73870  0.20580  1.0000 -0.0403400664
C   C16       1.0  0.25160  0.69120  0.11150  1.0000 0.1758379038
C   C17       1.0  0.11440  0.62340  0.06870  1.0000 -0.1487072263
C   C18       1.0  0.04140  0.60450  0.12420  1.0000 -0.1112603422
C   C19       1.0  0.10560  0.65330  0.21790  1.0000 0.0602501244
C   C20       1.0  0.31710  0.67650  0.97370  1.0000 0.5322754908
C   C21       1.0  0.43600  0.72380  0.94770  1.0000 -0.3013715689
C   C22       1.0  0.41900  0.68050  0.85030  1.0000 -0.3013715689
C   C23       1.0  0.54160  0.73160  0.82910  1.0000 0.5322754908
C   C24       1.0  0.62880  0.72080  0.70030  1.0000 0.1878785238
C   C25       1.0  0.75930  0.79610  0.74580  1.0000 -0.1312357515
C   C26       1.0  0.83550  0.81920  0.69230  1.0000 -0.138891377
C   C27       1.0  0.78270  0.76850  0.60030  1.0000 0.0387913766
C   C28       1.0  0.58320  0.67200  0.60590  1.0000 -0.0291170727
C   C29       1.0  0.13430  0.52300  0.39200  1.0000 -0.0291170727
C   C30       1.0  0.02240  0.56020  0.39440  1.0000 -0.1112603422
C   C31       1.0  0.89020  0.50530  0.38960  1.0000 -0.0132619538
C   C32       1.0  0.87030  0.41330  0.38090  1.0000 -0.1112603422
C   C33       1.0  0.98090  0.37500  0.37780  1.0000 -0.0982880286
C   C34       1.0  0.11340  0.43060  0.38410  1.0000 -0.0982880286
C   C35       1.0  0.77210  0.54830  0.39560  1.0000 0.5322754908
C   C36       1.0  0.27990  0.58400  0.40140  1.0000 0.5693390216
C   C37       1.0  0.75830  0.96480  0.38210  1.0000 -0.0944357072
C   C38       1.0  0.74750  0.88130  0.39390  1.0000 -0.0291170727
C   C39       1.0  0.86240  0.84730  0.39690  1.0000 -0.1161942978
C   C40       1.0  0.98880  0.89710  0.38950  1.0000 -0.0183551754
C   C41       1.0  0.99710  0.97910  0.37910  1.0000 -0.1112603422
C   C42       1.0  0.88160  0.01360  0.37500  1.0000 -0.0982880286
C   C43       1.0  0.61330  0.82880  0.40390  1.0000 0.5693390216
C   C44       1.0  0.11430  0.86080  0.39760  1.0000 0.5322754908
C   C45       1.0  0.62670  0.51390  0.79180  1.0000 -0.0403400664
C   C46       1.0  0.68150  0.55380  0.88630  1.0000 0.1878785238
C   C47       1.0  0.61590  0.50660  0.92960  1.0000 -0.1312357515
C   C48       1.0  0.49450  0.42630  0.87640  1.0000 -0.1161942978
C   C49       1.0  0.44320  0.39400  0.78350  1.0000 0.0602501244
C   C50       1.0  0.83600  0.70970  0.01740  1.0000 0.5359230037
C   C51       1.0  0.96530  0.79550  0.04430  1.0000 -0.3058934911
C   C52       1.0  0.04060  0.85450  0.14580  1.0000 -0.3058934911
C   C53       1.0  0.18390  0.92880  0.16970  1.0000 0.5322754908
C   C54       1.0  0.40980  0.03790  0.29990  1.0000 0.1878785238
C   C55       1.0  0.49100  0.07390  0.25550  1.0000 -0.1312357515
C   C56       1.0  0.62420  0.14510  0.30910  1.0000 -0.138891377
C   C57       1.0  0.67200  0.17890  0.40120  1.0000 0.0387913766
C   C58       1.0  0.46780  0.07550  0.39400  1.0000 -0.0183551754
C   C59       1.0  0.69200  0.26130  0.79420  1.0000 -0.0403400664
C   C60       1.0  0.74840  0.30880  0.88850  1.0000 0.1758379038
C   C61       1.0  0.88560  0.37660  0.93130  1.0000 -0.1487072263
C   C62       1.0  0.95860  0.39550  0.87580  1.0000 -0.1161942978
C   C63       1.0  0.89440  0.34670  0.78210  1.0000 0.0602501244
C   C64       1.0  0.68290  0.32350  0.02630  1.0000 0.5247529741
C   C65       1.0  0.56400  0.27620  0.05230  1.0000 -0.3013715689
C   C66       1.0  0.58100  0.31950  0.14970  1.0000 -0.3013715689
C   C67       1.0  0.45840  0.26840  0.17090  1.0000 0.5322754908
C   C68       1.0  0.37120  0.27920  0.29970  1.0000 0.1878785238
C   C69       1.0  0.24070  0.20390  0.25420  1.0000 -0.1312357515
C   C70       1.0  0.16450  0.18080  0.30770  1.0000 -0.138891377
C   C71       1.0  0.21730  0.23150  0.39970  1.0000 0.0387913766
C   C72       1.0  0.41680  0.32800  0.39410  1.0000 -0.0291170727
C   C73       1.0  0.86570  0.47700  0.60800  1.0000 -0.0291170727
C   C74       1.0  0.97760  0.43980  0.60560  1.0000 -0.1112603422
C   C75       1.0  0.10980  0.49470  0.61040  1.0000 -0.0132619538
C   C76       1.0  0.12970  0.58670  0.61910  1.0000 -0.1112603422
C   C77       1.0  0.01910  0.62500  0.62220  1.0000 -0.0982880286
C   C78       1.0  0.88660  0.56940  0.61590  1.0000 -0.0982880286
C   C79       1.0  0.22790  0.45170  0.60440  1.0000 0.5322754908
C   C80       1.0  0.72010  0.41600  0.59860  1.0000 0.5693390216
C   C81       1.0  0.24170  0.03520  0.61790  1.0000 -0.0944357072
C   C82       1.0  0.25250  0.11870  0.60610  1.0000 -0.0291170727
C   C83       1.0  0.13760  0.15270  0.60310  1.0000 -0.1161942978
C   C84       1.0  0.01120  0.10290  0.61050  1.0000 -0.0183551754
C   C85       1.0  0.00290  0.02090  0.62090  1.0000 -0.1112603422
C   C86       1.0  0.11840  0.98640  0.62500  1.0000 -0.0982880286
C   C87       1.0  0.38670  0.17120  0.59610  1.0000 0.5693390216
C   C88       1.0  0.88570  0.13920  0.60240  1.0000 0.5322754908
N   N1        1.0  0.48960  0.56440  0.25980  1.0000 -0.2290060078
N   N2        1.0  0.19650  0.36190  0.06720  1.0000 -0.3883655125
N   N3        1.0  0.72640  0.03440  0.74310  1.0000 -0.3883655125
N   N4        1.0  0.40410  0.85510  0.55460  1.0000 -0.2290060078
N   N5        1.0  0.23800  0.71920  0.25880  1.0000 -0.2290060078
N   N6        1.0  0.33820  0.71810  0.06360  1.0000 -0.3789525931
N   N7        1.0  0.53810  0.68800  0.74200  1.0000 -0.3883655125
N   N8        1.0  0.65760  0.69460  0.55520  1.0000 -0.2290060078
N   N9        1.0  0.51040  0.43560  0.74020  1.0000 -0.2290060078
N   N10       1.0  0.80350  0.63810  0.93280  1.0000 -0.3883655125
N   N11       1.0  0.27360  0.96560  0.25690  1.0000 -0.3883655125
N   N12       1.0  0.59590  0.14490  0.44540  1.0000 -0.2290060078
N   N13       1.0  0.76200  0.28080  0.74120  1.0000 -0.2290060078
N   N14       1.0  0.66180  0.28190  0.93640  1.0000 -0.3789525931
N   N15       1.0  0.46190  0.31200  0.25800  1.0000 -0.3883655125
N   N16       1.0  0.34240  0.30540  0.44480  1.0000 -0.2290060078
O   O1        1.0  0.23360  0.29500  0.93270  1.0000 -0.507753462
O   O2        1.0  0.78550  0.04610  0.88620  1.0000 -0.4820700441
O   O3        1.0  0.21200  0.60780  0.91830  1.0000 -0.4997090255
O   O4        1.0  0.63440  0.80790  0.88640  1.0000 -0.4910092954
O   O5        1.0  0.38010  0.54970  0.40360  1.0000 -0.530072615
O   O6        1.0  0.29290  0.66540  0.40760  1.0000 -0.5505212103
O   O7        1.0  0.79360  0.63310  0.40990  1.0000 -0.507753462
O   O8        1.0  0.65010  0.49830  0.38880  1.0000 -0.5505212103
O   O9        1.0  0.51180  0.86350  0.40130  1.0000 -0.530072615
O   O10       1.0  0.60820  0.75580  0.41360  1.0000 -0.5442893509
O   O11       1.0  0.10820  0.78890  0.41300  1.0000 -0.5219948892
O   O12       1.0  0.22770  0.90300  0.38950  1.0000 -0.5442893509
O   O13       1.0  0.76640  0.70500  0.06730  1.0000 -0.507753462
O   O14       1.0  0.21450  0.95390  0.11380  1.0000 -0.4820700441
O   O15       1.0  0.78800  0.39220  0.08170  1.0000 -0.4997090255
O   O16       1.0  0.36560  0.19210  0.11360  1.0000 -0.4910092954
O   O17       1.0  0.61990  0.45030  0.59640  1.0000 -0.530072615
O   O18       1.0  0.70710  0.33460  0.59240  1.0000 -0.5505212103
O   O19       1.0  0.20640  0.36690  0.59010  1.0000 -0.507753462
O   O20       1.0  0.34990  0.50170  0.61120  1.0000 -0.5505212103
O   O21       1.0  0.48820  0.13650  0.59870  1.0000 -0.530072615
O   O22       1.0  0.39180  0.24420  0.58640  1.0000 -0.5442893509
O   O23       1.0  0.89180  0.21110  0.58700  1.0000 -0.5219948892
O   O24       1.0  0.77230  0.09700  0.61050  1.0000 -0.5442893509
