# DDEC6 charges by PACMAN v1.1 (https://github.com/mtap-research/PACMAN-charge/)
data_2014[Zn][nan]3[ASR]10
_chemical_formula_sum              "Zn20 H288 C384 O120"
_cell_length_a       25.107
_cell_length_b       25.107
_cell_length_c       23.531
_cell_angle_alpha    90
_cell_angle_beta     90
_cell_angle_gamma    90

_symmetry_space_group_name_H-M    "P 1"
_symmetry_Int_Tables_number       1

loop_
  _symmetry_equiv_pos_as_xyz
  'x, y, z'

loop_
  _atom_site_type_symbol
  _atom_site_label
  _atom_site_symmetry_multiplicity
  _atom_site_fract_x
  _atom_site_fract_y
  _atom_site_fract_z
  _atom_site_occupancy
  _atom_site_charge
Zn  Zn1       1.0  0.09227  0.53769  0.45167  1.0000 0.9846933595
Zn  Zn2       1.0  0.90773  0.46231  0.45167  1.0000 0.9846933595
Zn  Zn3       1.0  0.03769  0.59227  0.95167  1.0000 0.9846933595
Zn  Zn4       1.0  0.96231  0.40773  0.95167  1.0000 0.9846933595
Zn  Zn5       1.0  0.06006  0.61908  0.55520  1.0000 0.9622659793
Zn  Zn6       1.0  0.93994  0.38092  0.55520  1.0000 0.9622659793
Zn  Zn7       1.0  0.11908  0.56006  0.05520  1.0000 0.9622659793
Zn  Zn8       1.0  0.88092  0.43994  0.05520  1.0000 0.9622659793
Zn  Zn9       1.0  0.00000  0.50000  0.53344  1.0000 1.0454127303
Zn  Zn10      1.0  0.00000  0.50000  0.03344  1.0000 1.0454127303
Zn  Zn11      1.0  0.40773  0.03769  0.04833  1.0000 0.9846933595
Zn  Zn12      1.0  0.59227  0.96231  0.04833  1.0000 0.9846933595
Zn  Zn13      1.0  0.46231  0.09227  0.54833  1.0000 0.9846933595
Zn  Zn14      1.0  0.53769  0.90773  0.54833  1.0000 0.9846933595
Zn  Zn15      1.0  0.43994  0.11908  0.94480  1.0000 0.9622659793
Zn  Zn16      1.0  0.56006  0.88092  0.94480  1.0000 0.9622659793
Zn  Zn17      1.0  0.38092  0.06006  0.44480  1.0000 0.9622659793
Zn  Zn18      1.0  0.61908  0.93994  0.44480  1.0000 0.9622659793
Zn  Zn19      1.0  0.50000  0.00000  0.96656  1.0000 1.0454127303
Zn  Zn20      1.0  0.50000  0.00000  0.46656  1.0000 1.0454127303
H   H1        1.0  0.49960  0.79200  0.63120  1.0000 0.1024927495
H   H2        1.0  0.50040  0.20800  0.63120  1.0000 0.1024927495
H   H3        1.0  0.29200  0.99960  0.13120  1.0000 0.1024927495
H   H4        1.0  0.70800  0.00040  0.13120  1.0000 0.1024927495
H   H5        1.0  0.51190  0.79610  0.69750  1.0000 0.12717567
H   H6        1.0  0.48810  0.20390  0.69750  1.0000 0.12717567
H   H7        1.0  0.29610  0.01190  0.19750  1.0000 0.12717567
H   H8        1.0  0.70390  0.98810  0.19750  1.0000 0.12717567
H   H9        1.0  0.60570  0.76670  0.60700  1.0000 0.119721969
H   H10       1.0  0.39430  0.23330  0.60700  1.0000 0.119721969
H   H11       1.0  0.26670  0.10570  0.10700  1.0000 0.119721969
H   H12       1.0  0.73330  0.89430  0.10700  1.0000 0.119721969
H   H13       1.0  0.60010  0.79200  0.66800  1.0000 0.119721969
H   H14       1.0  0.39990  0.20800  0.66800  1.0000 0.119721969
H   H15       1.0  0.29200  0.10010  0.16800  1.0000 0.119721969
H   H16       1.0  0.70800  0.89990  0.16800  1.0000 0.119721969
H   H17       1.0  0.68400  0.74180  0.64900  1.0000 0.0946388132
H   H18       1.0  0.31600  0.25820  0.64900  1.0000 0.0946388132
H   H19       1.0  0.24180  0.18400  0.14900  1.0000 0.0946388132
H   H20       1.0  0.75820  0.81600  0.14900  1.0000 0.0946388132
H   H21       1.0  0.64870  0.69050  0.65750  1.0000 0.1024927495
H   H22       1.0  0.35130  0.30950  0.65750  1.0000 0.1024927495
H   H23       1.0  0.19050  0.14870  0.15750  1.0000 0.1024927495
H   H24       1.0  0.80950  0.85130  0.15750  1.0000 0.1024927495
H   H25       1.0  0.65630  0.66950  0.91100  1.0000 0.1099973094
H   H26       1.0  0.34370  0.33050  0.91100  1.0000 0.1099973094
H   H27       1.0  0.16950  0.15630  0.41100  1.0000 0.1099973094
H   H28       1.0  0.83050  0.84370  0.41100  1.0000 0.1099973094
H   H29       1.0  0.68800  0.72330  0.91690  1.0000 0.1099973094
H   H30       1.0  0.31200  0.27670  0.91690  1.0000 0.1099973094
H   H31       1.0  0.22330  0.18800  0.41690  1.0000 0.1099973094
H   H32       1.0  0.77670  0.81200  0.41690  1.0000 0.1099973094
H   H33       1.0  0.80530  0.56950  0.69910  1.0000 0.119721969
H   H34       1.0  0.19470  0.43050  0.69910  1.0000 0.119721969
H   H35       1.0  0.06950  0.30530  0.19910  1.0000 0.119721969
H   H36       1.0  0.93050  0.69470  0.19910  1.0000 0.119721969
H   H37       1.0  0.87860  0.54380  0.64740  1.0000 0.1480900401
H   H38       1.0  0.12140  0.45620  0.64740  1.0000 0.1480900401
H   H39       1.0  0.04380  0.37860  0.14740  1.0000 0.1480900401
H   H40       1.0  0.95620  0.62140  0.14740  1.0000 0.1480900401
H   H41       1.0  0.93410  0.69190  0.64860  1.0000 0.1099973094
H   H42       1.0  0.06590  0.30810  0.64860  1.0000 0.1099973094
H   H43       1.0  0.19190  0.43410  0.14860  1.0000 0.1099973094
H   H44       1.0  0.80810  0.56590  0.14860  1.0000 0.1099973094
H   H45       1.0  0.86300  0.71940  0.70240  1.0000 0.1099973094
H   H46       1.0  0.13700  0.28060  0.70240  1.0000 0.1099973094
H   H47       1.0  0.21940  0.36300  0.20240  1.0000 0.1099973094
H   H48       1.0  0.78060  0.63700  0.20240  1.0000 0.1099973094
H   H49       1.0  0.20400  0.68460  0.62670  1.0000 0.1024927495
H   H50       1.0  0.79600  0.31540  0.62670  1.0000 0.1024927495
H   H51       1.0  0.18460  0.70400  0.12670  1.0000 0.1024927495
H   H52       1.0  0.81540  0.29600  0.12670  1.0000 0.1024927495
H   H53       1.0  0.28380  0.70680  0.67490  1.0000 0.1099973094
H   H54       1.0  0.71620  0.29320  0.67490  1.0000 0.1099973094
H   H55       1.0  0.20680  0.78380  0.17490  1.0000 0.1099973094
H   H56       1.0  0.79320  0.21620  0.17490  1.0000 0.1099973094
H   H57       1.0  0.28880  0.55970  0.73630  1.0000 0.119721969
H   H58       1.0  0.71120  0.44030  0.73630  1.0000 0.119721969
H   H59       1.0  0.05970  0.78880  0.23630  1.0000 0.119721969
H   H60       1.0  0.94030  0.21120  0.23630  1.0000 0.119721969
H   H61       1.0  0.21230  0.53840  0.68770  1.0000 0.119721969
H   H62       1.0  0.78770  0.46160  0.68770  1.0000 0.119721969
H   H63       1.0  0.03840  0.71230  0.18770  1.0000 0.119721969
H   H64       1.0  0.96160  0.28770  0.18770  1.0000 0.119721969
H   H65       1.0  0.38290  0.67890  0.68580  1.0000 0.119721969
H   H66       1.0  0.61710  0.32110  0.68580  1.0000 0.119721969
H   H67       1.0  0.17890  0.88290  0.18580  1.0000 0.119721969
H   H68       1.0  0.82110  0.11710  0.18580  1.0000 0.119721969
H   H69       1.0  0.38460  0.65230  0.88030  1.0000 0.119721969
H   H70       1.0  0.61540  0.34770  0.88030  1.0000 0.119721969
H   H71       1.0  0.15230  0.88460  0.38030  1.0000 0.119721969
H   H72       1.0  0.84770  0.11540  0.38030  1.0000 0.119721969
H   H73       1.0  0.32330  0.56620  0.88250  1.0000 0.12717567
H   H74       1.0  0.67670  0.43380  0.88250  1.0000 0.12717567
H   H75       1.0  0.06620  0.82330  0.38250  1.0000 0.12717567
H   H76       1.0  0.93380  0.17670  0.38250  1.0000 0.12717567
H   H77       1.0  0.25340  0.54710  0.94030  1.0000 0.1099973094
H   H78       1.0  0.74660  0.45290  0.94030  1.0000 0.1099973094
H   H79       1.0  0.04710  0.75340  0.44030  1.0000 0.1099973094
H   H80       1.0  0.95290  0.24660  0.44030  1.0000 0.1099973094
H   H81       1.0  0.16990  0.66390  0.86530  1.0000 0.1099973094
H   H82       1.0  0.83010  0.33610  0.86530  1.0000 0.1024927495
H   H83       1.0  0.16390  0.66990  0.36530  1.0000 0.1024927495
H   H84       1.0  0.83610  0.33010  0.36530  1.0000 0.1024927495
H   H85       1.0  0.24120  0.68170  0.80800  1.0000 0.119721969
H   H86       1.0  0.75880  0.31830  0.80800  1.0000 0.119721969
H   H87       1.0  0.18170  0.74120  0.30800  1.0000 0.119721969
H   H88       1.0  0.81830  0.25880  0.30800  1.0000 0.119721969
H   H89       1.0  0.43440  0.74660  0.66870  1.0000 0.1024927495
H   H90       1.0  0.56560  0.25340  0.66870  1.0000 0.1024927495
H   H91       1.0  0.24660  0.93440  0.16870  1.0000 0.1024927495
H   H92       1.0  0.75340  0.06560  0.16870  1.0000 0.1024927495
H   H93       1.0  0.47580  0.70320  0.65010  1.0000 0.119721969
H   H94       1.0  0.52420  0.29680  0.65010  1.0000 0.119721969
H   H95       1.0  0.20320  0.97580  0.15010  1.0000 0.119721969
H   H96       1.0  0.79680  0.02420  0.15010  1.0000 0.119721969
H   H97       1.0  0.60380  0.76920  0.91530  1.0000 0.119721969
H   H98       1.0  0.39620  0.23080  0.91530  1.0000 0.119721969
H   H99       1.0  0.26920  0.10380  0.41530  1.0000 0.119721969
H   H100      1.0  0.73080  0.89620  0.41530  1.0000 0.119721969
H   H101      1.0  0.61170  0.73390  0.97000  1.0000 0.1024927495
H   H102      1.0  0.38830  0.26610  0.97000  1.0000 0.1024927495
H   H103      1.0  0.23390  0.11170  0.47000  1.0000 0.1024927495
H   H104      1.0  0.76610  0.88830  0.47000  1.0000 0.1024927495
H   H105      1.0  0.51240  0.73830  0.96350  1.0000 0.1024927495
H   H106      1.0  0.48760  0.26170  0.96350  1.0000 0.1024927495
H   H107      1.0  0.23830  0.01240  0.46350  1.0000 0.1024927495
H   H108      1.0  0.76170  0.98760  0.46350  1.0000 0.1024927495
H   H109      1.0  0.51630  0.76330  0.90230  1.0000 0.119721969
H   H110      1.0  0.48370  0.23670  0.90230  1.0000 0.119721969
H   H111      1.0  0.26330  0.01630  0.40230  1.0000 0.119721969
H   H112      1.0  0.73670  0.98370  0.40230  1.0000 0.119721969
H   H113      1.0  0.43580  0.71130  0.91780  1.0000 0.1099973094
H   H114      1.0  0.56420  0.28870  0.91780  1.0000 0.1099973094
H   H115      1.0  0.21130  0.93580  0.41780  1.0000 0.1099973094
H   H116      1.0  0.78870  0.06420  0.41780  1.0000 0.1099973094
H   H117      1.0  0.47260  0.66030  0.91820  1.0000 0.1099973094
H   H118      1.0  0.52740  0.33970  0.91820  1.0000 0.1099973094
H   H119      1.0  0.16030  0.97260  0.41820  1.0000 0.1099973094
H   H120      1.0  0.83970  0.02740  0.41820  1.0000 0.1099973094
H   H121      1.0  0.73940  0.69760  0.68090  1.0000 0.119721969
H   H122      1.0  0.26060  0.30240  0.68090  1.0000 0.119721969
H   H123      1.0  0.19760  0.23940  0.18090  1.0000 0.119721969
H   H124      1.0  0.80240  0.76060  0.18090  1.0000 0.119721969
H   H125      1.0  0.73660  0.66230  0.87220  1.0000 0.119721969
H   H126      1.0  0.26340  0.33770  0.87220  1.0000 0.119721969
H   H127      1.0  0.16230  0.23660  0.37220  1.0000 0.119721969
H   H128      1.0  0.83770  0.76340  0.37220  1.0000 0.119721969
H   H129      1.0  0.79130  0.54850  0.81310  1.0000 0.12717567
H   H130      1.0  0.20870  0.45150  0.81310  1.0000 0.12717567
H   H131      1.0  0.04850  0.29130  0.31310  1.0000 0.12717567
H   H132      1.0  0.95150  0.70870  0.31310  1.0000 0.12717567
H   H133      1.0  0.85050  0.49850  0.86420  1.0000 0.12717567
H   H134      1.0  0.14950  0.50150  0.86420  1.0000 0.12717567
H   H135      1.0  0.99850  0.35050  0.36420  1.0000 0.12717567
H   H136      1.0  0.00150  0.64950  0.36420  1.0000 0.12717567
H   H137      1.0  0.92200  0.63070  0.91680  1.0000 0.119721969
H   H138      1.0  0.07800  0.36930  0.91680  1.0000 0.119721969
H   H139      1.0  0.13070  0.42200  0.41680  1.0000 0.119721969
H   H140      1.0  0.86930  0.57800  0.41680  1.0000 0.119721969
H   H141      1.0  0.86450  0.68170  0.86360  1.0000 0.119721969
H   H142      1.0  0.13550  0.31830  0.86360  1.0000 0.119721969
H   H143      1.0  0.18170  0.36450  0.36360  1.0000 0.119721969
H   H144      1.0  0.81830  0.63550  0.36360  1.0000 0.119721969
H   H145      1.0  0.00040  0.29200  0.86880  1.0000 0.1024927495
H   H146      1.0  0.99960  0.70800  0.86880  1.0000 0.1024927495
H   H147      1.0  0.20800  0.49960  0.36880  1.0000 0.1024927495
H   H148      1.0  0.79200  0.50040  0.36880  1.0000 0.1024927495
H   H149      1.0  0.98810  0.29610  0.80250  1.0000 0.12717567
H   H150      1.0  0.01190  0.70390  0.80250  1.0000 0.12717567
H   H151      1.0  0.20390  0.51190  0.30250  1.0000 0.12717567
H   H152      1.0  0.79610  0.48810  0.30250  1.0000 0.12717567
H   H153      1.0  0.89430  0.26670  0.89300  1.0000 0.119721969
H   H154      1.0  0.10570  0.73330  0.89300  1.0000 0.119721969
H   H155      1.0  0.23330  0.60570  0.39300  1.0000 0.119721969
H   H156      1.0  0.76670  0.39430  0.39300  1.0000 0.119721969
H   H157      1.0  0.89990  0.29200  0.83200  1.0000 0.119721969
H   H158      1.0  0.10010  0.70800  0.83200  1.0000 0.119721969
H   H159      1.0  0.20800  0.60010  0.33200  1.0000 0.119721969
H   H160      1.0  0.79200  0.39990  0.33200  1.0000 0.119721969
H   H161      1.0  0.81600  0.24180  0.85100  1.0000 0.0946388132
H   H162      1.0  0.18400  0.75820  0.85100  1.0000 0.0946388132
H   H163      1.0  0.25820  0.68400  0.35100  1.0000 0.0946388132
H   H164      1.0  0.74180  0.31600  0.35100  1.0000 0.0946388132
H   H165      1.0  0.85130  0.19050  0.84250  1.0000 0.1024927495
H   H166      1.0  0.14870  0.80950  0.84250  1.0000 0.1024927495
H   H167      1.0  0.30950  0.64870  0.34250  1.0000 0.1024927495
H   H168      1.0  0.69050  0.35130  0.34250  1.0000 0.1024927495
H   H169      1.0  0.84370  0.16950  0.58900  1.0000 0.1099973094
H   H170      1.0  0.15630  0.83050  0.58900  1.0000 0.1099973094
H   H171      1.0  0.33050  0.65630  0.08900  1.0000 0.1099973094
H   H172      1.0  0.66950  0.34370  0.08900  1.0000 0.1099973094
H   H173      1.0  0.81200  0.22330  0.58310  1.0000 0.1099973094
H   H174      1.0  0.18800  0.77670  0.58310  1.0000 0.1099973094
H   H175      1.0  0.27670  0.68800  0.08310  1.0000 0.1099973094
H   H176      1.0  0.72330  0.31200  0.08310  1.0000 0.1099973094
H   H177      1.0  0.69470  0.06950  0.80090  1.0000 0.119721969
H   H178      1.0  0.30530  0.93050  0.80090  1.0000 0.119721969
H   H179      1.0  0.43050  0.80530  0.30090  1.0000 0.119721969
H   H180      1.0  0.56950  0.19470  0.30090  1.0000 0.119721969
H   H181      1.0  0.62140  0.04380  0.85260  1.0000 0.1480900401
H   H182      1.0  0.37860  0.95620  0.85260  1.0000 0.1480900401
H   H183      1.0  0.45620  0.87860  0.35260  1.0000 0.1480900401
H   H184      1.0  0.54380  0.12140  0.35260  1.0000 0.1480900401
H   H185      1.0  0.56590  0.19190  0.85140  1.0000 0.1099973094
H   H186      1.0  0.43410  0.80810  0.85140  1.0000 0.1099973094
H   H187      1.0  0.30810  0.93410  0.35140  1.0000 0.1099973094
H   H188      1.0  0.69190  0.06590  0.35140  1.0000 0.1099973094
H   H189      1.0  0.63700  0.21940  0.79760  1.0000 0.1099973094
H   H190      1.0  0.36300  0.78060  0.79760  1.0000 0.1099973094
H   H191      1.0  0.28060  0.86300  0.29760  1.0000 0.1099973094
H   H192      1.0  0.71940  0.13700  0.29760  1.0000 0.1099973094
H   H193      1.0  0.29600  0.18460  0.87330  1.0000 0.1024927495
H   H194      1.0  0.70400  0.81540  0.87330  1.0000 0.1024927495
H   H195      1.0  0.31540  0.20400  0.37330  1.0000 0.1024927495
H   H196      1.0  0.68460  0.79600  0.37330  1.0000 0.1024927495
H   H197      1.0  0.21620  0.20680  0.82510  1.0000 0.1099973094
H   H198      1.0  0.78380  0.79320  0.82510  1.0000 0.1099973094
H   H199      1.0  0.29320  0.28380  0.32510  1.0000 0.1099973094
H   H200      1.0  0.70680  0.71620  0.32510  1.0000 0.1099973094
H   H201      1.0  0.21120  0.05970  0.76370  1.0000 0.119721969
H   H202      1.0  0.78880  0.94030  0.76370  1.0000 0.119721969
H   H203      1.0  0.44030  0.28880  0.26370  1.0000 0.119721969
H   H204      1.0  0.55970  0.71120  0.26370  1.0000 0.119721969
H   H205      1.0  0.28770  0.03840  0.81230  1.0000 0.119721969
H   H206      1.0  0.71230  0.96160  0.81230  1.0000 0.119721969
H   H207      1.0  0.46160  0.21230  0.31230  1.0000 0.119721969
H   H208      1.0  0.53840  0.78770  0.31230  1.0000 0.119721969
H   H209      1.0  0.11710  0.17890  0.81420  1.0000 0.119721969
H   H210      1.0  0.88290  0.82110  0.81420  1.0000 0.119721969
H   H211      1.0  0.32110  0.38290  0.31420  1.0000 0.119721969
H   H212      1.0  0.67890  0.61710  0.31420  1.0000 0.119721969
H   H213      1.0  0.11540  0.15230  0.61970  1.0000 0.119721969
H   H214      1.0  0.88460  0.84770  0.61970  1.0000 0.119721969
H   H215      1.0  0.34770  0.38460  0.11970  1.0000 0.119721969
H   H216      1.0  0.65230  0.61540  0.11970  1.0000 0.119721969
H   H217      1.0  0.17670  0.06620  0.61750  1.0000 0.12717567
H   H218      1.0  0.82330  0.93380  0.61750  1.0000 0.12717567
H   H219      1.0  0.43380  0.32330  0.11750  1.0000 0.12717567
H   H220      1.0  0.56620  0.67670  0.11750  1.0000 0.12717567
H   H221      1.0  0.24660  0.04710  0.55970  1.0000 0.1099973094
H   H222      1.0  0.75340  0.95290  0.55970  1.0000 0.1099973094
H   H223      1.0  0.45290  0.25340  0.05970  1.0000 0.1099973094
H   H224      1.0  0.54710  0.74660  0.05970  1.0000 0.1099973094
H   H225      1.0  0.33010  0.16390  0.63470  1.0000 0.1024927495
H   H226      1.0  0.66990  0.83610  0.63470  1.0000 0.1024927495
H   H227      1.0  0.33610  0.16990  0.13470  1.0000 0.1024927495
H   H228      1.0  0.66390  0.83010  0.13470  1.0000 0.1024927495
H   H229      1.0  0.25880  0.18170  0.69200  1.0000 0.119721969
H   H230      1.0  0.74120  0.81830  0.69200  1.0000 0.119721969
H   H231      1.0  0.31830  0.24120  0.19200  1.0000 0.119721969
H   H232      1.0  0.68170  0.75880  0.19200  1.0000 0.119721969
H   H233      1.0  0.06560  0.24660  0.83130  1.0000 0.1024927495
H   H234      1.0  0.93440  0.75340  0.83130  1.0000 0.1024927495
H   H235      1.0  0.25340  0.43440  0.33130  1.0000 0.1024927495
H   H236      1.0  0.74660  0.56560  0.33130  1.0000 0.1024927495
H   H237      1.0  0.02420  0.20320  0.84990  1.0000 0.119721969
H   H238      1.0  0.97580  0.79680  0.84990  1.0000 0.119721969
H   H239      1.0  0.29680  0.47580  0.34990  1.0000 0.119721969
H   H240      1.0  0.70320  0.52420  0.34990  1.0000 0.119721969
H   H241      1.0  0.89620  0.26920  0.58470  1.0000 0.119721969
H   H242      1.0  0.10380  0.73080  0.58470  1.0000 0.119721969
H   H243      1.0  0.23080  0.60380  0.08470  1.0000 0.119721969
H   H244      1.0  0.76920  0.39620  0.08470  1.0000 0.119721969
H   H245      1.0  0.88830  0.23390  0.53000  1.0000 0.1024927495
H   H246      1.0  0.11170  0.76610  0.53000  1.0000 0.1024927495
H   H247      1.0  0.26610  0.61170  0.03000  1.0000 0.1024927495
H   H248      1.0  0.73390  0.38830  0.03000  1.0000 0.1024927495
H   H249      1.0  0.98760  0.23830  0.53650  1.0000 0.1024927495
H   H250      1.0  0.01240  0.76170  0.53650  1.0000 0.1024927495
H   H251      1.0  0.26170  0.51240  0.03650  1.0000 0.1024927495
H   H252      1.0  0.73830  0.48760  0.03650  1.0000 0.1024927495
H   H253      1.0  0.98370  0.26330  0.59770  1.0000 0.119721969
H   H254      1.0  0.01630  0.73670  0.59770  1.0000 0.119721969
H   H255      1.0  0.23670  0.51630  0.09770  1.0000 0.119721969
H   H256      1.0  0.76330  0.48370  0.09770  1.0000 0.119721969
H   H257      1.0  0.06420  0.21130  0.58220  1.0000 0.1099973094
H   H258      1.0  0.93580  0.78870  0.58220  1.0000 0.1099973094
H   H259      1.0  0.28870  0.43580  0.08220  1.0000 0.1099973094
H   H260      1.0  0.71130  0.56420  0.08220  1.0000 0.1099973094
H   H261      1.0  0.02740  0.16030  0.58180  1.0000 0.1099973094
H   H262      1.0  0.97260  0.83970  0.58180  1.0000 0.1099973094
H   H263      1.0  0.33970  0.47260  0.08180  1.0000 0.1099973094
H   H264      1.0  0.66030  0.52740  0.08180  1.0000 0.1099973094
H   H265      1.0  0.76060  0.19760  0.81910  1.0000 0.119721969
H   H266      1.0  0.23940  0.80240  0.81910  1.0000 0.119721969
H   H267      1.0  0.30240  0.73940  0.31910  1.0000 0.119721969
H   H268      1.0  0.69760  0.26060  0.31910  1.0000 0.119721969
H   H269      1.0  0.76340  0.16230  0.62780  1.0000 0.119721969
H   H270      1.0  0.23660  0.83770  0.62780  1.0000 0.119721969
H   H271      1.0  0.33770  0.73660  0.12780  1.0000 0.119721969
H   H272      1.0  0.66230  0.26340  0.12780  1.0000 0.119721969
H   H273      1.0  0.70870  0.04850  0.68690  1.0000 0.12717567
H   H274      1.0  0.29130  0.95150  0.68690  1.0000 0.12717567
H   H275      1.0  0.45150  0.79130  0.18690  1.0000 0.12717567
H   H276      1.0  0.54850  0.20870  0.18690  1.0000 0.12717567
H   H277      1.0  0.64950  0.99850  0.63580  1.0000 0.12717567
H   H278      1.0  0.35050  0.00150  0.63580  1.0000 0.12717567
H   H279      1.0  0.50150  0.85050  0.13580  1.0000 0.12717567
H   H280      1.0  0.49850  0.14950  0.13580  1.0000 0.12717567
H   H281      1.0  0.57800  0.13070  0.58320  1.0000 0.119721969
H   H282      1.0  0.42200  0.86930  0.58320  1.0000 0.119721969
H   H283      1.0  0.36930  0.92200  0.08320  1.0000 0.119721969
H   H284      1.0  0.63070  0.07800  0.08320  1.0000 0.119721969
H   H285      1.0  0.63550  0.18170  0.63640  1.0000 0.119721969
H   H286      1.0  0.36450  0.81830  0.63640  1.0000 0.119721969
H   H287      1.0  0.31830  0.86450  0.13640  1.0000 0.119721969
H   H288      1.0  0.68170  0.13550  0.13640  1.0000 0.119721969
C   C1        1.0  0.29140  0.63730  0.71370  1.0000 0.0826887301
C   C2        1.0  0.70860  0.36270  0.71370  1.0000 0.0826887301
C   C3        1.0  0.13730  0.79140  0.21370  1.0000 0.0826887301
C   C4        1.0  0.86270  0.20860  0.21370  1.0000 0.0826887301
C   C5        1.0  0.50700  0.77200  0.66560  1.0000 -0.2275621557
C   C6        1.0  0.49300  0.22800  0.66560  1.0000 -0.2275621557
C   C7        1.0  0.27200  0.00700  0.16560  1.0000 -0.2275621557
C   C8        1.0  0.72800  0.99300  0.16560  1.0000 -0.2275621557
C   C9        1.0  0.60310  0.75880  0.64730  1.0000 -0.0487317183
C   C10       1.0  0.39690  0.24120  0.64730  1.0000 -0.0487317183
C   C11       1.0  0.25880  0.10310  0.14730  1.0000 -0.0487317183
C   C12       1.0  0.74120  0.89690  0.14730  1.0000 -0.0487317183
C   C13       1.0  0.65200  0.72800  0.66690  1.0000 -0.0788096624
C   C14       1.0  0.34800  0.27200  0.66690  1.0000 -0.0788096624
C   C15       1.0  0.22800  0.15200  0.16690  1.0000 -0.0788096624
C   C16       1.0  0.77200  0.84800  0.16690  1.0000 -0.0788096624
C   C17       1.0  0.65570  0.70730  0.90230  1.0000 -0.059092763
C   C18       1.0  0.34430  0.29270  0.90230  1.0000 -0.059092763
C   C19       1.0  0.20730  0.15570  0.40230  1.0000 -0.059092763
C   C20       1.0  0.79270  0.84430  0.40230  1.0000 -0.059092763
C   C21       1.0  0.92970  0.52629  0.92980  1.0000 0.60641947
C   C22       1.0  0.07030  0.47371  0.92980  1.0000 0.60641947
C   C23       1.0  0.02629  0.42970  0.42980  1.0000 0.60641947
C   C24       1.0  0.97371  0.57030  0.42980  1.0000 0.60641947
C   C25       1.0  0.82630  0.64910  0.70830  1.0000 0.0826887301
C   C26       1.0  0.17370  0.35090  0.70830  1.0000 0.0826887301
C   C27       1.0  0.14910  0.32630  0.20830  1.0000 0.0826887301
C   C28       1.0  0.85090  0.67370  0.20830  1.0000 0.0826887301
C   C29       1.0  0.83140  0.59430  0.68970  1.0000 -0.1498960146
C   C30       1.0  0.16860  0.40570  0.68970  1.0000 -0.1498960146
C   C31       1.0  0.09430  0.33140  0.18970  1.0000 -0.1498960146
C   C32       1.0  0.90570  0.66860  0.18970  1.0000 -0.1498960146
C   C33       1.0  0.87480  0.57920  0.65810  1.0000 -0.0788096624
C   C34       1.0  0.12520  0.42080  0.65810  1.0000 -0.0788096624
C   C35       1.0  0.07920  0.37480  0.15810  1.0000 -0.0788096624
C   C36       1.0  0.92080  0.62520  0.15810  1.0000 -0.0788096624
C   C37       1.0  0.91240  0.61530  0.64230  1.0000 -0.0119176217
C   C38       1.0  0.08760  0.38470  0.64230  1.0000 -0.0119176217
C   C39       1.0  0.11530  0.41240  0.14230  1.0000 -0.0119176217
C   C40       1.0  0.88470  0.58760  0.14230  1.0000 -0.0119176217
C   C41       1.0  0.90800  0.66740  0.65910  1.0000 -0.1095120592
C   C42       1.0  0.09200  0.33260  0.65910  1.0000 -0.1095120592
C   C43       1.0  0.16740  0.40800  0.15910  1.0000 -0.1095120592
C   C44       1.0  0.83260  0.59200  0.15910  1.0000 -0.1095120592
C   C45       1.0  0.86540  0.68390  0.69160  1.0000 -0.168011011
C   C46       1.0  0.13460  0.31610  0.69160  1.0000 -0.168011011
C   C47       1.0  0.18390  0.36540  0.19160  1.0000 -0.168011011
C   C48       1.0  0.81610  0.63460  0.19160  1.0000 -0.168011011
C   C49       1.0  0.95970  0.59700  0.60710  1.0000 0.5881912595
C   C50       1.0  0.04030  0.40300  0.60710  1.0000 0.5881912595
C   C51       1.0  0.09700  0.45970  0.10710  1.0000 0.5881912595
C   C52       1.0  0.90300  0.54030  0.10710  1.0000 0.5881912595
C   C53       1.0  0.15120  0.59500  0.62090  1.0000 0.5832224599
C   C54       1.0  0.84880  0.40500  0.62090  1.0000 0.5832224599
C   C55       1.0  0.09500  0.65120  0.12090  1.0000 0.5832224599
C   C56       1.0  0.90500  0.34880  0.12090  1.0000 0.5832224599
C   C57       1.0  0.20210  0.60840  0.65270  1.0000 -0.0119176217
C   C58       1.0  0.79790  0.39160  0.65270  1.0000 -0.0119176217
C   C59       1.0  0.10840  0.70210  0.15270  1.0000 -0.0119176217
C   C60       1.0  0.89160  0.29790  0.15270  1.0000 -0.0119176217
C   C61       1.0  0.22140  0.65940  0.64880  1.0000 -0.1010422653
C   C62       1.0  0.77860  0.34060  0.64880  1.0000 -0.1010422653
C   C63       1.0  0.15940  0.72140  0.14880  1.0000 -0.1010422653
C   C64       1.0  0.84060  0.27860  0.14880  1.0000 -0.1010422653
C   C65       1.0  0.26880  0.67310  0.67910  1.0000 -0.168011011
C   C66       1.0  0.73120  0.32690  0.67910  1.0000 -0.168011011
C   C67       1.0  0.17310  0.76880  0.17910  1.0000 -0.168011011
C   C68       1.0  0.82690  0.23120  0.17910  1.0000 -0.168011011
C   C69       1.0  0.27140  0.58570  0.71500  1.0000 -0.1588274119
C   C70       1.0  0.72860  0.41430  0.71500  1.0000 -0.1588274119
C   C71       1.0  0.08570  0.77140  0.21500  1.0000 -0.1588274119
C   C72       1.0  0.91430  0.22860  0.21500  1.0000 -0.1588274119
C   C73       1.0  0.22620  0.57270  0.68510  1.0000 -0.0902247682
C   C74       1.0  0.77380  0.42730  0.68510  1.0000 -0.0902247682
C   C75       1.0  0.07270  0.72620  0.18510  1.0000 -0.0902247682
C   C76       1.0  0.92730  0.27380  0.18510  1.0000 -0.0902247682
C   C77       1.0  0.33910  0.65130  0.75080  1.0000 0.0336218363
C   C78       1.0  0.66090  0.34870  0.75080  1.0000 0.0336218363
C   C79       1.0  0.15130  0.83910  0.25080  1.0000 0.0336218363
C   C80       1.0  0.84870  0.16090  0.25080  1.0000 0.0336218363
C   C81       1.0  0.38330  0.67390  0.72490  1.0000 -0.3005352655
C   C82       1.0  0.61670  0.32610  0.72490  1.0000 -0.3005352655
C   C83       1.0  0.17390  0.88330  0.22490  1.0000 -0.3005352655
C   C84       1.0  0.82610  0.11670  0.22490  1.0000 -0.3005352655
C   C85       1.0  0.42790  0.68930  0.75480  1.0000 0.1706179789
C   C86       1.0  0.57210  0.31070  0.75480  1.0000 0.1706179789
C   C87       1.0  0.18930  0.92790  0.25480  1.0000 0.1706179789
C   C88       1.0  0.81070  0.07210  0.25480  1.0000 0.1706179789
C   C89       1.0  0.42800  0.68030  0.81430  1.0000 0.1706179789
C   C90       1.0  0.57200  0.31970  0.81430  1.0000 0.1706179789
C   C91       1.0  0.18030  0.92800  0.31430  1.0000 0.1706179789
C   C92       1.0  0.81970  0.07200  0.31430  1.0000 0.1706179789
C   C93       1.0  0.38440  0.65820  0.84130  1.0000 -0.3005352655
C   C94       1.0  0.61560  0.34180  0.84130  1.0000 -0.3005352655
C   C95       1.0  0.15820  0.88440  0.34130  1.0000 -0.3005352655
C   C96       1.0  0.84180  0.11560  0.34130  1.0000 -0.3005352655
C   C97       1.0  0.33860  0.64450  0.80750  1.0000 0.0203434844
C   C98       1.0  0.66140  0.35550  0.80750  1.0000 0.0203434844
C   C99       1.0  0.14450  0.83860  0.30750  1.0000 0.0203434844
C   C100      1.0  0.85550  0.16140  0.30750  1.0000 0.0203434844
C   C101      1.0  0.29144  0.62840  0.84150  1.0000 0.0826887301
C   C102      1.0  0.70856  0.37160  0.84150  1.0000 0.0826887301
C   C103      1.0  0.12840  0.79144  0.34150  1.0000 0.0826887301
C   C104      1.0  0.87160  0.20856  0.34150  1.0000 0.0826887301
C   C105      1.0  0.29260  0.58690  0.88010  1.0000 -0.1498960146
C   C106      1.0  0.70740  0.41310  0.88010  1.0000 -0.1498960146
C   C107      1.0  0.08690  0.79260  0.38010  1.0000 -0.1498960146
C   C108      1.0  0.91310  0.20740  0.38010  1.0000 -0.1498960146
C   C109      1.0  0.25090  0.57510  0.91460  1.0000 -0.1239711094
C   C110      1.0  0.74910  0.42490  0.91460  1.0000 -0.1239711094
C   C111      1.0  0.07510  0.75090  0.41460  1.0000 -0.1239711094
C   C112      1.0  0.92490  0.24910  0.41460  1.0000 -0.1239711094
C   C113      1.0  0.20376  0.60570  0.91130  1.0000 -0.0301991144
C   C114      1.0  0.79624  0.39430  0.91130  1.0000 -0.0301991144
C   C115      1.0  0.10570  0.70376  0.41130  1.0000 -0.0301991144
C   C116      1.0  0.89430  0.29624  0.41130  1.0000 -0.0301991144
C   C117      1.0  0.20130  0.64460  0.87000  1.0000 -0.1095120592
C   C118      1.0  0.79870  0.35540  0.87000  1.0000 -0.1095120592
C   C119      1.0  0.14460  0.70130  0.37000  1.0000 -0.1095120592
C   C120      1.0  0.85540  0.29870  0.37000  1.0000 -0.1095120592
C   C121      1.0  0.24420  0.65540  0.83580  1.0000 -0.1588274119
C   C122      1.0  0.75580  0.34460  0.83580  1.0000 -0.1588274119
C   C123      1.0  0.15540  0.74420  0.33580  1.0000 -0.1588274119
C   C124      1.0  0.84460  0.25580  0.33580  1.0000 -0.1588274119
C   C125      1.0  0.15860  0.59570  0.95200  1.0000 0.5832224599
C   C126      1.0  0.84140  0.40430  0.95200  1.0000 0.5832224599
C   C127      1.0  0.09570  0.65860  0.45200  1.0000 0.5832224599
C   C128      1.0  0.90430  0.34140  0.45200  1.0000 0.5832224599
C   C129      1.0  0.46970  0.73250  0.67630  1.0000 -0.0375998394
C   C130      1.0  0.53030  0.26750  0.67630  1.0000 -0.0375998394
C   C131      1.0  0.23250  0.96970  0.17630  1.0000 -0.0375998394
C   C132      1.0  0.76750  0.03030  0.17630  1.0000 -0.0375998394
C   C133      1.0  0.60770  0.73290  0.92900  1.0000 -0.0788096624
C   C134      1.0  0.39230  0.26710  0.92900  1.0000 -0.0788096624
C   C135      1.0  0.23290  0.10770  0.42900  1.0000 -0.0788096624
C   C136      1.0  0.76710  0.89230  0.42900  1.0000 -0.0788096624
C   C137      1.0  0.51570  0.73010  0.92340  1.0000 -0.0487317183
C   C138      1.0  0.48430  0.26990  0.92340  1.0000 -0.0487317183
C   C139      1.0  0.23010  0.01570  0.42340  1.0000 -0.0487317183
C   C140      1.0  0.76990  0.98430  0.42340  1.0000 -0.0487317183
C   C141      1.0  0.46920  0.69650  0.90440  1.0000 -0.0902247682
C   C142      1.0  0.53080  0.30350  0.90440  1.0000 -0.0902247682
C   C143      1.0  0.19650  0.96920  0.40440  1.0000 -0.0902247682
C   C144      1.0  0.80350  0.03080  0.40440  1.0000 -0.0902247682
C   C145      1.0  0.69540  0.69870  0.81210  1.0000 0.1480900401
C   C146      1.0  0.30460  0.30130  0.81210  1.0000 0.1480900401
C   C147      1.0  0.19870  0.19540  0.31210  1.0000 0.1480900401
C   C148      1.0  0.80130  0.80460  0.31210  1.0000 0.1480900401
C   C149      1.0  0.69600  0.71000  0.75440  1.0000 0.1480900401
C   C150      1.0  0.30400  0.29000  0.75440  1.0000 0.1553719154
C   C151      1.0  0.21000  0.19600  0.25440  1.0000 0.1553719154
C   C152      1.0  0.79000  0.80400  0.25440  1.0000 0.1480900401
C   C153      1.0  0.73930  0.69160  0.71990  1.0000 -0.2815846467
C   C154      1.0  0.26070  0.30840  0.71990  1.0000 -0.2815846467
C   C155      1.0  0.19160  0.23930  0.21990  1.0000 -0.2815846467
C   C156      1.0  0.80840  0.76070  0.21990  1.0000 -0.2815846467
C   C157      1.0  0.78140  0.66430  0.74580  1.0000 0.0203434844
C   C158      1.0  0.21860  0.33570  0.74580  1.0000 0.0203434844
C   C159      1.0  0.16430  0.28140  0.24580  1.0000 0.0203434844
C   C160      1.0  0.83570  0.71860  0.24580  1.0000 0.0203434844
C   C161      1.0  0.77960  0.65380  0.80250  1.0000 0.0203434844
C   C162      1.0  0.22040  0.34620  0.80250  1.0000 0.0203434844
C   C163      1.0  0.15380  0.27960  0.30250  1.0000 0.0203434844
C   C164      1.0  0.84620  0.72040  0.30250  1.0000 0.0203434844
C   C165      1.0  0.73710  0.67060  0.83370  1.0000 -0.2594505215
C   C166      1.0  0.26290  0.32940  0.83370  1.0000 -0.2594505215
C   C167      1.0  0.17060  0.23710  0.33370  1.0000 -0.2594505215
C   C168      1.0  0.82940  0.76290  0.33370  1.0000 -0.2594505215
C   C169      1.0  0.82060  0.62190  0.83180  1.0000 0.0826887301
C   C170      1.0  0.17940  0.37810  0.83180  1.0000 0.0826887301
C   C171      1.0  0.12190  0.32060  0.33180  1.0000 0.0826887301
C   C172      1.0  0.87810  0.67940  0.33180  1.0000 0.0826887301
C   C173      1.0  0.81800  0.56570  0.83350  1.0000 -0.1498960146
C   C174      1.0  0.18200  0.43430  0.83350  1.0000 -0.1498960146
C   C175      1.0  0.06570  0.31800  0.33350  1.0000 -0.1498960146
C   C176      1.0  0.93430  0.68200  0.33350  1.0000 -0.1498960146
C   C177      1.0  0.85340  0.53540  0.86410  1.0000 -0.0788096624
C   C178      1.0  0.14660  0.46460  0.86410  1.0000 -0.0788096624
C   C179      1.0  0.03540  0.35340  0.36410  1.0000 -0.0788096624
C   C180      1.0  0.96460  0.64660  0.36410  1.0000 -0.0788096624
C   C181      1.0  0.89360  0.56000  0.89487  1.0000 -0.0301991144
C   C182      1.0  0.10640  0.44000  0.89487  1.0000 -0.0301991144
C   C183      1.0  0.06000  0.39360  0.39487  1.0000 -0.0301991144
C   C184      1.0  0.94000  0.60640  0.39487  1.0000 -0.0301991144
C   C185      1.0  0.89607  0.61390  0.89500  1.0000 -0.1010422653
C   C186      1.0  0.10393  0.38610  0.89500  1.0000 -0.1010422653
C   C187      1.0  0.11390  0.39607  0.39500  1.0000 -0.1010422653
C   C188      1.0  0.88610  0.60393  0.39500  1.0000 -0.1010422653
C   C189      1.0  0.86080  0.64490  0.86340  1.0000 -0.168011011
C   C190      1.0  0.13920  0.35510  0.86340  1.0000 -0.168011011
C   C191      1.0  0.14490  0.36080  0.36340  1.0000 -0.168011011
C   C192      1.0  0.85510  0.63920  0.36340  1.0000 -0.168011011
C   C193      1.0  0.20860  0.13730  0.78630  1.0000 0.0826887301
C   C194      1.0  0.79140  0.86270  0.78630  1.0000 0.0826887301
C   C195      1.0  0.36270  0.29140  0.28630  1.0000 0.0826887301
C   C196      1.0  0.63730  0.70860  0.28630  1.0000 0.0826887301
C   C197      1.0  0.99300  0.27200  0.83440  1.0000 -0.2275621557
C   C198      1.0  0.00700  0.72800  0.83440  1.0000 -0.2275621557
C   C199      1.0  0.22800  0.50700  0.33440  1.0000 -0.2275621557
C   C200      1.0  0.77200  0.49300  0.33440  1.0000 -0.2275621557
C   C201      1.0  0.89690  0.25880  0.85270  1.0000 -0.0487317183
C   C202      1.0  0.10310  0.74120  0.85270  1.0000 -0.0487317183
C   C203      1.0  0.24120  0.60310  0.35270  1.0000 -0.0487317183
C   C204      1.0  0.75880  0.39690  0.35270  1.0000 -0.0487317183
C   C205      1.0  0.84800  0.22800  0.83310  1.0000 -0.0788096624
C   C206      1.0  0.15200  0.77200  0.83310  1.0000 -0.0788096624
C   C207      1.0  0.27200  0.65200  0.33310  1.0000 -0.0788096624
C   C208      1.0  0.72800  0.34800  0.33310  1.0000 -0.0788096624
C   C209      1.0  0.84430  0.20730  0.59770  1.0000 -0.059092763
C   C210      1.0  0.15570  0.79270  0.59770  1.0000 -0.059092763
C   C211      1.0  0.29270  0.65570  0.09770  1.0000 -0.059092763
C   C212      1.0  0.70730  0.34430  0.09770  1.0000 -0.059092763
C   C213      1.0  0.57030  0.02629  0.57020  1.0000 0.60641947
C   C214      1.0  0.42970  0.97371  0.57020  1.0000 0.60641947
C   C215      1.0  0.47371  0.92970  0.07020  1.0000 0.60641947
C   C216      1.0  0.52629  0.07030  0.07020  1.0000 0.60641947
C   C217      1.0  0.67370  0.14910  0.79170  1.0000 0.0826887301
C   C218      1.0  0.32630  0.85090  0.79170  1.0000 0.0826887301
C   C219      1.0  0.35090  0.82630  0.29170  1.0000 0.0826887301
C   C220      1.0  0.64910  0.17370  0.29170  1.0000 0.0826887301
C   C221      1.0  0.66860  0.09430  0.81030  1.0000 -0.1498960146
C   C222      1.0  0.33140  0.90570  0.81030  1.0000 -0.1498960146
C   C223      1.0  0.40570  0.83140  0.31030  1.0000 -0.1498960146
C   C224      1.0  0.59430  0.16860  0.31030  1.0000 -0.1498960146
C   C225      1.0  0.62520  0.07920  0.84190  1.0000 -0.0788096624
C   C226      1.0  0.37480  0.92080  0.84190  1.0000 -0.0788096624
C   C227      1.0  0.42080  0.87480  0.34190  1.0000 -0.0788096624
C   C228      1.0  0.57920  0.12520  0.34190  1.0000 -0.0788096624
C   C229      1.0  0.58760  0.11530  0.85770  1.0000 -0.0119176217
C   C230      1.0  0.41240  0.88470  0.85770  1.0000 -0.0119176217
C   C231      1.0  0.38470  0.91240  0.35770  1.0000 -0.0119176217
C   C232      1.0  0.61530  0.08760  0.35770  1.0000 -0.0119176217
C   C233      1.0  0.59200  0.16740  0.84090  1.0000 -0.1095120592
C   C234      1.0  0.40800  0.83260  0.84090  1.0000 -0.1095120592
C   C235      1.0  0.33260  0.90800  0.34090  1.0000 -0.1095120592
C   C236      1.0  0.66740  0.09200  0.34090  1.0000 -0.1095120592
C   C237      1.0  0.63460  0.18390  0.80840  1.0000 -0.168011011
C   C238      1.0  0.36540  0.81610  0.80840  1.0000 -0.168011011
C   C239      1.0  0.31610  0.86540  0.30840  1.0000 -0.168011011
C   C240      1.0  0.68390  0.13460  0.30840  1.0000 -0.168011011
C   C241      1.0  0.54030  0.09700  0.89290  1.0000 0.5881912595
C   C242      1.0  0.45970  0.90300  0.89290  1.0000 0.5881912595
C   C243      1.0  0.40300  0.95970  0.39290  1.0000 0.5881912595
C   C244      1.0  0.59700  0.04030  0.39290  1.0000 0.5881912595
C   C245      1.0  0.34880  0.09500  0.87910  1.0000 0.5832224599
C   C246      1.0  0.65120  0.90500  0.87910  1.0000 0.5832224599
C   C247      1.0  0.40500  0.15120  0.37910  1.0000 0.5832224599
C   C248      1.0  0.59500  0.84880  0.37910  1.0000 0.5832224599
C   C249      1.0  0.29790  0.10840  0.84730  1.0000 -0.0119176217
C   C250      1.0  0.70210  0.89160  0.84730  1.0000 -0.0119176217
C   C251      1.0  0.39160  0.20210  0.34730  1.0000 -0.0119176217
C   C252      1.0  0.60840  0.79790  0.34730  1.0000 -0.0119176217
C   C253      1.0  0.27860  0.15940  0.85120  1.0000 -0.1010422653
C   C254      1.0  0.72140  0.84060  0.85120  1.0000 -0.1010422653
C   C255      1.0  0.34060  0.22140  0.35120  1.0000 -0.1010422653
C   C256      1.0  0.65940  0.77860  0.35120  1.0000 -0.1010422653
C   C257      1.0  0.23120  0.17310  0.82090  1.0000 -0.168011011
C   C258      1.0  0.76880  0.82690  0.82090  1.0000 -0.168011011
C   C259      1.0  0.32690  0.26880  0.32090  1.0000 -0.168011011
C   C260      1.0  0.67310  0.73120  0.32090  1.0000 -0.168011011
C   C261      1.0  0.22860  0.08570  0.78500  1.0000 -0.1588274119
C   C262      1.0  0.77140  0.91430  0.78500  1.0000 -0.1588274119
C   C263      1.0  0.41430  0.27140  0.28500  1.0000 -0.1588274119
C   C264      1.0  0.58570  0.72860  0.28500  1.0000 -0.1588274119
C   C265      1.0  0.27380  0.07270  0.81490  1.0000 -0.0902247682
C   C266      1.0  0.72620  0.92730  0.81490  1.0000 -0.0902247682
C   C267      1.0  0.42730  0.22620  0.31490  1.0000 -0.0902247682
C   C268      1.0  0.57270  0.77380  0.31490  1.0000 -0.0902247682
C   C269      1.0  0.16090  0.15130  0.74920  1.0000 0.0336218363
C   C270      1.0  0.83910  0.84870  0.74920  1.0000 0.0336218363
C   C271      1.0  0.34870  0.33910  0.24920  1.0000 0.0336218363
C   C272      1.0  0.65130  0.66090  0.24920  1.0000 0.0336218363
C   C273      1.0  0.11670  0.17390  0.77510  1.0000 -0.3005352655
C   C274      1.0  0.88330  0.82610  0.77510  1.0000 -0.3005352655
C   C275      1.0  0.32610  0.38330  0.27510  1.0000 -0.3005352655
C   C276      1.0  0.67390  0.61670  0.27510  1.0000 -0.3005352655
C   C277      1.0  0.07210  0.18930  0.74520  1.0000 0.1706179789
C   C278      1.0  0.92790  0.81070  0.74520  1.0000 0.1706179789
C   C279      1.0  0.31070  0.42790  0.24520  1.0000 0.1706179789
C   C280      1.0  0.68930  0.57210  0.24520  1.0000 0.1706179789
C   C281      1.0  0.07200  0.18030  0.68570  1.0000 0.1706179789
C   C282      1.0  0.92800  0.81970  0.68570  1.0000 0.1706179789
C   C283      1.0  0.31970  0.42800  0.18570  1.0000 0.1706179789
C   C284      1.0  0.68030  0.57200  0.18570  1.0000 0.1706179789
C   C285      1.0  0.11560  0.15820  0.65870  1.0000 -0.3005352655
C   C286      1.0  0.88440  0.84180  0.65870  1.0000 -0.3005352655
C   C287      1.0  0.34180  0.38440  0.15870  1.0000 -0.3005352655
C   C288      1.0  0.65820  0.61560  0.15870  1.0000 -0.3005352655
C   C289      1.0  0.16140  0.14450  0.69250  1.0000 0.0203434844
C   C290      1.0  0.83860  0.85550  0.69250  1.0000 0.0203434844
C   C291      1.0  0.35550  0.33860  0.19250  1.0000 0.0203434844
C   C292      1.0  0.64450  0.66140  0.19250  1.0000 0.0203434844
C   C293      1.0  0.20856  0.12840  0.65850  1.0000 0.0826887301
C   C294      1.0  0.79144  0.87160  0.65850  1.0000 0.0826887301
C   C295      1.0  0.37160  0.29144  0.15850  1.0000 0.0826887301
C   C296      1.0  0.62840  0.70856  0.15850  1.0000 0.0826887301
C   C297      1.0  0.20740  0.08690  0.61990  1.0000 -0.1498960146
C   C298      1.0  0.79260  0.91310  0.61990  1.0000 -0.1498960146
C   C299      1.0  0.41310  0.29260  0.11990  1.0000 -0.1498960146
C   C300      1.0  0.58690  0.70740  0.11990  1.0000 -0.1498960146
C   C301      1.0  0.24910  0.07510  0.58540  1.0000 -0.1239711094
C   C302      1.0  0.75090  0.92490  0.58540  1.0000 -0.1239711094
C   C303      1.0  0.42490  0.25090  0.08540  1.0000 -0.1239711094
C   C304      1.0  0.57510  0.74910  0.08540  1.0000 -0.1239711094
C   C305      1.0  0.29624  0.10570  0.58870  1.0000 -0.0301991144
C   C306      1.0  0.70376  0.89430  0.58870  1.0000 -0.0301991144
C   C307      1.0  0.39430  0.20376  0.08870  1.0000 -0.0301991144
C   C308      1.0  0.60570  0.79624  0.08870  1.0000 -0.0301991144
C   C309      1.0  0.29870  0.14460  0.63000  1.0000 -0.1095120592
C   C310      1.0  0.70130  0.85540  0.63000  1.0000 -0.1095120592
C   C311      1.0  0.35540  0.20130  0.13000  1.0000 -0.1095120592
C   C312      1.0  0.64460  0.79870  0.13000  1.0000 -0.1095120592
C   C313      1.0  0.25580  0.15540  0.66420  1.0000 -0.1588274119
C   C314      1.0  0.74420  0.84460  0.66420  1.0000 -0.1588274119
C   C315      1.0  0.34460  0.24420  0.16420  1.0000 -0.1588274119
C   C316      1.0  0.65540  0.75580  0.16420  1.0000 -0.1588274119
C   C317      1.0  0.34140  0.09570  0.54800  1.0000 0.5832224599
C   C318      1.0  0.65860  0.90430  0.54800  1.0000 0.5832224599
C   C319      1.0  0.40430  0.15860  0.04800  1.0000 0.5832224599
C   C320      1.0  0.59570  0.84140  0.04800  1.0000 0.5832224599
C   C321      1.0  0.03030  0.23250  0.82370  1.0000 -0.0375998394
C   C322      1.0  0.96970  0.76750  0.82370  1.0000 -0.0375998394
C   C323      1.0  0.26750  0.46970  0.32370  1.0000 -0.0375998394
C   C324      1.0  0.73250  0.53030  0.32370  1.0000 -0.0375998394
C   C325      1.0  0.89230  0.23290  0.57100  1.0000 -0.0788096624
C   C326      1.0  0.10770  0.76710  0.57100  1.0000 -0.0788096624
C   C327      1.0  0.26710  0.60770  0.07100  1.0000 -0.0788096624
C   C328      1.0  0.73290  0.39230  0.07100  1.0000 -0.0788096624
C   C329      1.0  0.98430  0.23010  0.57660  1.0000 -0.0487317183
C   C330      1.0  0.01570  0.76990  0.57660  1.0000 -0.0487317183
C   C331      1.0  0.26990  0.51570  0.07660  1.0000 -0.0487317183
C   C332      1.0  0.73010  0.48430  0.07660  1.0000 -0.0487317183
C   C333      1.0  0.03080  0.19650  0.59560  1.0000 -0.0902247682
C   C334      1.0  0.96920  0.80350  0.59560  1.0000 -0.0902247682
C   C335      1.0  0.30350  0.46920  0.09560  1.0000 -0.0902247682
C   C336      1.0  0.69650  0.53080  0.09560  1.0000 -0.0902247682
C   C337      1.0  0.80460  0.19870  0.68790  1.0000 0.1480900401
C   C338      1.0  0.19540  0.80130  0.68790  1.0000 0.1480900401
C   C339      1.0  0.30130  0.69540  0.18790  1.0000 0.1480900401
C   C340      1.0  0.69870  0.30460  0.18790  1.0000 0.1480900401
C   C341      1.0  0.80400  0.21000  0.74560  1.0000 0.1553719154
C   C342      1.0  0.19600  0.79000  0.74560  1.0000 0.1480900401
C   C343      1.0  0.29000  0.69600  0.24560  1.0000 0.1480900401
C   C344      1.0  0.71000  0.30400  0.24560  1.0000 0.1480900401
C   C345      1.0  0.76070  0.19160  0.78010  1.0000 -0.2815846467
C   C346      1.0  0.23930  0.80840  0.78010  1.0000 -0.2815846467
C   C347      1.0  0.30840  0.73930  0.28010  1.0000 -0.2815846467
C   C348      1.0  0.69160  0.26070  0.28010  1.0000 -0.2815846467
C   C349      1.0  0.71860  0.16430  0.75420  1.0000 0.0203434844
C   C350      1.0  0.28140  0.83570  0.75420  1.0000 0.0203434844
C   C351      1.0  0.33570  0.78140  0.25420  1.0000 0.0203434844
C   C352      1.0  0.66430  0.21860  0.25420  1.0000 0.0203434844
C   C353      1.0  0.72040  0.15380  0.69750  1.0000 0.0203434844
C   C354      1.0  0.27960  0.84620  0.69750  1.0000 0.0203434844
C   C355      1.0  0.34620  0.77960  0.19750  1.0000 0.0203434844
C   C356      1.0  0.65380  0.22040  0.19750  1.0000 0.0203434844
C   C357      1.0  0.76290  0.17060  0.66630  1.0000 -0.2594505215
C   C358      1.0  0.23710  0.82940  0.66630  1.0000 -0.2594505215
C   C359      1.0  0.32940  0.73710  0.16630  1.0000 -0.2594505215
C   C360      1.0  0.67060  0.26290  0.16630  1.0000 -0.2594505215
C   C361      1.0  0.67940  0.12190  0.66820  1.0000 0.0826887301
C   C362      1.0  0.32060  0.87810  0.66820  1.0000 0.0826887301
C   C363      1.0  0.37810  0.82060  0.16820  1.0000 0.0826887301
C   C364      1.0  0.62190  0.17940  0.16820  1.0000 0.0826887301
C   C365      1.0  0.68200  0.06570  0.66650  1.0000 -0.1498960146
C   C366      1.0  0.31800  0.93430  0.66650  1.0000 -0.1498960146
C   C367      1.0  0.43430  0.81800  0.16650  1.0000 -0.1498960146
C   C368      1.0  0.56570  0.18200  0.16650  1.0000 -0.1498960146
C   C369      1.0  0.64660  0.03540  0.63590  1.0000 -0.0788096624
C   C370      1.0  0.35340  0.96460  0.63590  1.0000 -0.0788096624
C   C371      1.0  0.46460  0.85340  0.13590  1.0000 -0.0788096624
C   C372      1.0  0.53540  0.14660  0.13590  1.0000 -0.0788096624
C   C373      1.0  0.60640  0.06000  0.60513  1.0000 -0.0301991144
C   C374      1.0  0.39360  0.94000  0.60513  1.0000 -0.0301991144
C   C375      1.0  0.44000  0.89360  0.10513  1.0000 -0.0301991144
C   C376      1.0  0.56000  0.10640  0.10513  1.0000 -0.0301991144
C   C377      1.0  0.60393  0.11390  0.60500  1.0000 -0.1010422653
C   C378      1.0  0.39607  0.88610  0.60500  1.0000 -0.1010422653
C   C379      1.0  0.38610  0.89607  0.10500  1.0000 -0.1010422653
C   C380      1.0  0.61390  0.10393  0.10500  1.0000 -0.1010422653
C   C381      1.0  0.63920  0.14490  0.63660  1.0000 -0.168011011
C   C382      1.0  0.36080  0.85510  0.63660  1.0000 -0.168011011
C   C383      1.0  0.35510  0.86080  0.13660  1.0000 -0.168011011
C   C384      1.0  0.64490  0.13920  0.13660  1.0000 -0.168011011
O   O1        1.0  0.12399  0.63279  0.60106  1.0000 -0.567838931
O   O2        1.0  0.87601  0.36721  0.60106  1.0000 -0.567838931
O   O3        1.0  0.13279  0.62399  0.10106  1.0000 -0.567838931
O   O4        1.0  0.86721  0.37601  0.10106  1.0000 -0.567838931
O   O5        1.0  0.14027  0.54600  0.61624  1.0000 -0.5032814035
O   O6        1.0  0.85973  0.45400  0.61624  1.0000 -0.5032814035
O   O7        1.0  0.04600  0.64027  0.11624  1.0000 -0.5032814035
O   O8        1.0  0.95400  0.35973  0.11624  1.0000 -0.5032814035
O   O9        1.0  0.55900  0.72660  0.65780  1.0000 -0.1334380025
O   O10       1.0  0.44100  0.27340  0.65780  1.0000 -0.1334380025
O   O11       1.0  0.22660  0.05900  0.15780  1.0000 -0.1334380025
O   O12       1.0  0.77340  0.94100  0.15780  1.0000 -0.1334380025
O   O13       1.0  0.92756  0.47697  0.92079  1.0000 -0.5299011209
O   O14       1.0  0.07244  0.52303  0.92079  1.0000 -0.5299011209
O   O15       1.0  0.97697  0.42756  0.42079  1.0000 -0.5299011209
O   O16       1.0  0.02303  0.57244  0.42079  1.0000 -0.5299011209
O   O17       1.0  0.96023  0.54744  0.96619  1.0000 -0.5622951874
O   O18       1.0  0.03977  0.45256  0.96619  1.0000 -0.5622951874
O   O19       1.0  0.04744  0.46023  0.46619  1.0000 -0.5622951874
O   O20       1.0  0.95256  0.53977  0.46619  1.0000 -0.5622951874
O   O21       1.0  0.99363  0.63318  0.59408  1.0000 -0.567838931
O   O22       1.0  0.00637  0.36682  0.59408  1.0000 -0.567838931
O   O23       1.0  0.13318  0.49363  0.09408  1.0000 -0.567838931
O   O24       1.0  0.86682  0.50637  0.09408  1.0000 -0.567838931
O   O25       1.0  0.96221  0.55035  0.59360  1.0000 -0.4527768681
O   O26       1.0  0.03779  0.44965  0.59360  1.0000 -0.4527768681
O   O27       1.0  0.05035  0.46221  0.09360  1.0000 -0.4527768681
O   O28       1.0  0.94965  0.53779  0.09360  1.0000 -0.4527768681
O   O29       1.0  0.06605  0.54493  0.53273  1.0000 -0.8826945314
O   O30       1.0  0.93395  0.45507  0.53273  1.0000 -0.8826945314
O   O31       1.0  0.04493  0.56605  0.03273  1.0000 -0.8826945314
O   O32       1.0  0.95507  0.43395  0.03273  1.0000 -0.8826945314
O   O33       1.0  0.47114  0.71266  0.73250  1.0000 -0.1498960146
O   O34       1.0  0.52886  0.28734  0.73250  1.0000 -0.1498960146
O   O35       1.0  0.21266  0.97114  0.23250  1.0000 -0.1498960146
O   O36       1.0  0.78734  0.02886  0.23250  1.0000 -0.1498960146
O   O37       1.0  0.65434  0.73540  0.72915  1.0000 -0.1588274119
O   O38       1.0  0.34566  0.26460  0.72915  1.0000 -0.1588274119
O   O39       1.0  0.23540  0.15434  0.22915  1.0000 -0.1588274119
O   O40       1.0  0.76460  0.84566  0.22915  1.0000 -0.1588274119
O   O41       1.0  0.65240  0.71494  0.84290  1.0000 -0.1498960146
O   O42       1.0  0.34760  0.28506  0.84290  1.0000 -0.1498960146
O   O43       1.0  0.21494  0.15240  0.34290  1.0000 -0.1498960146
O   O44       1.0  0.78506  0.84760  0.34290  1.0000 -0.1498960146
O   O45       1.0  0.56192  0.70197  0.91370  1.0000 -0.1588274119
O   O46       1.0  0.43808  0.29803  0.91370  1.0000 -0.1588274119
O   O47       1.0  0.20197  0.06192  0.41370  1.0000 -0.1588274119
O   O48       1.0  0.79803  0.93808  0.41370  1.0000 -0.1588274119
O   O49       1.0  0.47231  0.69827  0.84096  1.0000 -0.1588274119
O   O50       1.0  0.52769  0.30173  0.84096  1.0000 -0.1588274119
O   O51       1.0  0.19827  0.97231  0.34096  1.0000 -0.1588274119
O   O52       1.0  0.80173  0.02769  0.34096  1.0000 -0.1588274119
O   O53       1.0  0.16723  0.56350  0.99087  1.0000 -0.5375227818
O   O54       1.0  0.83277  0.43650  0.99087  1.0000 -0.5375227818
O   O55       1.0  0.06350  0.66723  0.49087  1.0000 -0.5375227818
O   O56       1.0  0.93650  0.33277  0.49087  1.0000 -0.5375227818
O   O57       1.0  0.11688  0.62248  0.94437  1.0000 -0.567838931
O   O58       1.0  0.88312  0.37752  0.94437  1.0000 -0.567838931
O   O59       1.0  0.12248  0.61688  0.44437  1.0000 -0.567838931
O   O60       1.0  0.87752  0.38312  0.44437  1.0000 -0.567838931
O   O61       1.0  0.37601  0.13279  0.89894  1.0000 -0.567838931
O   O62       1.0  0.62399  0.86721  0.89894  1.0000 -0.567838931
O   O63       1.0  0.36721  0.12399  0.39894  1.0000 -0.567838931
O   O64       1.0  0.63279  0.87601  0.39894  1.0000 -0.567838931
O   O65       1.0  0.35973  0.04600  0.88376  1.0000 -0.5032814035
O   O66       1.0  0.64027  0.95400  0.88376  1.0000 -0.5032814035
O   O67       1.0  0.45400  0.14027  0.38376  1.0000 -0.5032814035
O   O68       1.0  0.54600  0.85973  0.38376  1.0000 -0.5032814035
O   O69       1.0  0.94100  0.22660  0.84220  1.0000 -0.1334380025
O   O70       1.0  0.05900  0.77340  0.84220  1.0000 -0.1334380025
O   O71       1.0  0.27340  0.55900  0.34220  1.0000 -0.1334380025
O   O72       1.0  0.72660  0.44100  0.34220  1.0000 -0.1334380025
O   O73       1.0  0.57244  0.97697  0.57921  1.0000 -0.5299011209
O   O74       1.0  0.42756  0.02303  0.57921  1.0000 -0.5299011209
O   O75       1.0  0.52303  0.92756  0.07921  1.0000 -0.5299011209
O   O76       1.0  0.47697  0.07244  0.07921  1.0000 -0.5299011209
O   O77       1.0  0.53977  0.04744  0.53381  1.0000 -0.5622951874
O   O78       1.0  0.46023  0.95256  0.53381  1.0000 -0.5622951874
O   O79       1.0  0.45256  0.96023  0.03381  1.0000 -0.5622951874
O   O80       1.0  0.54744  0.03977  0.03381  1.0000 -0.5622951874
O   O81       1.0  0.50637  0.13318  0.90592  1.0000 -0.567838931
O   O82       1.0  0.49363  0.86682  0.90592  1.0000 -0.567838931
O   O83       1.0  0.36682  0.99363  0.40592  1.0000 -0.567838931
O   O84       1.0  0.63318  0.00637  0.40592  1.0000 -0.567838931
O   O85       1.0  0.53779  0.05035  0.90640  1.0000 -0.4527768681
O   O86       1.0  0.46221  0.94965  0.90640  1.0000 -0.4527768681
O   O87       1.0  0.44965  0.96221  0.40640  1.0000 -0.4527768681
O   O88       1.0  0.55035  0.03779  0.40640  1.0000 -0.4527768681
O   O89       1.0  0.43395  0.04493  0.96727  1.0000 -0.8826945314
O   O90       1.0  0.56605  0.95507  0.96727  1.0000 -0.8826945314
O   O91       1.0  0.45507  0.06605  0.46727  1.0000 -0.8826945314
O   O92       1.0  0.54493  0.93395  0.46727  1.0000 -0.8826945314
O   O93       1.0  0.02886  0.21266  0.76750  1.0000 -0.1498960146
O   O94       1.0  0.97114  0.78734  0.76750  1.0000 -0.1498960146
O   O95       1.0  0.28734  0.47114  0.26750  1.0000 -0.1498960146
O   O96       1.0  0.71266  0.52886  0.26750  1.0000 -0.1498960146
O   O97       1.0  0.84566  0.23540  0.77085  1.0000 -0.1588274119
O   O98       1.0  0.15434  0.76460  0.77085  1.0000 -0.1588274119
O   O99       1.0  0.26460  0.65434  0.27085  1.0000 -0.1588274119
O   O100      1.0  0.73540  0.34566  0.27085  1.0000 -0.1588274119
O   O101      1.0  0.84760  0.21494  0.65710  1.0000 -0.1498960146
O   O102      1.0  0.15240  0.78506  0.65710  1.0000 -0.1498960146
O   O103      1.0  0.28506  0.65240  0.15710  1.0000 -0.1498960146
O   O104      1.0  0.71494  0.34760  0.15710  1.0000 -0.1498960146
O   O105      1.0  0.93808  0.20197  0.58630  1.0000 -0.1588274119
O   O106      1.0  0.06192  0.79803  0.58630  1.0000 -0.1588274119
O   O107      1.0  0.29803  0.56192  0.08630  1.0000 -0.1588274119
O   O108      1.0  0.70197  0.43808  0.08630  1.0000 -0.1588274119
O   O109      1.0  0.02769  0.19827  0.65904  1.0000 -0.1588274119
O   O110      1.0  0.97231  0.80173  0.65904  1.0000 -0.1588274119
O   O111      1.0  0.30173  0.47231  0.15904  1.0000 -0.1588274119
O   O112      1.0  0.69827  0.52769  0.15904  1.0000 -0.1588274119
O   O113      1.0  0.33277  0.06350  0.50913  1.0000 -0.5375227818
O   O114      1.0  0.66723  0.93650  0.50913  1.0000 -0.5375227818
O   O115      1.0  0.43650  0.16723  0.00913  1.0000 -0.5375227818
O   O116      1.0  0.56350  0.83277  0.00913  1.0000 -0.5375227818
O   O117      1.0  0.38312  0.12248  0.55563  1.0000 -0.567838931
O   O118      1.0  0.61688  0.87752  0.55563  1.0000 -0.567838931
O   O119      1.0  0.37752  0.11688  0.05563  1.0000 -0.567838931
O   O120      1.0  0.62248  0.88312  0.05563  1.0000 -0.567838931
