# DDEC6 charges by PACMAN v1.1 (https://github.com/mtap-research/PACMAN-charge/)
data_2014[Dy][nan]3[ASR]2
_chemical_formula_sum              "Dy3 H18 C48 O24"
_cell_length_a       11.5976
_cell_length_b       12.213
_cell_length_c       13.5187
_cell_angle_alpha    114.961
_cell_angle_beta     111.649
_cell_angle_gamma    87.858

_symmetry_space_group_name_H-M    "P 1"
_symmetry_Int_Tables_number       1

loop_
  _symmetry_equiv_pos_as_xyz
  'x, y, z'

loop_
  _atom_site_type_symbol
  _atom_site_label
  _atom_site_symmetry_multiplicity
  _atom_site_fract_x
  _atom_site_fract_y
  _atom_site_fract_z
  _atom_site_occupancy
  _atom_site_charge
Dy  Dy1       1.0  0.00000  0.50000  0.50000  1.0000 2.0457928869
Dy  Dy2       1.0  0.92876  0.33001  0.67256  1.0000 2.0628311131
Dy  Dy3       1.0  0.07124  0.66999  0.32744  1.0000 2.0628311131
H   H1        1.0  0.00140  0.87600  0.82370  1.0000 0.1296372705
H   H2        1.0  0.99860  0.12400  0.17630  1.0000 0.1296372705
H   H3        1.0  0.00580  0.60070  0.91500  1.0000 0.1483917627
H   H4        1.0  0.99420  0.39930  0.08500  1.0000 0.1483917627
H   H5        1.0  0.56470  0.21900  0.42570  1.0000 0.1483917627
H   H6        1.0  0.43530  0.78100  0.57430  1.0000 0.1483917627
H   H7        1.0  0.58010  0.50170  0.34990  1.0000 0.1392256412
H   H8        1.0  0.41990  0.49830  0.65010  1.0000 0.1392256412
H   H9        1.0  0.00470  0.94650  0.14110  1.0000 0.1296372705
H   H10       1.0  0.99530  0.05350  0.85890  1.0000 0.1296372705
H   H11       1.0  0.25540  0.36680  0.32270  1.0000 0.1214683781
H   H12       1.0  0.74460  0.63320  0.67730  1.0000 0.1214683781
H   H13       1.0  0.22720  0.32980  0.46930  1.0000 0.1214683781
H   H14       1.0  0.77280  0.67020  0.53070  1.0000 0.1214683781
H   H15       1.0  0.39810  0.04460  0.33760  1.0000 0.1296372705
H   H16       1.0  0.60190  0.95540  0.66240  1.0000 0.1296372705
H   H17       1.0  0.13460  0.00810  0.45260  1.0000 0.1483917627
H   H18       1.0  0.86540  0.99190  0.54740  1.0000 0.1483917627
C   C1        1.0  0.00630  0.64090  0.73350  1.0000 0.6055920812
C   C2        1.0  0.99370  0.35910  0.26650  1.0000 0.6055920812
C   C3        1.0  0.73470  0.37220  0.43780  1.0000 0.6353264543
C   C4        1.0  0.26530  0.62780  0.56220  1.0000 0.6353264543
C   C5        1.0  0.00530  0.72520  0.85220  1.0000 -0.0110469822
C   C6        1.0  0.99470  0.27480  0.14780  1.0000 -0.0110469822
C   C7        1.0  0.59400  0.36170  0.39390  1.0000 -0.0165762567
C   C8        1.0  0.40600  0.63830  0.60610  1.0000 -0.0165762567
C   C9        1.0  0.00260  0.84970  0.87940  1.0000 -0.1478257683
C   C10       1.0  0.99740  0.15030  0.12060  1.0000 -0.1478257683
C   C11       1.0  0.00730  0.68340  0.93380  1.0000 -0.0906125885
C   C12       1.0  0.99270  0.31660  0.06620  1.0000 -0.0906125885
C   C13       1.0  0.52530  0.27730  0.40300  1.0000 -0.1211798918
C   C14       1.0  0.47470  0.72270  0.59700  1.0000 -0.1211798918
C   C15       1.0  0.53450  0.44670  0.35730  1.0000 -0.1023534779
C   C16       1.0  0.46550  0.55330  0.64270  1.0000 -0.1023534779
C   C17       1.0  0.00170  0.93430  0.98700  1.0000 0.08047433
C   C18       1.0  0.99830  0.06570  0.01300  1.0000 0.08047433
C   C19       1.0  0.01160  0.76740  0.04370  1.0000 0.0230223182
C   C20       1.0  0.98840  0.23260  0.95630  1.0000 0.0230223182
C   C21       1.0  0.39870  0.28050  0.37830  1.0000 0.0738725159
C   C22       1.0  0.60130  0.71950  0.62170  1.0000 0.0738725159
C   C23       1.0  0.40960  0.45020  0.33220  1.0000 -0.0110469822
C   C24       1.0  0.59040  0.54980  0.66780  1.0000 -0.0110469822
C   C25       1.0  0.00580  0.89190  0.06840  1.0000 -0.1401734111
C   C26       1.0  0.99420  0.10810  0.93160  1.0000 -0.1401734111
C   C27       1.0  0.02090  0.72940  0.13790  1.0000 0.5587049219
C   C28       1.0  0.97910  0.27060  0.86210  1.0000 0.5587049219
C   C29       1.0  0.32460  0.19940  0.39740  1.0000 0.08047433
C   C30       1.0  0.67540  0.80060  0.60260  1.0000 0.08047433
C   C31       1.0  0.34100  0.36570  0.34150  1.0000 -0.1303002705
C   C32       1.0  0.65900  0.63430  0.65850  1.0000 -0.1303002705
C   C33       1.0  0.34570  0.55060  0.30690  1.0000 0.5919556561
C   C34       1.0  0.65430  0.44940  0.69310  1.0000 0.5919556561
C   C35       1.0  0.23740  0.24830  0.44880  1.0000 -0.1211798918
C   C36       1.0  0.76260  0.75170  0.55120  1.0000 -0.1211798918
C   C37       1.0  0.34030  0.07850  0.37070  1.0000 -0.1303002705
C   C38       1.0  0.65970  0.92150  0.62930  1.0000 -0.1303002705
C   C39       1.0  0.16620  0.17780  0.46970  1.0000 -0.0110469822
C   C40       1.0  0.83380  0.82220  0.53030  1.0000 -0.0110469822
C   C41       1.0  0.27120  0.00720  0.39250  1.0000 -0.0110469822
C   C42       1.0  0.72880  0.99280  0.60750  1.0000 -0.0110469822
C   C43       1.0  0.07730  0.23300  0.52830  1.0000 0.626698086
C   C44       1.0  0.92270  0.76700  0.47170  1.0000 0.626698086
C   C45       1.0  0.18270  0.05670  0.44040  1.0000 -0.0806205925
C   C46       1.0  0.81730  0.94330  0.55960  1.0000 -0.0806205925
C   C47       1.0  0.28840  0.87770  0.36540  1.0000 0.5919556561
C   C48       1.0  0.71160  0.12230  0.63460  1.0000 0.5919556561
O   O1        1.0  0.02850  0.47140  0.31200  1.0000 -0.69724085
O   O2        1.0  0.97150  0.52860  0.68800  1.0000 -0.69724085
O   O3        1.0  0.93530  0.65520  0.44430  1.0000 -0.7294843402
O   O4        1.0  0.06470  0.34480  0.55570  1.0000 -0.7294843402
O   O5        1.0  0.21050  0.54660  0.57200  1.0000 -0.6640648153
O   O6        1.0  0.78950  0.45340  0.42800  1.0000 -0.6640648153
O   O7        1.0  0.96070  0.31530  0.32170  1.0000 -0.5687381384
O   O8        1.0  0.03930  0.68470  0.67830  1.0000 -0.5687381384
O   O9        1.0  0.76380  0.44280  0.70620  1.0000 -0.5687381384
O   O10       1.0  0.23620  0.55720  0.29380  1.0000 -0.5687381384
O   O11       1.0  0.02110  0.17220  0.55480  1.0000 -0.5445061234
O   O12       1.0  0.97890  0.82780  0.44520  1.0000 -0.5445061234
O   O13       1.0  0.94200  0.37040  0.86920  1.0000 -0.5793730524
O   O14       1.0  0.05800  0.62960  0.13080  1.0000 -0.5793730524
O   O15       1.0  0.00500  0.20010  0.77560  1.0000 -0.6067304817
O   O16       1.0  0.99500  0.79990  0.22440  1.0000 -0.6067304817
O   O17       1.0  0.79180  0.30570  0.48300  1.0000 -0.6187133697
O   O18       1.0  0.20820  0.69430  0.51700  1.0000 -0.6187133697
O   O19       1.0  0.76620  0.17750  0.60100  1.0000 -0.6187133697
O   O20       1.0  0.23380  0.82250  0.39900  1.0000 -0.6187133697
O   O21       1.0  0.41640  0.62880  0.30480  1.0000 -0.4312525299
O   O22       1.0  0.58360  0.37120  0.69520  1.0000 -0.4312525299
O   O23       1.0  0.35840  0.82840  0.31150  1.0000 -0.4149150458
O   O24       1.0  0.64160  0.17160  0.68850  1.0000 -0.419460645
