# DDEC6 charges by PACMAN v1.1 (https://github.com/mtap-research/PACMAN-charge/)
data_2014[ZnLa][tfw]3[ASR]1
_chemical_formula_sum              "La2 Zn2 H20 C40 N6 O20"
_cell_length_a       10.458
_cell_length_b       12.274
_cell_length_c       12.401
_cell_angle_alpha    86.14
_cell_angle_beta     79.87
_cell_angle_gamma    76.58

_symmetry_space_group_name_H-M    "P 1"
_symmetry_Int_Tables_number       1

loop_
  _symmetry_equiv_pos_as_xyz
  'x, y, z'

loop_
  _atom_site_type_symbol
  _atom_site_label
  _atom_site_symmetry_multiplicity
  _atom_site_fract_x
  _atom_site_fract_y
  _atom_site_fract_z
  _atom_site_occupancy
  _atom_site_charge
La  La1       1.0  0.95736  0.12531  0.82907  1.0000 1.8900069894
La  La2       1.0  0.04264  0.87469  0.17093  1.0000 1.8900069894
Zn  Zn1       1.0  0.18644  0.35029  0.19024  1.0000 0.7227198781
Zn  Zn2       1.0  0.81356  0.64971  0.80976  1.0000 0.7227198781
H   H1        1.0  0.32660  0.71890  0.97700  1.0000 0.1387685389
H   H2        1.0  0.67340  0.28110  0.02300  1.0000 0.1387685389
H   H3        1.0  0.23680  0.53230  0.34090  1.0000 0.1196527706
H   H4        1.0  0.76320  0.46770  0.65910  1.0000 0.1196527706
H   H5        1.0  0.32200  0.38170  0.89610  1.0000 0.1196527706
H   H6        1.0  0.67800  0.61830  0.10390  1.0000 0.1196527706
H   H7        1.0  0.11260  0.66760  0.78540  1.0000 0.1196527706
H   H8        1.0  0.88740  0.33240  0.21460  1.0000 0.1196527706
H   H9        1.0  0.54620  0.62530  0.94380  1.0000 0.1096283012
H   H10       1.0  0.45380  0.37470  0.05620  1.0000 0.1096283012
H   H11       1.0  0.31400  0.55920  0.81800  1.0000 0.1292109491
H   H12       1.0  0.68600  0.44080  0.18200  1.0000 0.1292109491
H   H13       1.0  0.15650  0.43410  0.65280  1.0000 0.1096283012
H   H14       1.0  0.84350  0.56590  0.34720  1.0000 0.1096283012
H   H15       1.0  0.22780  0.56150  0.52300  1.0000 0.1292109491
H   H16       1.0  0.77220  0.43850  0.47700  1.0000 0.1292109491
H   H17       1.0  0.40860  0.93700  0.73550  1.0000 0.1553349645
H   H18       1.0  0.59140  0.06300  0.26450  1.0000 0.1553349645
H   H19       1.0  0.62660  0.84350  0.71360  1.0000 0.1196527706
H   H20       1.0  0.37340  0.15650  0.28640  1.0000 0.1196527706
C   C1        1.0  0.01170  0.44990  0.87270  1.0000 0.0630725735
C   C2        1.0  0.98830  0.55010  0.12730  1.0000 0.0630725735
C   C3        1.0  0.12790  0.38190  0.90050  1.0000 -0.0794810875
C   C4        1.0  0.87210  0.61810  0.09950  1.0000 -0.0794810875
C   C5        1.0  0.87740  0.41740  0.88760  1.0000 0.5503169597
C   C6        1.0  0.12260  0.58260  0.11240  1.0000 0.5503169597
C   C7        1.0  0.14400  0.26750  0.95850  1.0000 0.6087198557
C   C8        1.0  0.85600  0.73250  0.04150  1.0000 0.6087198557
C   C9        1.0  0.12700  0.32130  0.43400  1.0000 0.0630725735
C   C10       1.0  0.87300  0.67870  0.56600  1.0000 0.0630725735
C   C11       1.0  0.08990  0.22530  0.38510  1.0000 0.5189480485
C   C12       1.0  0.91010  0.77470  0.61490  1.0000 0.5189480485
C   C13       1.0  0.38620  0.74520  0.92250  1.0000 -0.1725509463
C   C14       1.0  0.61380  0.25480  0.07750  1.0000 -0.1725509463
C   C15       1.0  0.20730  0.48140  0.39290  1.0000 0.0911498965
C   C16       1.0  0.79270  0.51860  0.60710  1.0000 0.0911498965
C   C17       1.0  0.34330  0.84000  0.86060  1.0000 0.0097286237
C   C18       1.0  0.65670  0.16000  0.13940  1.0000 0.0097286237
C   C19       1.0  0.24190  0.42490  0.87950  1.0000 -0.0794810875
C   C20       1.0  0.75810  0.57510  0.12050  1.0000 -0.0732657759
C   C21       1.0  0.11720  0.59480  0.81320  1.0000 0.0801135284
C   C22       1.0  0.88280  0.40520  0.18680  1.0000 0.0801135284
C   C23       1.0  0.11700  0.33440  0.54550  1.0000 -0.0401859841
C   C24       1.0  0.88300  0.66560  0.45450  1.0000 -0.0401859841
C   C25       1.0  0.20090  0.90580  0.88200  1.0000 0.6188788117
C   C26       1.0  0.79910  0.09420  0.11800  1.0000 0.6188788117
C   C27       1.0  0.51860  0.69010  0.90270  1.0000 0.0655103774
C   C28       1.0  0.48140  0.30990  0.09730  1.0000 0.0655103774
C   C29       1.0  0.23730  0.53120  0.83410  1.0000 -0.1337200104
C   C30       1.0  0.76270  0.46880  0.16590  1.0000 -0.1337200104
C   C31       1.0  0.15840  0.42450  0.57870  1.0000 -0.0732657759
C   C32       1.0  0.84160  0.57550  0.42130  1.0000 -0.0732657759
C   C33       1.0  0.20220  0.49960  0.50170  1.0000 -0.1398300937
C   C34       1.0  0.79780  0.50040  0.49830  1.0000 -0.1398300937
C   C35       1.0  0.06640  0.25690  0.63410  1.0000 0.5690201224
C   C36       1.0  0.93360  0.74310  0.36590  1.0000 0.5690201224
C   C37       1.0  0.43500  0.87490  0.78030  1.0000 -0.1398300937
C   C38       1.0  0.56500  0.12510  0.21970  1.0000 -0.1398300937
C   C39       1.0  0.56540  0.81760  0.76690  1.0000 0.0801135284
C   C40       1.0  0.43460  0.18240  0.23310  1.0000 0.0801135284
N   N1        1.0  0.17180  0.39400  0.35870  1.0000 -0.2655178307
N   N2        1.0  0.82820  0.60600  0.64130  1.0000 -0.2648790477
N   N3        1.0  0.60920  0.72570  0.82680  1.0000 -0.2024296521
N   N4        1.0  0.39080  0.27430  0.17320  1.0000 -0.2024296521
N   N5        1.0  0.00710  0.55460  0.83170  1.0000 -0.2466695754
N   N6        1.0  0.99290  0.44540  0.16830  1.0000 -0.2466695754
O   O1        1.0  0.13450  0.90120  0.97560  1.0000 -0.6504380404
O   O2        1.0  0.86550  0.09880  0.02440  1.0000 -0.6504380404
O   O3        1.0  0.18640  0.26080  0.04680  1.0000 -0.5202694087
O   O4        1.0  0.81360  0.73920  0.95320  1.0000 -0.5202694087
O   O5        1.0  0.03980  0.15790  0.44800  1.0000 -0.4928921162
O   O6        1.0  0.96020  0.84210  0.55200  1.0000 -0.4928921162
O   O7        1.0  0.94680  0.28080  0.67600  1.0000 -0.6025407015
O   O8        1.0  0.05320  0.71920  0.32400  1.0000 -0.6025407015
O   O9        1.0  0.14770  0.17580  0.66690  1.0000 -0.5543746649
O   O10       1.0  0.85230  0.82420  0.33310  1.0000 -0.5543746649
O   O11       1.0  0.77850  0.49470  0.87280  1.0000 -0.5202694087
O   O12       1.0  0.22150  0.50530  0.12720  1.0000 -0.5202694087
O   O13       1.0  0.11220  0.22090  0.28240  1.0000 -0.5435197948
O   O14       1.0  0.88780  0.77910  0.71760  1.0000 -0.5435197948
O   O15       1.0  0.12620  0.18480  0.91430  1.0000 -0.5833045392
O   O16       1.0  0.87380  0.81520  0.08570  1.0000 -0.5833045392
O   O17       1.0  0.15790  0.96450  0.80320  1.0000 -0.5833045392
O   O18       1.0  0.84210  0.03550  0.19680  1.0000 -0.5833045392
O   O19       1.0  0.87210  0.31910  0.91270  1.0000 -0.5613165497
O   O20       1.0  0.12790  0.68090  0.08730  1.0000 -0.5613165497
