# DDEC6 charges by PACMAN v1.1 (https://github.com/mtap-research/PACMAN-charge/)
data_2014[Zn][nou]3[ASR]1
_chemical_formula_sum              "Zn8 H88 C136 O48"
_cell_length_a       10.107
_cell_length_b       18.338
_cell_length_c       27.084
_cell_angle_alpha    90
_cell_angle_beta     99.285
_cell_angle_gamma    90

_symmetry_space_group_name_H-M    "P 1"
_symmetry_Int_Tables_number       1

loop_
  _symmetry_equiv_pos_as_xyz
  'x, y, z'

loop_
  _atom_site_type_symbol
  _atom_site_label
  _atom_site_symmetry_multiplicity
  _atom_site_fract_x
  _atom_site_fract_y
  _atom_site_fract_z
  _atom_site_occupancy
  _atom_site_charge
Zn  Zn1       1.0  0.53573  0.19607  0.69242  1.0000 0.9169801308
Zn  Zn2       1.0  0.46427  0.69607  0.80758  1.0000 0.9169801308
Zn  Zn3       1.0  0.46427  0.80393  0.30758  1.0000 0.9169801308
Zn  Zn4       1.0  0.53573  0.30393  0.19242  1.0000 0.9169801308
Zn  Zn5       1.0  0.36333  0.26987  0.78082  1.0000 0.9823888076
Zn  Zn6       1.0  0.63667  0.76987  0.71918  1.0000 0.9823888076
Zn  Zn7       1.0  0.63667  0.73013  0.21918  1.0000 0.9823888076
Zn  Zn8       1.0  0.36333  0.23013  0.28082  1.0000 0.9823888076
H   H1        1.0  0.19120  0.10670  0.59890  1.0000 0.129011698
H   H2        1.0  0.80880  0.60670  0.90110  1.0000 0.129011698
H   H3        1.0  0.80880  0.89330  0.40110  1.0000 0.129011698
H   H4        1.0  0.19120  0.39330  0.09890  1.0000 0.129011698
H   H5        1.0  0.00930  0.21100  0.69840  1.0000 0.129011698
H   H6        1.0  0.99070  0.71100  0.80160  1.0000 0.129011698
H   H7        1.0  0.99070  0.78900  0.30160  1.0000 0.129011698
H   H8        1.0  0.00930  0.28900  0.19840  1.0000 0.129011698
H   H9        1.0  0.50950  0.60150  0.61840  1.0000 0.129011698
H   H10       1.0  0.49050  0.10150  0.88160  1.0000 0.129011698
H   H11       1.0  0.49050  0.39850  0.38160  1.0000 0.129011698
H   H12       1.0  0.50950  0.89850  0.11840  1.0000 0.129011698
H   H13       1.0  0.48890  0.38430  0.61470  1.0000 0.1379586199
H   H14       1.0  0.51110  0.88430  0.88530  1.0000 0.1379586199
H   H15       1.0  0.51110  0.61570  0.38530  1.0000 0.1379586199
H   H16       1.0  0.48890  0.11570  0.11470  1.0000 0.1379586199
H   H17       1.0  0.79410  0.09120  0.59020  1.0000 0.129011698
H   H18       1.0  0.20590  0.59120  0.90980  1.0000 0.129011698
H   H19       1.0  0.20590  0.90880  0.40980  1.0000 0.129011698
H   H20       1.0  0.79410  0.40880  0.09020  1.0000 0.129011698
H   H21       1.0  0.46380  0.49000  0.74130  1.0000 0.1379586199
H   H22       1.0  0.53620  0.99000  0.75870  1.0000 0.1379586199
H   H23       1.0  0.53620  0.51000  0.25870  1.0000 0.1379586199
H   H24       1.0  0.46380  0.01000  0.24130  1.0000 0.1379586199
H   H25       1.0  0.84440  0.16080  0.51680  1.0000 0.1205107672
H   H26       1.0  0.15560  0.66080  0.98320  1.0000 0.1205107672
H   H27       1.0  0.15560  0.83920  0.48320  1.0000 0.1205107672
H   H28       1.0  0.84440  0.33920  0.01680  1.0000 0.1205107672
H   H29       1.0  0.26120  0.53770  0.57080  1.0000 0.1205107672
H   H30       1.0  0.73880  0.03770  0.92920  1.0000 0.1205107672
H   H31       1.0  0.73880  0.46230  0.42920  1.0000 0.1205107672
H   H32       1.0  0.26120  0.96230  0.07080  1.0000 0.1205107672
H   H33       1.0  0.72300  0.43440  0.59820  1.0000 0.1205107672
H   H34       1.0  0.27700  0.93440  0.90180  1.0000 0.1205107672
H   H35       1.0  0.27700  0.56560  0.40180  1.0000 0.1205107672
H   H36       1.0  0.72300  0.06560  0.09820  1.0000 0.1205107672
H   H37       1.0  0.87900  0.02310  0.37600  1.0000 0.1205107672
H   H38       1.0  0.12100  0.52310  0.12400  1.0000 0.1205107672
H   H39       1.0  0.12100  0.97690  0.62400  1.0000 0.1205107672
H   H40       1.0  0.87900  0.47690  0.87600  1.0000 0.1205107672
H   H41       1.0  0.09220  0.60880  0.59270  1.0000 0.1205107672
H   H42       1.0  0.90780  0.10880  0.90730  1.0000 0.1205107672
H   H43       1.0  0.90780  0.39120  0.40730  1.0000 0.1205107672
H   H44       1.0  0.09220  0.89120  0.09270  1.0000 0.1205107672
H   H45       1.0  0.94110  0.58780  0.57630  1.0000 0.129011698
H   H46       1.0  0.05890  0.08780  0.92370  1.0000 0.129011698
H   H47       1.0  0.05890  0.41220  0.42370  1.0000 0.129011698
H   H48       1.0  0.94110  0.91220  0.07630  1.0000 0.129011698
H   H49       1.0  0.05240  0.52780  0.57920  1.0000 0.1140029413
H   H50       1.0  0.94760  0.02780  0.92080  1.0000 0.1140029413
H   H51       1.0  0.94760  0.47220  0.42080  1.0000 0.1140029413
H   H52       1.0  0.05240  0.97220  0.07920  1.0000 0.1140029413
H   H53       1.0  0.66200  0.22650  0.50220  1.0000 0.129011698
H   H54       1.0  0.33800  0.72650  0.99780  1.0000 0.129011698
H   H55       1.0  0.33800  0.77350  0.49780  1.0000 0.129011698
H   H56       1.0  0.66200  0.27350  0.00220  1.0000 0.129011698
H   H57       1.0  0.77680  0.27820  0.49070  1.0000 0.1205107672
H   H58       1.0  0.22320  0.77820  0.00930  1.0000 0.1205107672
H   H59       1.0  0.22320  0.72180  0.50930  1.0000 0.1205107672
H   H60       1.0  0.77680  0.22180  0.99070  1.0000 0.1205107672
H   H61       1.0  0.62750  0.29430  0.46720  1.0000 0.129011698
H   H62       1.0  0.37250  0.79430  0.03280  1.0000 0.129011698
H   H63       1.0  0.37250  0.70570  0.53280  1.0000 0.129011698
H   H64       1.0  0.62750  0.20570  0.96720  1.0000 0.129011698
H   H65       1.0  0.92530  0.40220  0.64170  1.0000 0.1205107672
H   H66       1.0  0.07470  0.90220  0.85830  1.0000 0.1205107672
H   H67       1.0  0.07470  0.59780  0.35830  1.0000 0.1205107672
H   H68       1.0  0.92530  0.09780  0.14170  1.0000 0.1205107672
H   H69       1.0  0.85920  0.32870  0.62080  1.0000 0.129011698
H   H70       1.0  0.14080  0.82870  0.87920  1.0000 0.129011698
H   H71       1.0  0.14080  0.67130  0.37920  1.0000 0.129011698
H   H72       1.0  0.85920  0.17130  0.12080  1.0000 0.129011698
H   H73       1.0  0.01560  0.33500  0.63390  1.0000 0.1379586199
H   H74       1.0  0.98440  0.83500  0.86610  1.0000 0.1379586199
H   H75       1.0  0.98440  0.66500  0.36610  1.0000 0.1379586199
H   H76       1.0  0.01560  0.16500  0.13390  1.0000 0.1379586199
H   H77       1.0  0.84920  0.09950  0.31180  1.0000 0.129011698
H   H78       1.0  0.15080  0.59950  0.18820  1.0000 0.1205107672
H   H79       1.0  0.15080  0.90050  0.68820  1.0000 0.1205107672
H   H80       1.0  0.84920  0.40050  0.81180  1.0000 0.1205107672
H   H81       1.0  0.71350  0.05740  0.30990  1.0000 0.1205107672
H   H82       1.0  0.28650  0.55740  0.19010  1.0000 0.1205107672
H   H83       1.0  0.28650  0.94260  0.69010  1.0000 0.1205107672
H   H84       1.0  0.71350  0.44260  0.80990  1.0000 0.1205107672
H   H85       1.0  0.71570  0.13350  0.28370  1.0000 0.1379586199
H   H86       1.0  0.28430  0.63350  0.21630  1.0000 0.1379586199
H   H87       1.0  0.28430  0.86650  0.71630  1.0000 0.1379586199
H   H88       1.0  0.71570  0.36650  0.78370  1.0000 0.1379586199
C   C1        1.0  0.11320  0.11823  0.61127  1.0000 -0.1519164659
C   C2        1.0  0.88680  0.61823  0.88873  1.0000 -0.1605873753
C   C3        1.0  0.88680  0.88177  0.38873  1.0000 -0.1605873753
C   C4        1.0  0.11320  0.38177  0.11127  1.0000 -0.1519164659
C   C5        1.0  0.12140  0.16262  0.65298  1.0000 -0.0404111317
C   C6        1.0  0.87860  0.66262  0.84702  1.0000 -0.0404111317
C   C7        1.0  0.87860  0.83738  0.34702  1.0000 -0.0404111317
C   C8        1.0  0.12140  0.33738  0.15298  1.0000 -0.0404111317
C   C9        1.0  0.00540  0.18081  0.67060  1.0000 -0.1220168252
C   C10       1.0  0.99460  0.68081  0.82940  1.0000 -0.1220168252
C   C11       1.0  0.99460  0.81919  0.32940  1.0000 -0.1220168252
C   C12       1.0  0.00540  0.31919  0.17060  1.0000 -0.1220168252
C   C13       1.0  0.49010  0.55604  0.68447  1.0000 -0.0226716597
C   C14       1.0  0.50990  0.05604  0.81553  1.0000 -0.0226716597
C   C15       1.0  0.50990  0.44396  0.31553  1.0000 -0.0226716597
C   C16       1.0  0.49010  0.94396  0.18447  1.0000 -0.0226716597
C   C17       1.0  0.25250  0.18960  0.67893  1.0000 0.598652386
C   C18       1.0  0.74750  0.68960  0.82107  1.0000 0.598652386
C   C19       1.0  0.74750  0.81040  0.32107  1.0000 0.598652386
C   C20       1.0  0.25250  0.31040  0.17893  1.0000 0.598652386
C   C21       1.0  0.49840  0.49507  0.55174  1.0000 -0.0404111317
C   C22       1.0  0.50160  0.99507  0.94826  1.0000 -0.0404111317
C   C23       1.0  0.50160  0.50493  0.44826  1.0000 -0.0404111317
C   C24       1.0  0.49840  0.00493  0.05174  1.0000 -0.0404111317
C   C25       1.0  0.47430  0.35481  0.70772  1.0000 0.598652386
C   C26       1.0  0.52570  0.85481  0.79228  1.0000 0.598652386
C   C27       1.0  0.52570  0.64519  0.29228  1.0000 0.598652386
C   C28       1.0  0.47430  0.14519  0.20772  1.0000 0.598652386
C   C29       1.0  0.92600  0.06530  0.49597  1.0000 0.0368043856
C   C30       1.0  0.07400  0.56530  0.00403  1.0000 0.0368043856
C   C31       1.0  0.07400  0.93470  0.50403  1.0000 0.0368043856
C   C32       1.0  0.92600  0.43470  0.99597  1.0000 0.0368043856
C   C33       1.0  0.99140  0.04280  0.54244  1.0000 -0.031916322
C   C34       1.0  0.00860  0.54280  0.95756  1.0000 -0.031916322
C   C35       1.0  0.00860  0.95720  0.45756  1.0000 -0.031916322
C   C36       1.0  0.99140  0.45720  0.04244  1.0000 -0.031916322
C   C37       1.0  0.88370  0.15450  0.64716  1.0000 -0.0089909707
C   C38       1.0  0.11630  0.65450  0.85284  1.0000 -0.0089909707
C   C39       1.0  0.11630  0.84550  0.35284  1.0000 -0.0089909707
C   C40       1.0  0.88370  0.34550  0.14716  1.0000 -0.0089909707
C   C41       1.0  0.93540  0.02270  0.45231  1.0000 0.0331305807
C   C42       1.0  0.06460  0.52270  0.04769  1.0000 0.0331305807
C   C43       1.0  0.06460  0.97730  0.54769  1.0000 0.0331305807
C   C44       1.0  0.93540  0.47730  0.95231  1.0000 0.0331305807
C   C45       1.0  0.49930  0.55723  0.63405  1.0000 -0.1605873753
C   C46       1.0  0.50070  0.05723  0.86595  1.0000 -0.1605873753
C   C47       1.0  0.50070  0.44277  0.36595  1.0000 -0.1605873753
C   C48       1.0  0.49930  0.94277  0.13405  1.0000 -0.1605873753
C   C49       1.0  0.99240  0.09050  0.58749  1.0000 0.0787132254
C   C50       1.0  0.00760  0.59050  0.91251  1.0000 0.0787132254
C   C51       1.0  0.00760  0.90950  0.41251  1.0000 0.0787132254
C   C52       1.0  0.99240  0.40950  0.08749  1.0000 0.0787132254
C   C53       1.0  0.49350  0.49273  0.60651  1.0000 0.0854496417
C   C54       1.0  0.50650  0.99273  0.89349  1.0000 0.0854496417
C   C55       1.0  0.50650  0.50727  0.39349  1.0000 0.0854496417
C   C56       1.0  0.49350  0.00727  0.10651  1.0000 0.0854496417
C   C57       1.0  0.47770  0.42639  0.68182  1.0000 -0.0226716597
C   C58       1.0  0.52230  0.92639  0.81818  1.0000 -0.0226716597
C   C59       1.0  0.52230  0.57361  0.31818  1.0000 -0.0226716597
C   C60       1.0  0.47770  0.07361  0.18182  1.0000 -0.031916322
C   C61       1.0  0.48700  0.42809  0.63195  1.0000 -0.1605873753
C   C62       1.0  0.51300  0.92809  0.86805  1.0000 -0.1605873753
C   C63       1.0  0.51300  0.57191  0.36805  1.0000 -0.1605873753
C   C64       1.0  0.48700  0.07191  0.13195  1.0000 -0.1605873753
C   C65       1.0  0.87660  0.10910  0.60567  1.0000 -0.1605873753
C   C66       1.0  0.12340  0.60910  0.89433  1.0000 -0.1605873753
C   C67       1.0  0.12340  0.89090  0.39433  1.0000 -0.1605873753
C   C68       1.0  0.87660  0.39090  0.10567  1.0000 -0.1605873753
C   C69       1.0  0.38690  0.52327  0.51929  1.0000 0.0331305807
C   C70       1.0  0.61310  0.02327  0.98071  1.0000 0.0331305807
C   C71       1.0  0.61310  0.47673  0.48071  1.0000 0.0331305807
C   C72       1.0  0.38690  0.97673  0.01929  1.0000 0.0331305807
C   C73       1.0  0.47530  0.49075  0.70789  1.0000 -0.1220168252
C   C74       1.0  0.52470  0.99075  0.79211  1.0000 -0.1220168252
C   C75       1.0  0.52470  0.50925  0.29211  1.0000 -0.1220168252
C   C76       1.0  0.47530  0.00925  0.20789  1.0000 -0.1220168252
C   C77       1.0  0.61010  0.47081  0.53248  1.0000 0.0331305807
C   C78       1.0  0.38990  0.97081  0.96752  1.0000 0.0331305807
C   C79       1.0  0.38990  0.52919  0.46752  1.0000 0.0331305807
C   C80       1.0  0.61010  0.02919  0.03248  1.0000 0.0331305807
C   C81       1.0  0.84950  0.13150  0.48918  1.0000 -0.281396957
C   C82       1.0  0.15050  0.63150  0.01082  1.0000 -0.281396957
C   C83       1.0  0.15050  0.86850  0.51082  1.0000 -0.281396957
C   C84       1.0  0.84950  0.36850  0.98918  1.0000 -0.281396957
C   C85       1.0  0.26640  0.54380  0.53711  1.0000 -0.2923149483
C   C86       1.0  0.73360  0.04380  0.96289  1.0000 -0.2923149483
C   C87       1.0  0.73360  0.45620  0.46289  1.0000 -0.2923149483
C   C88       1.0  0.26640  0.95620  0.03711  1.0000 -0.2923149483
C   C89       1.0  0.79880  0.11130  0.40055  1.0000 0.1596753822
C   C90       1.0  0.20120  0.61130  0.09945  1.0000 0.1596753822
C   C91       1.0  0.20120  0.88870  0.59945  1.0000 0.1596753822
C   C92       1.0  0.79880  0.38870  0.90055  1.0000 0.1596753822
C   C93       1.0  0.72440  0.43970  0.56418  1.0000 -0.2923149483
C   C94       1.0  0.27560  0.93970  0.93582  1.0000 -0.2923149483
C   C95       1.0  0.27560  0.56030  0.43582  1.0000 -0.2923149483
C   C96       1.0  0.72440  0.06030  0.06418  1.0000 -0.2923149483
C   C97       1.0  0.87080  0.04930  0.40470  1.0000 -0.281396957
C   C98       1.0  0.12920  0.54930  0.09530  1.0000 -0.281396957
C   C99       1.0  0.12920  0.95070  0.59530  1.0000 -0.281396957
C   C100      1.0  0.87080  0.45070  0.90470  1.0000 -0.281396957
C   C101      1.0  0.78500  0.15240  0.44410  1.0000 0.1596753822
C   C102      1.0  0.21500  0.65240  0.05590  1.0000 0.1596753822
C   C103      1.0  0.21500  0.84760  0.55590  1.0000 0.1596753822
C   C104      1.0  0.78500  0.34760  0.94410  1.0000 0.1596753822
C   C105      1.0  0.03120  0.57790  0.57130  1.0000 -0.2409418801
C   C106      1.0  0.96880  0.07790  0.92870  1.0000 -0.2409418801
C   C107      1.0  0.96880  0.42210  0.42870  1.0000 -0.2409418801
C   C108      1.0  0.03120  0.92210  0.07130  1.0000 -0.2409418801
C   C109      1.0  0.16130  0.57120  0.50672  1.0000 0.1596753822
C   C110      1.0  0.83870  0.07120  0.99328  1.0000 0.1596753822
C   C111      1.0  0.83870  0.42880  0.49328  1.0000 0.1596753822
C   C112      1.0  0.16130  0.92880  0.00672  1.0000 0.1596753822
C   C113      1.0  0.69210  0.25650  0.47720  1.0000 -0.2409418801
C   C114      1.0  0.30790  0.75650  0.02280  1.0000 -0.2409418801
C   C115      1.0  0.30790  0.74350  0.52280  1.0000 -0.2409418801
C   C116      1.0  0.69210  0.24350  0.97720  1.0000 -0.2409418801
C   C117      1.0  0.83210  0.41830  0.54536  1.0000 0.1596753822
C   C118      1.0  0.16790  0.91830  0.95464  1.0000 0.1596753822
C   C119      1.0  0.16790  0.58170  0.45464  1.0000 0.1596753822
C   C120      1.0  0.83210  0.08170  0.04536  1.0000 0.1596753822
C   C121      1.0  0.75830  0.17590  0.66700  1.0000 0.5420422686
C   C122      1.0  0.24170  0.67590  0.83300  1.0000 0.5420422686
C   C123      1.0  0.24170  0.82410  0.33300  1.0000 0.5420422686
C   C124      1.0  0.75830  0.32410  0.16700  1.0000 0.5420422686
C   C125      1.0  0.93460  0.36060  0.62100  1.0000 -0.2284075597
C   C126      1.0  0.06540  0.86060  0.87900  1.0000 -0.2284075597
C   C127      1.0  0.06540  0.63940  0.37900  1.0000 -0.2284075597
C   C128      1.0  0.93460  0.13940  0.12100  1.0000 -0.2284075597
C   C129      1.0  0.49950  0.62620  0.71326  1.0000 0.598652386
C   C130      1.0  0.50050  0.12620  0.78674  1.0000 0.598652386
C   C131      1.0  0.50050  0.37380  0.28674  1.0000 0.598652386
C   C132      1.0  0.49950  0.87380  0.21326  1.0000 0.598652386
C   C133      1.0  0.75480  0.10470  0.31188  1.0000 -0.2284075597
C   C134      1.0  0.24520  0.60470  0.18812  1.0000 -0.2284075597
C   C135      1.0  0.24520  0.89530  0.68812  1.0000 -0.2284075597
C   C136      1.0  0.75480  0.39530  0.81188  1.0000 -0.2284075597
O   O1        1.0  0.35320  0.17042  0.66067  1.0000 -0.5186212527
O   O2        1.0  0.64680  0.67042  0.83933  1.0000 -0.5186212527
O   O3        1.0  0.64680  0.82958  0.33933  1.0000 -0.5186212527
O   O4        1.0  0.35320  0.32958  0.16067  1.0000 -0.5186212527
O   O5        1.0  0.51650  0.30129  0.68623  1.0000 -0.544701265
O   O6        1.0  0.48350  0.80129  0.81377  1.0000 -0.544701265
O   O7        1.0  0.48350  0.69871  0.31377  1.0000 -0.544701265
O   O8        1.0  0.51650  0.19871  0.18623  1.0000 -0.544701265
O   O9        1.0  0.43360  0.35309  0.74881  1.0000 -0.5496518539
O   O10       1.0  0.56640  0.85309  0.75119  1.0000 -0.5496518539
O   O11       1.0  0.56640  0.64691  0.25119  1.0000 -0.5496518539
O   O12       1.0  0.43360  0.14691  0.24881  1.0000 -0.5496518539
O   O13       1.0  0.25400  0.22723  0.71644  1.0000 -0.5561676489
O   O14       1.0  0.74600  0.72723  0.78356  1.0000 -0.5561676489
O   O15       1.0  0.74600  0.77277  0.28356  1.0000 -0.5496518539
O   O16       1.0  0.25400  0.27277  0.21644  1.0000 -0.5496518539
O   O17       1.0  0.70720  0.21287  0.43480  1.0000 -0.1397428274
O   O18       1.0  0.29280  0.71287  0.06520  1.0000 -0.1347328106
O   O19       1.0  0.29280  0.78713  0.56520  1.0000 -0.1347328106
O   O20       1.0  0.70720  0.28713  0.93480  1.0000 -0.1347328106
O   O21       1.0  0.94010  0.38430  0.57117  1.0000 -0.1397428274
O   O22       1.0  0.05990  0.88430  0.92883  1.0000 -0.1519164659
O   O23       1.0  0.05990  0.61570  0.42883  1.0000 -0.1397428274
O   O24       1.0  0.94010  0.11570  0.07117  1.0000 -0.1397428274
O   O25       1.0  0.04320  0.59170  0.51960  1.0000 -0.1397428274
O   O26       1.0  0.95680  0.09170  0.98040  1.0000 -0.1397428274
O   O27       1.0  0.95680  0.40830  0.48040  1.0000 -0.1347328106
O   O28       1.0  0.04320  0.90830  0.01960  1.0000 -0.1397428274
O   O29       1.0  0.64670  0.15435  0.64387  1.0000 -0.5296073051
O   O30       1.0  0.35330  0.65435  0.85613  1.0000 -0.5296073051
O   O31       1.0  0.35330  0.84565  0.35613  1.0000 -0.5296073051
O   O32       1.0  0.64670  0.34565  0.14387  1.0000 -0.5296073051
O   O33       1.0  0.76450  0.21331  0.70515  1.0000 -0.5296073051
O   O34       1.0  0.23550  0.71331  0.79485  1.0000 -0.5296073051
O   O35       1.0  0.23550  0.78669  0.29485  1.0000 -0.5296073051
O   O36       1.0  0.76450  0.28669  0.20515  1.0000 -0.5296073051
O   O37       1.0  0.44820  0.62758  0.75157  1.0000 -0.5094983148
O   O38       1.0  0.55180  0.12758  0.74843  1.0000 -0.5094983148
O   O39       1.0  0.55180  0.37242  0.24843  1.0000 -0.5094983148
O   O40       1.0  0.44820  0.87242  0.25157  1.0000 -0.5094983148
O   O41       1.0  0.55770  0.67677  0.69643  1.0000 -0.5496518539
O   O42       1.0  0.44230  0.17677  0.80357  1.0000 -0.5496518539
O   O43       1.0  0.44230  0.32323  0.30357  1.0000 -0.5496518539
O   O44       1.0  0.55770  0.82323  0.19643  1.0000 -0.5496518539
O   O45       1.0  0.73370  0.13997  0.35721  1.0000 -0.1220168252
O   O46       1.0  0.26630  0.63997  0.14279  1.0000 -0.1220168252
O   O47       1.0  0.26630  0.86003  0.64279  1.0000 -0.1220168252
O   O48       1.0  0.73370  0.36003  0.85721  1.0000 -0.1220168252
