# DDEC6 charges by PACMAN v1.1 (https://github.com/mtap-research/PACMAN-charge/)
data_2014[Zn][srs]3[ASR]1
_chemical_formula_sum              "Zn4 H12 C28 N4 O16"
_cell_length_a       10.8285
_cell_length_b       11.1933
_cell_length_c       14.799
_cell_angle_alpha    90
_cell_angle_beta     90
_cell_angle_gamma    90

_symmetry_space_group_name_H-M    "P 1"
_symmetry_Int_Tables_number       1

loop_
  _symmetry_equiv_pos_as_xyz
  'x, y, z'

loop_
  _atom_site_type_symbol
  _atom_site_label
  _atom_site_symmetry_multiplicity
  _atom_site_fract_x
  _atom_site_fract_y
  _atom_site_fract_z
  _atom_site_occupancy
  _atom_site_charge
Zn  Zn1       1.0  0.34279  0.81577  0.15840  1.0000 0.8143837364
Zn  Zn2       1.0  0.84279  0.68423  0.84160  1.0000 0.8143837364
Zn  Zn3       1.0  0.65721  0.31577  0.34160  1.0000 0.8156462522
Zn  Zn4       1.0  0.15721  0.18423  0.65840  1.0000 0.8156462522
H   H1        1.0  0.52200  0.53630  0.29880  1.0000 0.1213208722
H   H2        1.0  0.02200  0.96370  0.70120  1.0000 0.1213208722
H   H3        1.0  0.47800  0.03630  0.20120  1.0000 0.1213208722
H   H4        1.0  0.97800  0.46370  0.79880  1.0000 0.1213208722
H   H5        1.0  0.43860  0.27390  0.46670  1.0000 0.1213208722
H   H6        1.0  0.93860  0.22610  0.53330  1.0000 0.1213208722
H   H7        1.0  0.56140  0.77390  0.03330  1.0000 0.1213208722
H   H8        1.0  0.06140  0.72610  0.96670  1.0000 0.1213208722
H   H9        1.0  0.18850  0.53450  0.42010  1.0000 0.1295975173
H   H10       1.0  0.68850  0.96550  0.57990  1.0000 0.1295975173
H   H11       1.0  0.81150  0.03450  0.07990  1.0000 0.1295975173
H   H12       1.0  0.31150  0.46550  0.92010  1.0000 0.1295975173
C   C1        1.0  0.46436  0.49909  0.33816  1.0000 0.055647152
C   C2        1.0  0.96436  0.00091  0.66184  1.0000 0.055647152
C   C3        1.0  0.53564  0.99909  0.16184  1.0000 0.055647152
C   C4        1.0  0.03564  0.50091  0.83816  1.0000 0.055647152
C   C5        1.0  0.41604  0.34601  0.43704  1.0000 0.0723140189
C   C6        1.0  0.91604  0.15399  0.56296  1.0000 0.0723140189
C   C7        1.0  0.58396  0.84601  0.06296  1.0000 0.0723140189
C   C8        1.0  0.08396  0.65399  0.93704  1.0000 0.0723140189
C   C9        1.0  0.30105  0.39490  0.45414  1.0000 -0.0466587326
C   C10       1.0  0.80105  0.10510  0.54586  1.0000 -0.0466587326
C   C11       1.0  0.69895  0.89490  0.04586  1.0000 -0.0436324682
C   C12       1.0  0.19895  0.60510  0.95414  1.0000 -0.0466587326
C   C13       1.0  0.26720  0.49950  0.40980  1.0000 -0.0466587326
C   C14       1.0  0.76720  0.00050  0.59020  1.0000 -0.0436324682
C   C15       1.0  0.73280  0.99950  0.09020  1.0000 -0.0466587326
C   C16       1.0  0.23280  0.50050  0.90980  1.0000 -0.0436324682
C   C17       1.0  0.35020  0.55179  0.35045  1.0000 -0.0436324682
C   C18       1.0  0.85020  0.94821  0.64955  1.0000 -0.0436324682
C   C19       1.0  0.64980  0.05179  0.14955  1.0000 -0.0436324682
C   C20       1.0  0.14980  0.44821  0.85045  1.0000 -0.0436324682
C   C21       1.0  0.21200  0.33560  0.51874  1.0000 0.5486160801
C   C22       1.0  0.71200  0.16440  0.48126  1.0000 0.5486160801
C   C23       1.0  0.78800  0.83560  0.98126  1.0000 0.5486160801
C   C24       1.0  0.28800  0.66440  0.01874  1.0000 0.5486160801
C   C25       1.0  0.31580  0.66090  0.29602  1.0000 0.5486160801
C   C26       1.0  0.81580  0.83910  0.70398  1.0000 0.5486160801
C   C27       1.0  0.68420  0.16090  0.20398  1.0000 0.5486160801
C   C28       1.0  0.18420  0.33910  0.79602  1.0000 0.5486160801
N   N1        1.0  0.49701  0.39689  0.37997  1.0000 -0.2434554188
N   N2        1.0  0.99701  0.10311  0.62003  1.0000 -0.2434554188
N   N3        1.0  0.50299  0.89689  0.12003  1.0000 -0.2434554188
N   N4        1.0  0.00299  0.60311  0.87997  1.0000 -0.2434554188
O   O1        1.0  0.26005  0.24718  0.56238  1.0000 -0.5449383347
O   O2        1.0  0.76005  0.25282  0.43762  1.0000 -0.5474011305
O   O3        1.0  0.73995  0.74718  0.93762  1.0000 -0.5474011305
O   O4        1.0  0.23995  0.75282  0.06238  1.0000 -0.5474011305
O   O5        1.0  0.10602  0.37047  0.52490  1.0000 -0.4799095331
O   O6        1.0  0.60602  0.12953  0.47510  1.0000 -0.4799095331
O   O7        1.0  0.89398  0.87047  0.97510  1.0000 -0.4799095331
O   O8        1.0  0.39398  0.62953  0.02490  1.0000 -0.4799095331
O   O9        1.0  0.40304  0.70387  0.24790  1.0000 -0.5474011305
O   O10       1.0  0.90304  0.79613  0.75210  1.0000 -0.5474011305
O   O11       1.0  0.59696  0.20387  0.25210  1.0000 -0.5474011305
O   O12       1.0  0.09696  0.29613  0.74790  1.0000 -0.5474011305
O   O13       1.0  0.21025  0.69836  0.29872  1.0000 -0.4602158381
O   O14       1.0  0.71025  0.80164  0.70128  1.0000 -0.4602158381
O   O15       1.0  0.78975  0.19836  0.20128  1.0000 -0.4602158381
O   O16       1.0  0.28975  0.30164  0.79872  1.0000 -0.4602158381
