# DDEC6 charges by PACMAN v1.1 (https://github.com/mtap-research/PACMAN-charge/)
data_2014[Fe][nht]3[ASR]1
_chemical_formula_sum              "Fe9 H84 C150 O39"
_cell_length_a       20.5227
_cell_length_b       20.5227
_cell_length_c       20.5227
_cell_angle_alpha    107.119
_cell_angle_beta     107.119
_cell_angle_gamma    107.119

_symmetry_space_group_name_H-M    "P 1"
_symmetry_Int_Tables_number       1

loop_
  _symmetry_equiv_pos_as_xyz
  'x, y, z'

loop_
  _atom_site_type_symbol
  _atom_site_label
  _atom_site_symmetry_multiplicity
  _atom_site_fract_x
  _atom_site_fract_y
  _atom_site_fract_z
  _atom_site_occupancy
  _atom_site_charge
Fe  Fe1       1.0  0.62879  0.62879  0.17543  1.0000 1.1615215825
Fe  Fe2       1.0  0.62879  0.17543  0.62879  1.0000 1.1615215825
Fe  Fe3       1.0  0.17543  0.62879  0.62879  1.0000 1.1615215825
Fe  Fe4       1.0  0.47589  0.57489  0.02415  1.0000 1.1615215825
Fe  Fe5       1.0  0.57489  0.02415  0.47589  1.0000 1.1615215825
Fe  Fe6       1.0  0.02415  0.47589  0.57489  1.0000 1.1615215825
Fe  Fe7       1.0  0.57489  0.47589  0.02415  1.0000 1.1615215825
Fe  Fe8       1.0  0.02415  0.57489  0.47589  1.0000 1.1615215825
Fe  Fe9       1.0  0.47589  0.02415  0.57489  1.0000 1.1615215825
H   H1        1.0  0.34000  0.59460  0.14000  1.0000 0.1292117647
H   H2        1.0  0.59460  0.14000  0.34000  1.0000 0.1292117647
H   H3        1.0  0.14000  0.34000  0.59460  1.0000 0.1292117647
H   H4        1.0  0.59460  0.34000  0.14000  1.0000 0.1292117647
H   H5        1.0  0.14000  0.59460  0.34000  1.0000 0.1292117647
H   H6        1.0  0.34000  0.14000  0.59460  1.0000 0.1292117647
H   H7        1.0  0.26740  0.58550  0.20760  1.0000 0.1109224092
H   H8        1.0  0.58550  0.20760  0.26740  1.0000 0.1109224092
H   H9        1.0  0.20760  0.26740  0.58550  1.0000 0.1109224092
H   H10       1.0  0.58550  0.26740  0.20760  1.0000 0.1109224092
H   H11       1.0  0.20760  0.58550  0.26740  1.0000 0.1109224092
H   H12       1.0  0.26740  0.20760  0.58550  1.0000 0.1109224092
H   H13       1.0  0.45150  0.64190  0.39280  1.0000 0.1109224092
H   H14       1.0  0.64190  0.39280  0.45150  1.0000 0.1109224092
H   H15       1.0  0.39280  0.45150  0.64190  1.0000 0.1109224092
H   H16       1.0  0.64190  0.45150  0.39280  1.0000 0.1109224092
H   H17       1.0  0.39280  0.64190  0.45150  1.0000 0.1109224092
H   H18       1.0  0.45150  0.39280  0.64190  1.0000 0.1109224092
H   H19       1.0  0.52380  0.64880  0.32380  1.0000 0.1179041385
H   H20       1.0  0.64880  0.32380  0.52380  1.0000 0.1179041385
H   H21       1.0  0.32380  0.52380  0.64880  1.0000 0.1179041385
H   H22       1.0  0.64880  0.52380  0.32380  1.0000 0.1179041385
H   H23       1.0  0.32380  0.64880  0.52380  1.0000 0.1179041385
H   H24       1.0  0.52380  0.32380  0.64880  1.0000 0.1179041385
H   H25       1.0  0.83680  0.73570  0.17800  1.0000 0.1292117647
H   H26       1.0  0.73570  0.17800  0.83680  1.0000 0.1292117647
H   H27       1.0  0.17800  0.83680  0.73570  1.0000 0.1292117647
H   H28       1.0  0.73570  0.83680  0.17800  1.0000 0.1292117647
H   H29       1.0  0.17800  0.73570  0.83680  1.0000 0.1292117647
H   H30       1.0  0.83680  0.17800  0.73570  1.0000 0.1292117647
H   H31       1.0  0.94780  0.78810  0.16520  1.0000 0.1179041385
H   H32       1.0  0.78810  0.16520  0.94780  1.0000 0.1179041385
H   H33       1.0  0.16520  0.94780  0.78810  1.0000 0.1179041385
H   H34       1.0  0.78810  0.94780  0.16520  1.0000 0.1179041385
H   H35       1.0  0.16520  0.78810  0.94780  1.0000 0.1179041385
H   H36       1.0  0.94780  0.16520  0.78810  1.0000 0.1179041385
H   H37       1.0  0.89350  0.58870  0.00010  1.0000 0.1109224092
H   H38       1.0  0.58870  0.00010  0.89350  1.0000 0.1109224092
H   H39       1.0  0.00010  0.89350  0.58870  1.0000 0.1109224092
H   H40       1.0  0.58870  0.89350  0.00010  1.0000 0.1109224092
H   H41       1.0  0.00010  0.58870  0.89350  1.0000 0.1109224092
H   H42       1.0  0.89350  0.00010  0.58870  1.0000 0.1109224092
H   H43       1.0  0.78380  0.53620  0.01260  1.0000 0.1292117647
H   H44       1.0  0.53620  0.01260  0.78380  1.0000 0.1292117647
H   H45       1.0  0.01260  0.78380  0.53620  1.0000 0.1292117647
H   H46       1.0  0.53620  0.78380  0.01260  1.0000 0.1292117647
H   H47       1.0  0.01260  0.53620  0.78380  1.0000 0.1292117647
H   H48       1.0  0.78380  0.01260  0.53620  1.0000 0.1292117647
H   H49       1.0  0.96910  0.65090  0.96910  1.0000 0.1109224092
H   H50       1.0  0.65090  0.96910  0.96910  1.0000 0.1109224092
H   H51       1.0  0.96910  0.96910  0.65090  1.0000 0.1109224092
H   H52       1.0  0.06560  0.79710  0.18810  1.0000 0.1109224092
H   H53       1.0  0.79710  0.18810  0.06560  1.0000 0.1109224092
H   H54       1.0  0.18810  0.06560  0.79710  1.0000 0.1109224092
H   H55       1.0  0.79710  0.06560  0.18810  1.0000 0.1109224092
H   H56       1.0  0.18810  0.79710  0.06560  1.0000 0.1109224092
H   H57       1.0  0.06560  0.18810  0.79710  1.0000 0.1109224092
H   H58       1.0  0.15710  0.85330  0.28010  1.0000 0.1109224092
H   H59       1.0  0.85330  0.28010  0.15710  1.0000 0.1179041385
H   H60       1.0  0.28010  0.15710  0.85330  1.0000 0.1179041385
H   H61       1.0  0.85330  0.15710  0.28010  1.0000 0.1179041385
H   H62       1.0  0.28010  0.85330  0.15710  1.0000 0.1179041385
H   H63       1.0  0.15710  0.28010  0.85330  1.0000 0.1179041385
H   H64       1.0  0.26720  0.91910  0.38980  1.0000 0.1292117647
H   H65       1.0  0.91910  0.38980  0.26720  1.0000 0.1292117647
H   H66       1.0  0.38980  0.26720  0.91910  1.0000 0.1292117647
H   H67       1.0  0.91910  0.26720  0.38980  1.0000 0.1292117647
H   H68       1.0  0.38980  0.91910  0.26720  1.0000 0.1292117647
H   H69       1.0  0.26720  0.38980  0.91910  1.0000 0.1292117647
H   H70       1.0  0.47780  0.60000  0.82730  1.0000 0.1292117647
H   H71       1.0  0.60000  0.82730  0.47780  1.0000 0.1292117647
H   H72       1.0  0.82730  0.47780  0.60000  1.0000 0.1292117647
H   H73       1.0  0.60000  0.47780  0.82730  1.0000 0.1292117647
H   H74       1.0  0.82730  0.60000  0.47780  1.0000 0.1292117647
H   H75       1.0  0.47780  0.82730  0.60000  1.0000 0.1292117647
H   H76       1.0  0.50910  0.63140  0.73610  1.0000 0.1109224092
H   H77       1.0  0.63140  0.73610  0.50910  1.0000 0.1109224092
H   H78       1.0  0.73610  0.50910  0.63140  1.0000 0.1109224092
H   H79       1.0  0.63140  0.50910  0.73610  1.0000 0.1109224092
H   H80       1.0  0.73610  0.63140  0.50910  1.0000 0.1109224092
H   H81       1.0  0.50910  0.73610  0.63140  1.0000 0.1109224092
H   H82       1.0  0.67335  0.55060  0.67335  1.0000 0.1109224092
H   H83       1.0  0.55060  0.67335  0.67335  1.0000 0.1109224092
H   H84       1.0  0.67335  0.67335  0.55060  1.0000 0.1109224092
C   C1        1.0  0.48200  0.61550  0.18050  1.0000 0.5896286256
C   C2        1.0  0.61550  0.18050  0.48200  1.0000 0.5896286256
C   C3        1.0  0.18050  0.48200  0.61550  1.0000 0.5896286256
C   C4        1.0  0.61550  0.48200  0.18050  1.0000 0.5896286256
C   C5        1.0  0.18050  0.61550  0.48200  1.0000 0.5896286256
C   C6        1.0  0.48200  0.18050  0.61550  1.0000 0.5896286256
C   C7        1.0  0.43900  0.62300  0.22530  1.0000 -0.0576333342
C   C8        1.0  0.62300  0.22530  0.43900  1.0000 -0.0576333342
C   C9        1.0  0.22530  0.43900  0.62300  1.0000 -0.0576333342
C   C10       1.0  0.62300  0.43900  0.22530  1.0000 -0.0576333342
C   C11       1.0  0.22530  0.62300  0.43900  1.0000 -0.0576333342
C   C12       1.0  0.43900  0.22530  0.62300  1.0000 -0.0576333342
C   C13       1.0  0.36260  0.60400  0.19140  1.0000 -0.0772543296
C   C14       1.0  0.60400  0.19140  0.36260  1.0000 -0.0772543296
C   C15       1.0  0.19140  0.36260  0.60400  1.0000 -0.0772543296
C   C16       1.0  0.60400  0.36260  0.19140  1.0000 -0.0772543296
C   C17       1.0  0.19140  0.60400  0.36260  1.0000 -0.0772543296
C   C18       1.0  0.36260  0.19140  0.60400  1.0000 -0.0772543296
C   C19       1.0  0.31950  0.59850  0.23130  1.0000 -0.1520942388
C   C20       1.0  0.59850  0.23130  0.31950  1.0000 -0.1520942388
C   C21       1.0  0.23130  0.31950  0.59850  1.0000 -0.1520942388
C   C22       1.0  0.59850  0.31950  0.23130  1.0000 -0.1520942388
C   C23       1.0  0.23130  0.59850  0.31950  1.0000 -0.1520942388
C   C24       1.0  0.31950  0.23130  0.59850  1.0000 -0.1520942388
C   C25       1.0  0.35260  0.61220  0.30690  1.0000 0.0886488693
C   C26       1.0  0.61220  0.30690  0.35260  1.0000 0.0886488693
C   C27       1.0  0.30690  0.35260  0.61220  1.0000 0.0886488693
C   C28       1.0  0.61220  0.35260  0.30690  1.0000 0.0886488693
C   C29       1.0  0.30690  0.61220  0.35260  1.0000 0.0886488693
C   C30       1.0  0.35260  0.30690  0.61220  1.0000 0.0886488693
C   C31       1.0  0.42860  0.63170  0.34130  1.0000 -0.1583207877
C   C32       1.0  0.63170  0.34130  0.42860  1.0000 -0.1583207877
C   C33       1.0  0.34130  0.42860  0.63170  1.0000 -0.1583207877
C   C34       1.0  0.63170  0.42860  0.34130  1.0000 -0.1583207877
C   C35       1.0  0.34130  0.63170  0.42860  1.0000 -0.1583207877
C   C36       1.0  0.42860  0.34130  0.63170  1.0000 -0.1583207877
C   C37       1.0  0.47180  0.63640  0.30030  1.0000 -0.0742531811
C   C38       1.0  0.63640  0.30030  0.47180  1.0000 -0.0742531811
C   C39       1.0  0.30030  0.47180  0.63640  1.0000 -0.0742531811
C   C40       1.0  0.63640  0.47180  0.30030  1.0000 -0.0742531811
C   C41       1.0  0.30030  0.63640  0.47180  1.0000 -0.0742531811
C   C42       1.0  0.47180  0.30030  0.63640  1.0000 -0.0742531811
C   C43       1.0  0.73140  0.59990  0.10480  1.0000 0.5896286256
C   C44       1.0  0.59990  0.10480  0.73140  1.0000 0.5896286256
C   C45       1.0  0.10480  0.73140  0.59990  1.0000 0.5896286256
C   C46       1.0  0.59990  0.73140  0.10480  1.0000 0.5896286256
C   C47       1.0  0.10480  0.59990  0.73140  1.0000 0.5896286256
C   C48       1.0  0.73140  0.10480  0.59990  1.0000 0.5896286256
C   C49       1.0  0.79955  0.63110  0.09665  1.0000 -0.0772543296
C   C50       1.0  0.63110  0.09665  0.79955  1.0000 -0.0772543296
C   C51       1.0  0.09665  0.79955  0.63110  1.0000 -0.0772543296
C   C52       1.0  0.63110  0.79955  0.09665  1.0000 -0.0772543296
C   C53       1.0  0.09665  0.63110  0.79955  1.0000 -0.0772543296
C   C54       1.0  0.79955  0.09665  0.63110  1.0000 -0.0772543296
C   C55       1.0  0.84820  0.70580  0.14190  1.0000 -0.0742531811
C   C56       1.0  0.70580  0.14190  0.84820  1.0000 -0.0742531811
C   C57       1.0  0.14190  0.84820  0.70580  1.0000 -0.0742531811
C   C58       1.0  0.70580  0.84820  0.14190  1.0000 -0.0772543296
C   C59       1.0  0.14190  0.70580  0.84820  1.0000 -0.0742531811
C   C60       1.0  0.84820  0.14190  0.70580  1.0000 -0.0742531811
C   C61       1.0  0.91447  0.73690  0.13423  1.0000 -0.1520942388
C   C62       1.0  0.73690  0.13423  0.91447  1.0000 -0.1520942388
C   C63       1.0  0.13423  0.91447  0.73690  1.0000 -0.1520942388
C   C64       1.0  0.73690  0.91447  0.13423  1.0000 -0.1520942388
C   C65       1.0  0.13423  0.73690  0.91447  1.0000 -0.1520942388
C   C66       1.0  0.91447  0.13423  0.73690  1.0000 -0.1520942388
C   C67       1.0  0.93210  0.69380  0.08170  1.0000 0.0822184152
C   C68       1.0  0.69380  0.08170  0.93210  1.0000 0.0822184152
C   C69       1.0  0.08170  0.93210  0.69380  1.0000 0.0822184152
C   C70       1.0  0.69380  0.93210  0.08170  1.0000 0.0822184152
C   C71       1.0  0.08170  0.69380  0.93210  1.0000 0.0822184152
C   C72       1.0  0.93210  0.08170  0.69380  1.0000 0.0822184152
C   C73       1.0  0.88210  0.61870  0.03640  1.0000 -0.1520942388
C   C74       1.0  0.61870  0.03640  0.88210  1.0000 -0.1520942388
C   C75       1.0  0.03640  0.88210  0.61870  1.0000 -0.1520942388
C   C76       1.0  0.61870  0.88210  0.03640  1.0000 -0.1520942388
C   C77       1.0  0.03640  0.61870  0.88210  1.0000 -0.1520942388
C   C78       1.0  0.88210  0.03640  0.61870  1.0000 -0.1520942388
C   C79       1.0  0.81690  0.58740  0.04350  1.0000 -0.0772543296
C   C80       1.0  0.58740  0.04350  0.81690  1.0000 -0.0772543296
C   C81       1.0  0.04350  0.81690  0.58740  1.0000 -0.0772543296
C   C82       1.0  0.58740  0.81690  0.04350  1.0000 -0.0772543296
C   C83       1.0  0.04350  0.58740  0.81690  1.0000 -0.0772543296
C   C84       1.0  0.81690  0.04350  0.58740  1.0000 -0.0772543296
C   C85       1.0  0.00640  0.71950  0.07980  1.0000 0.0822184152
C   C86       1.0  0.71950  0.07980  0.00640  1.0000 0.0822184152
C   C87       1.0  0.07980  0.00640  0.71950  1.0000 0.0822184152
C   C88       1.0  0.71950  0.00640  0.07980  1.0000 0.0822184152
C   C89       1.0  0.07980  0.71950  0.00640  1.0000 0.0822184152
C   C90       1.0  0.00640  0.07980  0.71950  1.0000 0.0822184152
C   C91       1.0  0.01175  0.69040  0.01175  1.0000 -0.2058876815
C   C92       1.0  0.69040  0.01175  0.01175  1.0000 -0.2058876815
C   C93       1.0  0.01175  0.01175  0.69040  1.0000 -0.2058876815
C   C94       1.0  0.06900  0.77730  0.14180  1.0000 -0.2058876815
C   C95       1.0  0.77730  0.14180  0.06900  1.0000 -0.2058876815
C   C96       1.0  0.14180  0.06900  0.77730  1.0000 -0.2058876815
C   C97       1.0  0.77730  0.06900  0.14180  1.0000 -0.2058876815
C   C98       1.0  0.14180  0.77730  0.06900  1.0000 -0.2058876815
C   C99       1.0  0.06900  0.14180  0.77730  1.0000 -0.2058876815
C   C100      1.0  0.13645  0.80640  0.13645  1.0000 0.0822184152
C   C101      1.0  0.80640  0.13645  0.13645  1.0000 0.0822184152
C   C102      1.0  0.13645  0.13645  0.80640  1.0000 0.0822184152
C   C103      1.0  0.20795  0.84700  0.20795  1.0000 0.0886488693
C   C104      1.0  0.84700  0.20795  0.20795  1.0000 0.0886488693
C   C105      1.0  0.20795  0.20795  0.84700  1.0000 0.0886488693
C   C106      1.0  0.20441  0.86680  0.27749  1.0000 -0.1657677157
C   C107      1.0  0.86680  0.27749  0.20441  1.0000 -0.1583207877
C   C108      1.0  0.27749  0.20441  0.86680  1.0000 -0.1583207877
C   C109      1.0  0.86680  0.20441  0.27749  1.0000 -0.1583207877
C   C110      1.0  0.27749  0.86680  0.20441  1.0000 -0.1657677157
C   C111      1.0  0.20441  0.27749  0.86680  1.0000 -0.1583207877
C   C112      1.0  0.26977  0.90590  0.34253  1.0000 -0.0885475017
C   C113      1.0  0.90590  0.34253  0.26977  1.0000 -0.0885475017
C   C114      1.0  0.34253  0.26977  0.90590  1.0000 -0.0885475017
C   C115      1.0  0.90590  0.26977  0.34253  1.0000 -0.0885475017
C   C116      1.0  0.34253  0.90590  0.26977  1.0000 -0.0885475017
C   C117      1.0  0.26977  0.34253  0.90590  1.0000 -0.0885475017
C   C118      1.0  0.33950  0.92620  0.33950  1.0000 -0.0291417608
C   C119      1.0  0.92620  0.33950  0.33950  1.0000 -0.0291417608
C   C120      1.0  0.33950  0.33950  0.92620  1.0000 -0.0291417608
C   C121      1.0  0.41070  0.96680  0.41070  1.0000 0.5896286256
C   C122      1.0  0.96680  0.41070  0.41070  1.0000 0.5896286256
C   C123      1.0  0.41070  0.41070  0.96680  1.0000 0.5896286256
C   C124      1.0  0.52980  0.52980  0.90490  1.0000 0.5896286256
C   C125      1.0  0.52980  0.90490  0.52980  1.0000 0.5896286256
C   C126      1.0  0.90490  0.52980  0.52980  1.0000 0.5896286256
C   C127      1.0  0.54461  0.54461  0.84349  1.0000 -0.0474369129
C   C128      1.0  0.54461  0.84349  0.54461  1.0000 -0.0474369129
C   C129      1.0  0.84349  0.54461  0.54461  1.0000 -0.0474369129
C   C130      1.0  0.51249  0.58497  0.81184  1.0000 -0.0885475017
C   C131      1.0  0.58497  0.81184  0.51249  1.0000 -0.0885475017
C   C132      1.0  0.81184  0.51249  0.58497  1.0000 -0.0885475017
C   C133      1.0  0.58497  0.51249  0.81184  1.0000 -0.0885475017
C   C134      1.0  0.81184  0.58497  0.51249  1.0000 -0.0885475017
C   C135      1.0  0.51249  0.81184  0.58497  1.0000 -0.0885475017
C   C136      1.0  0.53085  0.60358  0.75747  1.0000 -0.1583207877
C   C137      1.0  0.60358  0.75747  0.53085  1.0000 -0.1583207877
C   C138      1.0  0.75747  0.53085  0.60358  1.0000 -0.1583207877
C   C139      1.0  0.60358  0.53085  0.75747  1.0000 -0.1583207877
C   C140      1.0  0.75747  0.60358  0.53085  1.0000 -0.1583207877
C   C141      1.0  0.53085  0.75747  0.60358  1.0000 -0.1583207877
C   C142      1.0  0.58122  0.58122  0.73456  1.0000 0.0822184152
C   C143      1.0  0.58122  0.73456  0.58122  1.0000 0.0822184152
C   C144      1.0  0.73456  0.58122  0.58122  1.0000 0.0822184152
C   C145      1.0  0.60804  0.60804  0.68107  1.0000 0.0886488693
C   C146      1.0  0.60804  0.68107  0.60804  1.0000 0.0886488693
C   C147      1.0  0.68107  0.60804  0.60804  1.0000 0.0886488693
C   C148      1.0  0.65672  0.58375  0.65672  1.0000 -0.2058876815
C   C149      1.0  0.58375  0.65672  0.65672  1.0000 -0.2058876815
C   C150      1.0  0.65672  0.65672  0.58375  1.0000 -0.2058876815
O   O1        1.0  0.54768  0.63221  0.21031  1.0000 -0.4935729765
O   O2        1.0  0.63221  0.21031  0.54768  1.0000 -0.4935729765
O   O3        1.0  0.21031  0.54768  0.63221  1.0000 -0.4935729765
O   O4        1.0  0.63221  0.54768  0.21031  1.0000 -0.4935729765
O   O5        1.0  0.21031  0.63221  0.54768  1.0000 -0.4935729765
O   O6        1.0  0.54768  0.21031  0.63221  1.0000 -0.4935729765
O   O7        1.0  0.44588  0.59602  0.10920  1.0000 -0.5465152028
O   O8        1.0  0.59602  0.10920  0.44588  1.0000 -0.5465152028
O   O9        1.0  0.10920  0.44588  0.59602  1.0000 -0.5465152028
O   O10       1.0  0.59602  0.44588  0.10920  1.0000 -0.5465152028
O   O11       1.0  0.10920  0.59602  0.44588  1.0000 -0.5465152028
O   O12       1.0  0.44588  0.10920  0.59602  1.0000 -0.5465152028
O   O13       1.0  0.72063  0.63895  0.15641  1.0000 -0.5238191895
O   O14       1.0  0.63895  0.15641  0.72063  1.0000 -0.5238191895
O   O15       1.0  0.15641  0.72063  0.63895  1.0000 -0.5238191895
O   O16       1.0  0.63895  0.72063  0.15641  1.0000 -0.5238191895
O   O17       1.0  0.15641  0.63895  0.72063  1.0000 -0.5238191895
O   O18       1.0  0.72063  0.15641  0.63895  1.0000 -0.5238191895
O   O19       1.0  0.68594  0.53699  0.05777  1.0000 -0.5111936343
O   O20       1.0  0.53699  0.05777  0.68594  1.0000 -0.5111936343
O   O21       1.0  0.05777  0.68594  0.53699  1.0000 -0.5111936343
O   O22       1.0  0.53699  0.68594  0.05777  1.0000 -0.5111936343
O   O23       1.0  0.05777  0.53699  0.68594  1.0000 -0.5111936343
O   O24       1.0  0.68594  0.05777  0.53699  1.0000 -0.5111936343
O   O25       1.0  0.40249  0.98330  0.47021  1.0000 -0.529039414
O   O26       1.0  0.98330  0.47021  0.40249  1.0000 -0.529039414
O   O27       1.0  0.47021  0.40249  0.98330  1.0000 -0.529039414
O   O28       1.0  0.98330  0.40249  0.47021  1.0000 -0.529039414
O   O29       1.0  0.47021  0.98330  0.40249  1.0000 -0.529039414
O   O30       1.0  0.40249  0.47021  0.98330  1.0000 -0.529039414
O   O31       1.0  0.49115  0.55906  0.93079  1.0000 -0.5465152028
O   O32       1.0  0.55906  0.93079  0.49115  1.0000 -0.5465152028
O   O33       1.0  0.93079  0.49115  0.55906  1.0000 -0.5465152028
O   O34       1.0  0.55906  0.49115  0.93079  1.0000 -0.5465152028
O   O35       1.0  0.93079  0.55906  0.49115  1.0000 -0.5465152028
O   O36       1.0  0.49115  0.93079  0.55906  1.0000 -0.5465152028
O   O37       1.0  0.56079  0.56079  0.07392  1.0000 -0.8986354384
O   O38       1.0  0.56079  0.07392  0.56079  1.0000 -0.8986354384
O   O39       1.0  0.07392  0.56079  0.56079  1.0000 -0.8986354384
