# DDEC6 charges by PACMAN v1.1 (https://github.com/mtap-research/PACMAN-charge/)
data_2014[Zn][pcu]3[ASR]21
_chemical_formula_sum              "Zn16 H72 C144 O52"
_cell_length_a       19.278
_cell_length_b       19.593
_cell_length_c       20.046
_cell_angle_alpha    70.65
_cell_angle_beta     70.05
_cell_angle_gamma    69.86

_symmetry_space_group_name_H-M    "P 1"
_symmetry_Int_Tables_number       1

loop_
  _symmetry_equiv_pos_as_xyz
  'x, y, z'

loop_
  _atom_site_type_symbol
  _atom_site_label
  _atom_site_symmetry_multiplicity
  _atom_site_fract_x
  _atom_site_fract_y
  _atom_site_fract_z
  _atom_site_occupancy
  _atom_site_charge
Zn  Zn1       1.0  0.81245  0.45828  0.92348  1.0000 0.9645387182
Zn  Zn2       1.0  0.79300  0.60533  0.79197  1.0000 0.9415816061
Zn  Zn3       1.0  0.94205  0.46929  0.77525  1.0000 0.9415816061
Zn  Zn4       1.0  0.78338  0.45318  0.77593  1.0000 0.9485738525
Zn  Zn5       1.0  0.36383  0.88248  0.33542  1.0000 0.9700037787
Zn  Zn6       1.0  0.22050  0.02741  0.34781  1.0000 0.9485738525
Zn  Zn7       1.0  0.37458  0.03748  0.35773  1.0000 0.9415816061
Zn  Zn8       1.0  0.35562  0.03428  0.21118  1.0000 0.9318089137
Zn  Zn9       1.0  0.18755  0.54172  0.07652  1.0000 0.9700037787
Zn  Zn10      1.0  0.20700  0.39467  0.20803  1.0000 0.9415816061
Zn  Zn11      1.0  0.05795  0.53071  0.22475  1.0000 0.9415816061
Zn  Zn12      1.0  0.21662  0.54682  0.22407  1.0000 0.9485738525
Zn  Zn13      1.0  0.63617  0.11752  0.66458  1.0000 0.9763915786
Zn  Zn14      1.0  0.77950  0.97259  0.65219  1.0000 0.9415816061
Zn  Zn15      1.0  0.62542  0.96252  0.64227  1.0000 0.9415816061
Zn  Zn16      1.0  0.64438  0.96572  0.78882  1.0000 0.9318089137
H   H1        1.0  0.96720  0.86240  0.62370  1.0000 0.1282994714
H   H2        1.0  0.90430  0.77180  0.70430  1.0000 0.1216800308
H   H3        1.0  0.09020  0.60770  0.64190  1.0000 0.1216800308
H   H4        1.0  0.07850  0.89440  0.53340  1.0000 0.1282994714
H   H5        1.0  0.26440  0.73020  0.47100  1.0000 0.1216800308
H   H6        1.0  0.20150  0.63960  0.55150  1.0000 0.1216800308
H   H7        1.0  0.52780  0.25980  0.95380  1.0000 0.1216800308
H   H8        1.0  0.60970  0.33420  0.88290  1.0000 0.1216800308
H   H9        1.0  0.67350  0.32300  0.05910  1.0000 0.1216800308
H   H10       1.0  0.47110  0.18750  0.07850  1.0000 0.1216800308
H   H11       1.0  0.53800  0.17520  0.25400  1.0000 0.1216800308
H   H12       1.0  0.61860  0.24720  0.18140  1.0000 0.1216800308
H   H13       1.0  0.95410  0.23720  0.54330  1.0000 0.1216800308
H   H14       1.0  0.88220  0.30340  0.62890  1.0000 0.1216800308
H   H15       1.0  0.06940  0.33090  0.64840  1.0000 0.1282994714
H   H16       1.0  0.08110  0.17010  0.47850  1.0000 0.1216800308
H   H17       1.0  0.27380  0.18870  0.50210  1.0000 0.1216800308
H   H18       1.0  0.20260  0.26980  0.57200  1.0000 0.1282994714
H   H19       1.0  0.59930  0.63750  0.17120  1.0000 0.1282994714
H   H20       1.0  0.67710  0.56990  0.08850  1.0000 0.1282994714
H   H21       1.0  0.68470  0.75830  0.92470  1.0000 0.1370184967
H   H22       1.0  0.53570  0.76190  0.19970  1.0000 0.1282994714
H   H23       1.0  0.53520  0.95050  0.03750  1.0000 0.1216800308
H   H24       1.0  0.61810  0.88330  0.95440  1.0000 0.1282994714
H   H25       1.0  0.59590  0.62770  0.52230  1.0000 0.1216800308
H   H26       1.0  0.66650  0.55730  0.60660  1.0000 0.1216800308
H   H27       1.0  0.63400  0.74620  0.66850  1.0000 0.1282994714
H   H28       1.0  0.51780  0.74800  0.46500  1.0000 0.1282994714
H   H29       1.0  0.48790  0.93450  0.52490  1.0000 0.1282994714
H   H30       1.0  0.55040  0.86620  0.61360  1.0000 0.1282994714
H   H31       1.0  0.20850  0.23740  0.93590  1.0000 0.1216800308
H   H32       1.0  0.12700  0.32410  0.87150  1.0000 0.1216800308
H   H33       1.0  0.94370  0.29150  0.03850  1.0000 0.1282994714
H   H34       1.0  0.22700  0.16230  0.06120  1.0000 0.1216800308
H   H35       1.0  0.04230  0.13850  0.23480  1.0000 0.1216800308
H   H36       1.0  0.96290  0.21420  0.16130  1.0000 0.1216800308
H   H37       1.0  0.03280  0.13760  0.37630  1.0000 0.1282994714
H   H38       1.0  0.09570  0.22820  0.29570  1.0000 0.1282994714
H   H39       1.0  0.90980  0.39230  0.35810  1.0000 0.1216800308
H   H40       1.0  0.92150  0.10560  0.46660  1.0000 0.1282994714
H   H41       1.0  0.73560  0.26980  0.52900  1.0000 0.1216800308
H   H42       1.0  0.79850  0.36040  0.44850  1.0000 0.1216800308
H   H43       1.0  0.47220  0.74020  0.04620  1.0000 0.1216800308
H   H44       1.0  0.39030  0.66580  0.11710  1.0000 0.1216800308
H   H45       1.0  0.32650  0.67700  0.94090  1.0000 0.1216800308
H   H46       1.0  0.52890  0.81250  0.92150  1.0000 0.1216800308
H   H47       1.0  0.46200  0.82480  0.74600  1.0000 0.1216800308
H   H48       1.0  0.38140  0.75280  0.81860  1.0000 0.1216800308
H   H49       1.0  0.04590  0.76280  0.45670  1.0000 0.1216800308
H   H50       1.0  0.11780  0.69660  0.37110  1.0000 0.1216800308
H   H51       1.0  0.93060  0.66910  0.35160  1.0000 0.1282994714
H   H52       1.0  0.91890  0.82990  0.52150  1.0000 0.1216800308
H   H53       1.0  0.72620  0.81130  0.49790  1.0000 0.1216800308
H   H54       1.0  0.79740  0.73020  0.42800  1.0000 0.1282994714
H   H55       1.0  0.40070  0.36250  0.82880  1.0000 0.1282994714
H   H56       1.0  0.32290  0.43010  0.91150  1.0000 0.1282994714
H   H57       1.0  0.31530  0.24170  0.07530  1.0000 0.1370184967
H   H58       1.0  0.46430  0.23810  0.80030  1.0000 0.1282994714
H   H59       1.0  0.46480  0.04950  0.96250  1.0000 0.1216800308
H   H60       1.0  0.38190  0.11670  0.04560  1.0000 0.1282994714
H   H61       1.0  0.40410  0.37230  0.47770  1.0000 0.1216800308
H   H62       1.0  0.33350  0.44270  0.39340  1.0000 0.1216800308
H   H63       1.0  0.36600  0.25380  0.33150  1.0000 0.1282994714
H   H64       1.0  0.48220  0.25200  0.53500  1.0000 0.1282994714
H   H65       1.0  0.51210  0.06550  0.47510  1.0000 0.1282994714
H   H66       1.0  0.44960  0.13380  0.38640  1.0000 0.1282994714
H   H67       1.0  0.79150  0.76260  0.06410  1.0000 0.1216800308
H   H68       1.0  0.87300  0.67590  0.12850  1.0000 0.1216800308
H   H69       1.0  0.05630  0.70850  0.96150  1.0000 0.1282994714
H   H70       1.0  0.77300  0.83770  0.93880  1.0000 0.1216800308
H   H71       1.0  0.95770  0.86150  0.76520  1.0000 0.1216800308
H   H72       1.0  0.03710  0.78580  0.83870  1.0000 0.1216800308
C   C1        1.0  0.99220  0.81070  0.62740  1.0000 -0.1489489515
C   C2        1.0  0.95480  0.75690  0.67530  1.0000 -0.0907927317
C   C3        1.0  0.99130  0.68130  0.68070  1.0000 -0.0490979361
C   C4        1.0  0.06520  0.65940  0.63820  1.0000 -0.1489489515
C   C5        1.0  0.10260  0.71320  0.59030  1.0000 0.0705394821
C   C6        1.0  0.06610  0.78890  0.58500  1.0000 0.0705394821
C   C7        1.0  0.10350  0.84270  0.53710  1.0000 -0.157860761
C   C8        1.0  0.17740  0.82080  0.49460  1.0000 -0.0399922644
C   C9        1.0  0.21390  0.74520  0.50000  1.0000 -0.098483361
C   C10       1.0  0.17650  0.69140  0.54790  1.0000 -0.1489489515
C   C11       1.0  0.94550  0.62750  0.72170  1.0000 0.5916365111
C   C12       1.0  0.21280  0.88190  0.44130  1.0000 0.5992883766
C   C13       1.0  0.55730  0.27180  0.97570  1.0000 -0.1662261834
C   C14       1.0  0.60650  0.31500  0.93380  1.0000 -0.0907927317
C   C15       1.0  0.65340  0.33170  0.96530  1.0000 -0.0399922644
C   C16       1.0  0.64500  0.30820  0.03850  1.0000 -0.1327704409
C   C17       1.0  0.59790  0.26430  0.08400  1.0000 0.0780806296
C   C18       1.0  0.55030  0.24480  0.05270  1.0000 0.0992927551
C   C19       1.0  0.50140  0.20040  0.09880  1.0000 -0.157860761
C   C20       1.0  0.49560  0.17480  0.17150  1.0000 -0.0107944732
C   C21       1.0  0.54130  0.19300  0.20310  1.0000 -0.11685734
C   C22       1.0  0.58890  0.23560  0.15940  1.0000 -0.1327704409
C   C23       1.0  0.70660  0.37790  0.91850  1.0000 0.5992883766
C   C24       1.0  0.44150  0.12670  0.21890  1.0000 0.5916365111
C   C25       1.0  0.97930  0.25450  0.56530  1.0000 -0.1383861596
C   C26       1.0  0.93610  0.29550  0.61410  1.0000 -0.098483361
C   C27       1.0  0.97230  0.32700  0.64330  1.0000 -0.0203843086
C   C28       1.0  0.04660  0.31120  0.62630  1.0000 -0.1383861596
C   C29       1.0  0.09640  0.26550  0.57590  1.0000 0.0920215223
C   C30       1.0  0.05860  0.23590  0.54510  1.0000 0.0780806296
C   C31       1.0  0.10480  0.19140  0.49820  1.0000 -0.1489489515
C   C32       1.0  0.18220  0.17570  0.47800  1.0000 -0.0107944732
C   C33       1.0  0.21970  0.20310  0.51130  1.0000 -0.098483361
C   C34       1.0  0.17770  0.24790  0.55430  1.0000 -0.1383861596
C   C35       1.0  0.92470  0.37590  0.69500  1.0000 0.5992883766
C   C36       1.0  0.22930  0.12280  0.42910  1.0000 0.5916365111
C   C37       1.0  0.61790  0.66230  0.12180  1.0000 -0.1489489515
C   C38       1.0  0.66240  0.62300  0.07290  1.0000 -0.1073632533
C   C39       1.0  0.68890  0.65800  0.99750  1.0000 -0.0107944732
C   C40       1.0  0.66840  0.73480  0.97500  1.0000 -0.157860761
C   C41       1.0  0.62420  0.77860  0.02450  1.0000 0.0705394821
C   C42       1.0  0.59840  0.74240  0.09970  1.0000 0.0705394821
C   C43       1.0  0.55020  0.78580  0.14930  1.0000 -0.1489489515
C   C44       1.0  0.52360  0.86140  0.12710  1.0000 -0.0399922644
C   C45       1.0  0.55130  0.89740  0.05290  1.0000 -0.098483361
C   C46       1.0  0.60000  0.85770  0.00350  1.0000 -0.1383861596
C   C47       1.0  0.73000  0.61240  0.94070  1.0000 0.5916365111
C   C48       1.0  0.46620  0.90660  0.17800  1.0000 0.5916365111
C   C49       1.0  0.60330  0.65190  0.55240  1.0000 -0.1489489515
C   C50       1.0  0.64530  0.60960  0.60240  1.0000 -0.1073632533
C   C51       1.0  0.65680  0.64540  0.64820  1.0000 -0.0399922644
C   C52       1.0  0.62560  0.72160  0.63940  1.0000 -0.1489489515
C   C53       1.0  0.58280  0.76320  0.59030  1.0000 0.0780806296
C   C54       1.0  0.57150  0.72800  0.54420  1.0000 0.0780806296
C   C55       1.0  0.52740  0.77160  0.49420  1.0000 -0.1489489515
C   C56       1.0  0.49780  0.84760  0.48660  1.0000 -0.0203843086
C   C57       1.0  0.50820  0.88190  0.53050  1.0000 -0.098483361
C   C58       1.0  0.54690  0.84150  0.58180  1.0000 -0.1327704409
C   C59       1.0  0.70390  0.60180  0.70090  1.0000 0.5916365111
C   C60       1.0  0.45120  0.89250  0.43120  1.0000 0.5992883766
C   C61       1.0  0.15550  0.25040  0.95940  1.0000 -0.1489489515
C   C62       1.0  0.10620  0.30040  0.92060  1.0000 -0.098483361
C   C63       1.0  0.02840  0.31920  0.94710  1.0000 -0.0203843086
C   C64       1.0  0.99750  0.28260  0.01920  1.0000 -0.1767286411
C   C65       1.0  0.04810  0.23140  0.06350  1.0000 0.0920215223
C   C66       1.0  0.12940  0.21680  0.03530  1.0000 0.0705394821
C   C67       1.0  0.17310  0.17350  0.08070  1.0000 -0.1327704409
C   C68       1.0  0.14560  0.14420  0.15300  1.0000 -0.0490979361
C   C69       1.0  0.06270  0.15920  0.18460  1.0000 -0.098483361
C   C70       1.0  0.01670  0.20230  0.14130  1.0000 -0.1489489515
C   C71       1.0  0.97320  0.37120  0.90140  1.0000 0.5916365111
C   C72       1.0  0.19720  0.09730  0.19990  1.0000 0.5916365111
C   C73       1.0  0.00780  0.18930  0.37260  1.0000 -0.1489489515
C   C74       1.0  0.04520  0.24310  0.32470  1.0000 -0.0907927317
C   C75       1.0  0.00870  0.31870  0.31930  1.0000 -0.0490979361
C   C76       1.0  0.93480  0.34060  0.36180  1.0000 -0.1489489515
C   C77       1.0  0.89740  0.28680  0.40970  1.0000 0.0705394821
C   C78       1.0  0.93390  0.21110  0.41500  1.0000 0.0705394821
C   C79       1.0  0.89650  0.15730  0.46290  1.0000 -0.157860761
C   C80       1.0  0.82260  0.17920  0.50540  1.0000 -0.0399922644
C   C81       1.0  0.78610  0.25480  0.50000  1.0000 -0.098483361
C   C82       1.0  0.82350  0.30860  0.45210  1.0000 -0.1489489515
C   C83       1.0  0.05450  0.37250  0.27830  1.0000 0.5916365111
C   C84       1.0  0.78720  0.11810  0.55870  1.0000 0.5992883766
C   C85       1.0  0.44270  0.72820  0.02430  1.0000 -0.1662261834
C   C86       1.0  0.39350  0.68500  0.06620  1.0000 -0.0907927317
C   C87       1.0  0.34660  0.66830  0.03470  1.0000 -0.0399922644
C   C88       1.0  0.35500  0.69180  0.96150  1.0000 -0.1327704409
C   C89       1.0  0.40210  0.73570  0.91600  1.0000 0.0780806296
C   C90       1.0  0.44970  0.75520  0.94730  1.0000 0.0992927551
C   C91       1.0  0.49860  0.79960  0.90120  1.0000 -0.157860761
C   C92       1.0  0.50440  0.82520  0.82850  1.0000 -0.0107944732
C   C93       1.0  0.45870  0.80700  0.79690  1.0000 -0.11685734
C   C94       1.0  0.41110  0.76440  0.84060  1.0000 -0.1327704409
C   C95       1.0  0.29340  0.62210  0.08150  1.0000 0.5992883766
C   C96       1.0  0.55850  0.87330  0.78110  1.0000 0.5916365111
C   C97       1.0  0.02070  0.74550  0.43470  1.0000 -0.1383861596
C   C98       1.0  0.06390  0.70450  0.38590  1.0000 -0.098483361
C   C99       1.0  0.02770  0.67300  0.35670  1.0000 -0.0203843086
C   C100      1.0  0.95340  0.68880  0.37370  1.0000 -0.1383861596
C   C101      1.0  0.90360  0.73450  0.42410  1.0000 0.0920215223
C   C102      1.0  0.94140  0.76410  0.45490  1.0000 0.0780806296
C   C103      1.0  0.89520  0.80860  0.50180  1.0000 -0.1489489515
C   C104      1.0  0.81780  0.82430  0.52200  1.0000 -0.0107944732
C   C105      1.0  0.78030  0.79690  0.48870  1.0000 -0.098483361
C   C106      1.0  0.82230  0.75210  0.44570  1.0000 -0.1383861596
C   C107      1.0  0.07530  0.62410  0.30500  1.0000 0.5992883766
C   C108      1.0  0.77070  0.87720  0.57090  1.0000 0.5916365111
C   C109      1.0  0.38210  0.33770  0.87820  1.0000 -0.1489489515
C   C110      1.0  0.33760  0.37700  0.92710  1.0000 -0.1073632533
C   C111      1.0  0.31110  0.34200  0.00250  1.0000 -0.0107944732
C   C112      1.0  0.33160  0.26520  0.02500  1.0000 -0.157860761
C   C113      1.0  0.37580  0.22140  0.97550  1.0000 0.0705394821
C   C114      1.0  0.40160  0.25760  0.90030  1.0000 0.0705394821
C   C115      1.0  0.44980  0.21420  0.85070  1.0000 -0.1489489515
C   C116      1.0  0.47640  0.13860  0.87290  1.0000 -0.0399922644
C   C117      1.0  0.44870  0.10260  0.94710  1.0000 -0.098483361
C   C118      1.0  0.40000  0.14230  0.99650  1.0000 -0.1383861596
C   C119      1.0  0.27000  0.38760  0.05930  1.0000 0.5916365111
C   C120      1.0  0.53380  0.09340  0.82200  1.0000 0.5916365111
C   C121      1.0  0.39670  0.34810  0.44760  1.0000 -0.1489489515
C   C122      1.0  0.35470  0.39040  0.39760  1.0000 -0.1073632533
C   C123      1.0  0.34320  0.35460  0.35180  1.0000 -0.0399922644
C   C124      1.0  0.37440  0.27840  0.36060  1.0000 -0.1489489515
C   C125      1.0  0.41720  0.23680  0.40970  1.0000 0.0780806296
C   C126      1.0  0.42850  0.27200  0.45580  1.0000 0.0780806296
C   C127      1.0  0.47260  0.22840  0.50580  1.0000 -0.1489489515
C   C128      1.0  0.50220  0.15240  0.51340  1.0000 -0.0203843086
C   C129      1.0  0.49180  0.11810  0.46950  1.0000 -0.098483361
C   C130      1.0  0.45310  0.15850  0.41820  1.0000 -0.1327704409
C   C131      1.0  0.29610  0.39820  0.29910  1.0000 0.5916365111
C   C132      1.0  0.54880  0.10750  0.56880  1.0000 0.5992883766
C   C133      1.0  0.84450  0.74960  0.04060  1.0000 -0.1489489515
C   C134      1.0  0.89380  0.69960  0.07940  1.0000 -0.098483361
C   C135      1.0  0.97160  0.68080  0.05290  1.0000 -0.0203843086
C   C136      1.0  0.00250  0.71740  0.98080  1.0000 -0.1767286411
C   C137      1.0  0.95190  0.76860  0.93650  1.0000 0.0992927551
C   C138      1.0  0.87060  0.78320  0.96470  1.0000 0.0705394821
C   C139      1.0  0.82690  0.82650  0.91930  1.0000 -0.1327704409
C   C140      1.0  0.85440  0.85580  0.84700  1.0000 -0.0490979361
C   C141      1.0  0.93730  0.84080  0.81540  1.0000 -0.098483361
C   C142      1.0  0.98330  0.79770  0.85870  1.0000 -0.1489489515
C   C143      1.0  0.02680  0.62880  0.09860  1.0000 0.5916365111
C   C144      1.0  0.80280  0.90270  0.80010  1.0000 0.5916365111
O   O1        1.0  0.83110  0.49630  0.81630  1.0000 -1.0266113629
O   O2        1.0  0.32980  0.99480  0.31480  1.0000 -1.0181036343
O   O3        1.0  0.87310  0.65710  0.73720  1.0000 -0.549345847
O   O4        1.0  0.97650  0.55810  0.73830  1.0000 -0.549345847
O   O5        1.0  0.17220  0.95050  0.42130  1.0000 -0.5702221997
O   O6        1.0  0.28120  0.85590  0.41840  1.0000 -0.5215101948
O   O7        1.0  0.71350  0.39610  0.84820  1.0000 -0.549345847
O   O8        1.0  0.73970  0.40000  0.94940  1.0000 -0.549345847
O   O9        1.0  0.39840  0.11860  0.18780  1.0000 -0.549345847
O   O10       1.0  0.44170  0.09870  0.28380  1.0000 -0.5303229044
O   O11       1.0  0.85580  0.38690  0.71390  1.0000 -0.4778739264
O   O12       1.0  0.96040  0.41180  0.71100  1.0000 -0.5702221997
O   O13       1.0  0.19300  0.10550  0.39810  1.0000 -0.5424054613
O   O14       1.0  0.30000  0.10360  0.41820  1.0000 -0.5303229044
O   O15       1.0  0.75320  0.54230  0.96530  1.0000 -0.564312175
O   O16       1.0  0.74190  0.64680  0.87610  1.0000 -0.5215101948
O   O17       1.0  0.45230  0.87630  0.24540  1.0000 -0.564312175
O   O18       1.0  0.43360  0.97330  0.14990  1.0000 -0.5303229044
O   O19       1.0  0.72500  0.53050  0.71100  1.0000 -0.549345847
O   O20       1.0  0.72220  0.63770  0.73160  1.0000 -0.549345847
O   O21       1.0  0.43370  0.85920  0.39900  1.0000 -0.5215101948
O   O22       1.0  0.43450  0.96430  0.42140  1.0000 -0.549345847
O   O23       1.0  0.00370  0.40330  0.83930  1.0000 -0.5136024307
O   O24       1.0  0.90480  0.37640  0.93090  1.0000 -0.549345847
O   O25       1.0  0.27090  0.08090  0.16840  1.0000 -0.5702221997
O   O26       1.0  0.16990  0.07890  0.26920  1.0000 -0.549345847
O   O27       1.0  0.16890  0.50370  0.18370  1.0000 -1.0266113629
O   O28       1.0  0.67020  0.00520  0.68520  1.0000 -1.0181036343
O   O29       1.0  0.12690  0.34290  0.26280  1.0000 -0.549345847
O   O30       1.0  0.02350  0.44190  0.26170  1.0000 -0.549345847
O   O31       1.0  0.82780  0.04950  0.57870  1.0000 -0.5702221997
O   O32       1.0  0.71880  0.14410  0.58160  1.0000 -0.5215101948
O   O33       1.0  0.28650  0.60390  0.15180  1.0000 -0.549345847
O   O34       1.0  0.26030  0.60000  0.05060  1.0000 -0.549345847
O   O35       1.0  0.60160  0.88140  0.81220  1.0000 -0.549345847
O   O36       1.0  0.55830  0.90130  0.71620  1.0000 -0.5303229044
O   O37       1.0  0.14420  0.61310  0.28610  1.0000 -0.4746548286
O   O38       1.0  0.03960  0.58820  0.28900  1.0000 -0.5702221997
O   O39       1.0  0.80700  0.89450  0.60190  1.0000 -0.5424054613
O   O40       1.0  0.70000  0.89640  0.58180  1.0000 -0.5303229044
O   O41       1.0  0.24680  0.45770  0.03470  1.0000 -0.564312175
O   O42       1.0  0.25810  0.35320  0.12390  1.0000 -0.5136024307
O   O43       1.0  0.54770  0.12370  0.75460  1.0000 -0.5702221997
O   O44       1.0  0.56640  0.02670  0.85010  1.0000 -0.5303229044
O   O45       1.0  0.27500  0.46950  0.28900  1.0000 -0.549345847
O   O46       1.0  0.27780  0.36230  0.26840  1.0000 -0.549345847
O   O47       1.0  0.56630  0.14080  0.60100  1.0000 -0.5215101948
O   O48       1.0  0.56550  0.03570  0.57860  1.0000 -0.549345847
O   O49       1.0  0.99630  0.59670  0.16070  1.0000 -0.5136024307
O   O50       1.0  0.09520  0.62360  0.06910  1.0000 -0.549345847
O   O51       1.0  0.72910  0.91910  0.83160  1.0000 -0.5702221997
O   O52       1.0  0.83010  0.92110  0.73080  1.0000 -0.549345847
