# DDEC6 charges by PACMAN v1.1 (https://github.com/mtap-research/PACMAN-charge/)
data_2014[Cd][nan]3[ASR]1
_chemical_formula_sum              "Cd8 H88 C176 O32"
_cell_length_a       7.151
_cell_length_b       24.8988
_cell_length_c       28.6097
_cell_angle_alpha    90
_cell_angle_beta     93.406
_cell_angle_gamma    90

_symmetry_space_group_name_H-M    "P 1"
_symmetry_Int_Tables_number       1

loop_
  _symmetry_equiv_pos_as_xyz
  'x, y, z'

loop_
  _atom_site_type_symbol
  _atom_site_label
  _atom_site_symmetry_multiplicity
  _atom_site_fract_x
  _atom_site_fract_y
  _atom_site_fract_z
  _atom_site_occupancy
  _atom_site_charge
Cd  Cd1       1.0  0.18239  0.57779  0.74311  1.0000 0.9656063725
Cd  Cd2       1.0  0.81761  0.42221  0.25689  1.0000 0.9656063725
Cd  Cd3       1.0  0.81761  0.07779  0.75689  1.0000 0.9656063725
Cd  Cd4       1.0  0.18239  0.92221  0.24311  1.0000 0.9656063725
Cd  Cd5       1.0  0.61631  0.54865  0.73716  1.0000 1.056960832
Cd  Cd6       1.0  0.38369  0.45135  0.26284  1.0000 1.056960832
Cd  Cd7       1.0  0.38369  0.04865  0.76284  1.0000 1.056960832
Cd  Cd8       1.0  0.61631  0.95135  0.23716  1.0000 1.056960832
H   H1        1.0  0.66613  0.49849  0.85734  1.0000 0.1089576062
H   H2        1.0  0.33387  0.50151  0.14266  1.0000 0.1089576062
H   H3        1.0  0.33387  0.99849  0.64266  1.0000 0.1089576062
H   H4        1.0  0.66613  0.00151  0.35734  1.0000 0.1089576062
H   H5        1.0  0.77508  0.43683  0.92201  1.0000 0.1089576062
H   H6        1.0  0.22492  0.56317  0.07799  1.0000 0.1089576062
H   H7        1.0  0.22492  0.93683  0.57799  1.0000 0.1089576062
H   H8        1.0  0.77508  0.06317  0.42201  1.0000 0.1089576062
H   H9        1.0  0.22993  0.36065  0.91541  1.0000 0.1019581113
H   H10       1.0  0.77007  0.63935  0.08459  1.0000 0.1019581113
H   H11       1.0  0.77007  0.86065  0.58459  1.0000 0.1019581113
H   H12       1.0  0.22993  0.13935  0.41541  1.0000 0.1019581113
H   H13       1.0  0.12271  0.42118  0.84951  1.0000 0.1089576062
H   H14       1.0  0.87729  0.57882  0.15049  1.0000 0.1089576062
H   H15       1.0  0.87729  0.92118  0.65049  1.0000 0.1089576062
H   H16       1.0  0.12271  0.07882  0.34951  1.0000 0.1089576062
H   H17       1.0  0.34886  0.39205  0.00302  1.0000 0.1089576062
H   H18       1.0  0.65114  0.60795  0.99698  1.0000 0.1089576062
H   H19       1.0  0.65114  0.89205  0.49698  1.0000 0.1089576062
H   H20       1.0  0.34886  0.10795  0.50302  1.0000 0.1089576062
H   H21       1.0  0.12389  0.33261  0.04507  1.0000 0.1019581113
H   H22       1.0  0.87611  0.66739  0.95493  1.0000 0.1019581113
H   H23       1.0  0.87611  0.83261  0.45493  1.0000 0.1019581113
H   H24       1.0  0.12389  0.16739  0.54507  1.0000 0.1019581113
H   H25       1.0  0.93942  0.35689  0.11354  1.0000 0.1019581113
H   H26       1.0  0.06058  0.64311  0.88646  1.0000 0.1019581113
H   H27       1.0  0.06058  0.85689  0.38646  1.0000 0.1019581113
H   H28       1.0  0.93942  0.14311  0.61354  1.0000 0.1019581113
H   H29       1.0  0.45435  0.36693  0.20079  1.0000 0.1019581113
H   H30       1.0  0.54565  0.63307  0.79921  1.0000 0.1019581113
H   H31       1.0  0.54565  0.86693  0.29921  1.0000 0.1019581113
H   H32       1.0  0.45435  0.13307  0.70079  1.0000 0.1019581113
H   H33       1.0  0.63827  0.34970  0.13198  1.0000 0.1089576062
H   H34       1.0  0.36173  0.65030  0.86802  1.0000 0.1089576062
H   H35       1.0  0.36173  0.84970  0.36802  1.0000 0.1089576062
H   H36       1.0  0.63827  0.15030  0.63198  1.0000 0.1089576062
H   H37       1.0  0.60515  0.26033  0.11222  1.0000 0.1019581113
H   H38       1.0  0.39485  0.73967  0.88778  1.0000 0.1019581113
H   H39       1.0  0.39485  0.76033  0.38778  1.0000 0.1019581113
H   H40       1.0  0.60515  0.23967  0.61222  1.0000 0.1019581113
H   H41       1.0  0.85849  0.19396  0.11155  1.0000 0.1019581113
H   H42       1.0  0.14151  0.80604  0.88845  1.0000 0.1019581113
H   H43       1.0  0.14151  0.69396  0.38845  1.0000 0.1019581113
H   H44       1.0  0.85849  0.30604  0.61155  1.0000 0.1019581113
H   H45       1.0  0.79695  0.34211  0.89189  1.0000 0.1019581113
H   H46       1.0  0.20305  0.65789  0.10811  1.0000 0.1019581113
H   H47       1.0  0.20305  0.84211  0.60811  1.0000 0.1019581113
H   H48       1.0  0.79695  0.15789  0.39189  1.0000 0.1019581113
H   H49       1.0  0.05312  0.27574  0.89115  1.0000 0.1019581113
H   H50       1.0  0.94688  0.72426  0.10885  1.0000 0.1019581113
H   H51       1.0  0.94688  0.77574  0.60885  1.0000 0.1019581113
H   H52       1.0  0.05312  0.22426  0.39115  1.0000 0.1019581113
H   H53       1.0  0.30822  0.14425  0.00015  1.0000 0.1089576062
H   H54       1.0  0.69178  0.85575  0.99985  1.0000 0.1089576062
H   H55       1.0  0.69178  0.64425  0.49985  1.0000 0.1089576062
H   H56       1.0  0.30822  0.35575  0.50015  1.0000 0.1089576062
H   H57       1.0  0.86733  0.10019  0.08178  1.0000 0.1019581113
H   H58       1.0  0.13267  0.89981  0.91822  1.0000 0.1019581113
H   H59       1.0  0.13267  0.60019  0.41822  1.0000 0.1019581113
H   H60       1.0  0.86733  0.39981  0.58178  1.0000 0.1019581113
H   H61       1.0  0.97932  0.03169  0.14060  1.0000 0.1178287254
H   H62       1.0  0.02068  0.96831  0.85940  1.0000 0.1178287254
H   H63       1.0  0.02068  0.53169  0.35940  1.0000 0.1178287254
H   H64       1.0  0.97932  0.46831  0.64060  1.0000 0.1178287254
H   H65       1.0  0.53830  0.09840  0.14285  1.0000 0.1089576062
H   H66       1.0  0.46170  0.90160  0.85715  1.0000 0.1089576062
H   H67       1.0  0.46170  0.59840  0.35715  1.0000 0.1089576062
H   H68       1.0  0.53830  0.40160  0.64285  1.0000 0.1089576062
H   H69       1.0  0.42586  0.16745  0.08412  1.0000 0.1019581113
H   H70       1.0  0.57414  0.83255  0.91588  1.0000 0.1019581113
H   H71       1.0  0.57414  0.66745  0.41588  1.0000 0.1019581113
H   H72       1.0  0.42586  0.33255  0.58412  1.0000 0.1019581113
H   H73       1.0  0.53283  0.21164  0.96268  1.0000 0.1019581113
H   H74       1.0  0.46717  0.78836  0.03732  1.0000 0.1019581113
H   H75       1.0  0.46717  0.71164  0.53732  1.0000 0.1019581113
H   H76       1.0  0.53283  0.28836  0.46268  1.0000 0.1019581113
H   H77       1.0  0.73958  0.18520  0.89881  1.0000 0.1019581113
H   H78       1.0  0.26042  0.81480  0.10119  1.0000 0.1019581113
H   H79       1.0  0.26042  0.68520  0.60119  1.0000 0.1019581113
H   H80       1.0  0.73958  0.31480  0.39881  1.0000 0.1019581113
H   H81       1.0  0.24694  0.15576  0.80704  1.0000 0.1089576062
H   H82       1.0  0.75306  0.84424  0.19296  1.0000 0.1089576062
H   H83       1.0  0.75306  0.65576  0.69296  1.0000 0.1089576062
H   H84       1.0  0.24694  0.34424  0.30704  1.0000 0.1089576062
H   H85       1.0  0.04067  0.17887  0.87088  1.0000 0.1178287254
H   H86       1.0  0.95933  0.82113  0.12912  1.0000 0.1178287254
H   H87       1.0  0.95933  0.67887  0.62912  1.0000 0.1178287254
H   H88       1.0  0.04067  0.32113  0.37088  1.0000 0.1178287254
C   C1        1.0  0.32692  0.50116  0.81076  1.0000 0.5818750728
C   C2        1.0  0.67308  0.49884  0.18924  1.0000 0.5818750728
C   C3        1.0  0.67308  0.00116  0.68924  1.0000 0.5818750728
C   C4        1.0  0.32692  0.99884  0.31076  1.0000 0.5818750728
C   C5        1.0  0.38826  0.46364  0.84921  1.0000 -0.0367295341
C   C6        1.0  0.61174  0.53636  0.15079  1.0000 -0.0367295341
C   C7        1.0  0.61174  0.96364  0.65079  1.0000 -0.0367295341
C   C8        1.0  0.38826  0.03636  0.34921  1.0000 -0.0367295341
C   C9        1.0  0.57182  0.46761  0.86977  1.0000 -0.0795006945
C   C10       1.0  0.42818  0.53239  0.13023  1.0000 -0.0795006945
C   C11       1.0  0.42818  0.96761  0.63023  1.0000 -0.0795006945
C   C12       1.0  0.57182  0.03239  0.36977  1.0000 -0.0795006945
C   C13       1.0  0.63237  0.43314  0.90607  1.0000 -0.1412992891
C   C14       1.0  0.36763  0.56686  0.09393  1.0000 -0.1412992891
C   C15       1.0  0.36763  0.93314  0.59393  1.0000 -0.1412992891
C   C16       1.0  0.63237  0.06686  0.40607  1.0000 -0.1412992891
C   C17       1.0  0.50964  0.39442  0.92282  1.0000 0.0828698102
C   C18       1.0  0.49036  0.60558  0.07718  1.0000 0.0828698102
C   C19       1.0  0.49036  0.89442  0.57718  1.0000 0.0828698102
C   C20       1.0  0.50964  0.10558  0.42282  1.0000 0.0828698102
C   C21       1.0  0.32549  0.39087  0.90239  1.0000 -0.1300430036
C   C22       1.0  0.67451  0.60913  0.09761  1.0000 -0.1300430036
C   C23       1.0  0.67451  0.89087  0.59761  1.0000 -0.1300430036
C   C24       1.0  0.32549  0.10913  0.40239  1.0000 -0.1300430036
C   C25       1.0  0.26526  0.42477  0.86564  1.0000 -0.0795006945
C   C26       1.0  0.73474  0.57523  0.13436  1.0000 -0.0795006945
C   C27       1.0  0.73474  0.92477  0.63436  1.0000 -0.0795006945
C   C28       1.0  0.26526  0.07523  0.36564  1.0000 -0.0795006945
C   C29       1.0  0.56600  0.35905  0.96280  1.0000 0.0283002236
C   C30       1.0  0.43400  0.64095  0.03720  1.0000 0.0283002236
C   C31       1.0  0.43400  0.85905  0.53720  1.0000 0.0283002236
C   C32       1.0  0.56600  0.14095  0.46280  1.0000 0.0283002236
C   C33       1.0  0.46197  0.36234  0.00254  1.0000 -0.1668656956
C   C34       1.0  0.53803  0.63766  0.99746  1.0000 -0.1668656956
C   C35       1.0  0.53803  0.86234  0.49746  1.0000 -0.1668656956
C   C36       1.0  0.46197  0.13766  0.50254  1.0000 -0.1668656956
C   C37       1.0  0.50221  0.33112  0.04252  1.0000 0.024343621
C   C38       1.0  0.49779  0.66888  0.95748  1.0000 0.024343621
C   C39       1.0  0.49779  0.83112  0.45748  1.0000 0.024343621
C   C40       1.0  0.50221  0.16888  0.54252  1.0000 0.024343621
C   C41       1.0  0.39333  0.34046  0.08370  1.0000 0.0854760069
C   C42       1.0  0.60667  0.65954  0.91630  1.0000 0.0828698102
C   C43       1.0  0.60667  0.84046  0.41630  1.0000 0.0828698102
C   C44       1.0  0.39333  0.15954  0.58370  1.0000 0.0828698102
C   C45       1.0  0.19592  0.34197  0.07893  1.0000 -0.1300430036
C   C46       1.0  0.80408  0.65803  0.92107  1.0000 -0.1300430036
C   C47       1.0  0.80408  0.84197  0.42107  1.0000 -0.1300430036
C   C48       1.0  0.19592  0.15803  0.57893  1.0000 -0.1300430036
C   C49       1.0  0.09291  0.35462  0.11710  1.0000 -0.0731622226
C   C50       1.0  0.90709  0.64538  0.88290  1.0000 -0.0731622226
C   C51       1.0  0.90709  0.85462  0.38290  1.0000 -0.0731622226
C   C52       1.0  0.09291  0.14538  0.61710  1.0000 -0.0731622226
C   C53       1.0  0.18506  0.36513  0.16101  1.0000 -0.0584205318
C   C54       1.0  0.81494  0.63487  0.83899  1.0000 -0.0584205318
C   C55       1.0  0.81494  0.86513  0.33899  1.0000 -0.0584205318
C   C56       1.0  0.18506  0.13487  0.66101  1.0000 -0.0584205318
C   C57       1.0  0.06733  0.38109  0.19943  1.0000 0.5818750728
C   C58       1.0  0.93267  0.61891  0.80057  1.0000 0.5818750728
C   C59       1.0  0.93267  0.88109  0.30057  1.0000 0.5818750728
C   C60       1.0  0.06733  0.11891  0.69943  1.0000 0.5818750728
C   C61       1.0  0.38174  0.36140  0.16647  1.0000 -0.0795006945
C   C62       1.0  0.61826  0.63860  0.83353  1.0000 -0.0795006945
C   C63       1.0  0.61826  0.86140  0.33353  1.0000 -0.0795006945
C   C64       1.0  0.38174  0.13860  0.66647  1.0000 -0.0795006945
C   C65       1.0  0.48435  0.35001  0.12784  1.0000 -0.1227152023
C   C66       1.0  0.51565  0.64999  0.87216  1.0000 -0.1227152023
C   C67       1.0  0.51565  0.85001  0.37216  1.0000 -0.1227152023
C   C68       1.0  0.48435  0.14999  0.62784  1.0000 -0.1227152023
C   C69       1.0  0.64912  0.29279  0.04270  1.0000 0.024343621
C   C70       1.0  0.35088  0.70721  0.95730  1.0000 0.024343621
C   C71       1.0  0.35088  0.79279  0.45730  1.0000 0.024343621
C   C72       1.0  0.64912  0.20721  0.54270  1.0000 0.024343621
C   C73       1.0  0.68880  0.25720  0.08143  1.0000 -0.1300430036
C   C74       1.0  0.31120  0.74280  0.91857  1.0000 -0.1300430036
C   C75       1.0  0.31120  0.75720  0.41857  1.0000 -0.1300430036
C   C76       1.0  0.68880  0.24280  0.58143  1.0000 -0.1300430036
C   C77       1.0  0.82928  0.21986  0.08092  1.0000 -0.1227152023
C   C78       1.0  0.17072  0.78014  0.91908  1.0000 -0.1227152023
C   C79       1.0  0.17072  0.71986  0.41908  1.0000 -0.1227152023
C   C80       1.0  0.82928  0.28014  0.58092  1.0000 -0.1300430036
C   C81       1.0  0.93971  0.21393  0.04115  1.0000 0.0283002236
C   C82       1.0  0.06029  0.78607  0.95885  1.0000 0.0283002236
C   C83       1.0  0.06029  0.71393  0.45885  1.0000 0.0283002236
C   C84       1.0  0.93971  0.28607  0.54115  1.0000 0.0283002236
C   C85       1.0  0.90289  0.24868  0.00146  1.0000 -0.0060787628
C   C86       1.0  0.09711  0.75132  0.99854  1.0000 -0.0060787628
C   C87       1.0  0.09711  0.74868  0.49854  1.0000 -0.0060787628
C   C88       1.0  0.90289  0.25132  0.50146  1.0000 -0.0060787628
C   C89       1.0  0.75741  0.28819  0.00227  1.0000 -0.0060787628
C   C90       1.0  0.24259  0.71181  0.99773  1.0000 -0.0060787628
C   C91       1.0  0.24259  0.78819  0.49773  1.0000 -0.0060787628
C   C92       1.0  0.75741  0.21181  0.50227  1.0000 -0.0060787628
C   C93       1.0  0.71787  0.32229  0.96233  1.0000 0.0283002236
C   C94       1.0  0.28213  0.67771  0.03767  1.0000 0.0283002236
C   C95       1.0  0.28213  0.82229  0.53767  1.0000 0.0283002236
C   C96       1.0  0.71787  0.17771  0.46233  1.0000 0.0283002236
C   C97       1.0  0.82869  0.31641  0.92260  1.0000 -0.1227152023
C   C98       1.0  0.17131  0.68359  0.07740  1.0000 -0.1227152023
C   C99       1.0  0.17131  0.81641  0.57740  1.0000 -0.1227152023
C   C100      1.0  0.82869  0.18359  0.42260  1.0000 -0.1227152023
C   C101      1.0  0.97002  0.27923  0.92207  1.0000 -0.1300430036
C   C102      1.0  0.02998  0.72077  0.07793  1.0000 -0.1300430036
C   C103      1.0  0.02998  0.77923  0.57793  1.0000 -0.1300430036
C   C104      1.0  0.97002  0.22077  0.42207  1.0000 -0.1300430036
C   C105      1.0  0.01081  0.24394  0.96091  1.0000 0.0283002236
C   C106      1.0  0.98919  0.75606  0.03909  1.0000 0.024343621
C   C107      1.0  0.98919  0.74394  0.53909  1.0000 0.024343621
C   C108      1.0  0.01081  0.25606  0.46091  1.0000 0.0283002236
C   C109      1.0  0.15836  0.20592  0.96126  1.0000 0.0283002236
C   C110      1.0  0.84164  0.79408  0.03874  1.0000 0.0283002236
C   C111      1.0  0.84164  0.70592  0.53874  1.0000 0.0283002236
C   C112      1.0  0.15836  0.29408  0.46126  1.0000 0.0283002236
C   C113      1.0  0.19520  0.17395  0.00089  1.0000 -0.1668656956
C   C114      1.0  0.80480  0.82605  0.99911  1.0000 -0.1668656956
C   C115      1.0  0.80480  0.67395  0.49911  1.0000 -0.1668656956
C   C116      1.0  0.19520  0.32605  0.50089  1.0000 -0.1668656956
C   C117      1.0  0.08837  0.17618  0.04032  1.0000 0.0283002236
C   C118      1.0  0.91163  0.82382  0.95968  1.0000 0.0283002236
C   C119      1.0  0.91163  0.67618  0.45968  1.0000 0.0283002236
C   C120      1.0  0.08837  0.32382  0.54032  1.0000 0.0283002236
C   C121      1.0  0.14026  0.13852  0.07890  1.0000 0.0828698102
C   C122      1.0  0.85974  0.86148  0.92110  1.0000 0.0828698102
C   C123      1.0  0.85974  0.63852  0.42110  1.0000 0.0828698102
C   C124      1.0  0.14026  0.36148  0.57890  1.0000 0.0828698102
C   C125      1.0  0.01396  0.10053  0.09562  1.0000 -0.1412992891
C   C126      1.0  0.98604  0.89947  0.90438  1.0000 -0.1412992891
C   C127      1.0  0.98604  0.60053  0.40438  1.0000 -0.1412992891
C   C128      1.0  0.01396  0.39947  0.59562  1.0000 -0.1412992891
C   C129      1.0  0.07664  0.06174  0.12812  1.0000 -0.0795006945
C   C130      1.0  0.92336  0.93826  0.87188  1.0000 -0.0795006945
C   C131      1.0  0.92336  0.56174  0.37188  1.0000 -0.0795006945
C   C132      1.0  0.07664  0.43826  0.62812  1.0000 -0.0795006945
C   C133      1.0  0.26691  0.05967  0.14446  1.0000 -0.0367295341
C   C134      1.0  0.73309  0.94033  0.85554  1.0000 -0.0367295341
C   C135      1.0  0.73309  0.55967  0.35554  1.0000 -0.0367295341
C   C136      1.0  0.26691  0.44033  0.64446  1.0000 -0.0367295341
C   C137      1.0  0.33185  0.01468  0.17610  1.0000 0.596328915
C   C138      1.0  0.66815  0.98532  0.82390  1.0000 0.596328915
C   C139      1.0  0.66815  0.51468  0.32390  1.0000 0.5944717336
C   C140      1.0  0.33185  0.48532  0.67610  1.0000 0.596328915
C   C141      1.0  0.39161  0.09876  0.12931  1.0000 -0.0850856122
C   C142      1.0  0.60839  0.90124  0.87069  1.0000 -0.0850856122
C   C143      1.0  0.60839  0.59876  0.37069  1.0000 -0.0795006945
C   C144      1.0  0.39161  0.40124  0.62931  1.0000 -0.0850856122
C   C145      1.0  0.32847  0.13737  0.09675  1.0000 -0.1300430036
C   C146      1.0  0.67153  0.86263  0.90325  1.0000 -0.1300430036
C   C147      1.0  0.67153  0.63737  0.40325  1.0000 -0.1300430036
C   C148      1.0  0.32847  0.36263  0.59675  1.0000 -0.1300430036
C   C149      1.0  0.27441  0.19666  0.92122  1.0000 0.0828698102
C   C150      1.0  0.72559  0.80334  0.07878  1.0000 0.0828698102
C   C151      1.0  0.72559  0.69666  0.57878  1.0000 0.0828698102
C   C152      1.0  0.27441  0.30334  0.42122  1.0000 0.0828698102
C   C153      1.0  0.47143  0.19880  0.92855  1.0000 -0.1300430036
C   C154      1.0  0.52857  0.80120  0.07145  1.0000 -0.1300430036
C   C155      1.0  0.52857  0.69880  0.57145  1.0000 -0.1300430036
C   C156      1.0  0.47143  0.30120  0.42855  1.0000 -0.1300430036
C   C157      1.0  0.58621  0.18470  0.89291  1.0000 -0.0795006945
C   C158      1.0  0.41379  0.81530  0.10709  1.0000 -0.0795006945
C   C159      1.0  0.41379  0.68470  0.60709  1.0000 -0.0795006945
C   C160      1.0  0.58621  0.31530  0.39291  1.0000 -0.0795006945
C   C161      1.0  0.50535  0.16846  0.84929  1.0000 -0.0484235402
C   C162      1.0  0.49465  0.83154  0.15071  1.0000 -0.0484235402
C   C163      1.0  0.49465  0.66846  0.65071  1.0000 -0.0484235402
C   C164      1.0  0.50535  0.33154  0.34929  1.0000 -0.0484235402
C   C165      1.0  0.62609  0.14708  0.81320  1.0000 0.5818750728
C   C166      1.0  0.37391  0.85292  0.18680  1.0000 0.5748979855
C   C167      1.0  0.37391  0.64708  0.68680  1.0000 0.5748979855
C   C168      1.0  0.62609  0.35292  0.31320  1.0000 0.5818750728
C   C169      1.0  0.30820  0.16801  0.84136  1.0000 -0.0795006945
C   C170      1.0  0.69180  0.83199  0.15864  1.0000 -0.0795006945
C   C171      1.0  0.69180  0.66801  0.65864  1.0000 -0.0795006945
C   C172      1.0  0.30820  0.33199  0.34136  1.0000 -0.0795006945
C   C173      1.0  0.19340  0.18177  0.87714  1.0000 -0.1300430036
C   C174      1.0  0.80660  0.81823  0.12286  1.0000 -0.1300430036
C   C175      1.0  0.80660  0.68177  0.62286  1.0000 -0.1300430036
C   C176      1.0  0.19340  0.31823  0.37714  1.0000 -0.1300430036
O   O1        1.0  0.13347  0.40884  0.23632  1.0000 -0.5968076479
O   O2        1.0  0.86653  0.59116  0.76368  1.0000 -0.5968076479
O   O3        1.0  0.86653  0.90884  0.26368  1.0000 -0.5968076479
O   O4        1.0  0.13347  0.09116  0.73632  1.0000 -0.5968076479
O   O5        1.0  0.89454  0.36982  0.19624  1.0000 -0.5004640858
O   O6        1.0  0.10546  0.63018  0.80376  1.0000 -0.5004640858
O   O7        1.0  0.10546  0.86982  0.30376  1.0000 -0.5004640858
O   O8        1.0  0.89454  0.13018  0.69624  1.0000 -0.5004640858
O   O9        1.0  0.80226  0.14694  0.81819  1.0000 -0.5004640858
O   O10       1.0  0.19774  0.85306  0.18181  1.0000 -0.5004640858
O   O11       1.0  0.19774  0.64694  0.68181  1.0000 -0.5004640858
O   O12       1.0  0.80226  0.35306  0.31819  1.0000 -0.5004640858
O   O13       1.0  0.53909  0.12567  0.77568  1.0000 -0.6193757098
O   O14       1.0  0.46091  0.87433  0.22432  1.0000 -0.6193757098
O   O15       1.0  0.46091  0.62567  0.72432  1.0000 -0.6193757098
O   O16       1.0  0.53909  0.37433  0.27568  1.0000 -0.6193757098
O   O17       1.0  0.50670  0.01542  0.19181  1.0000 -0.5940498155
O   O18       1.0  0.49330  0.98458  0.80819  1.0000 -0.5940498155
O   O19       1.0  0.49330  0.51542  0.30819  1.0000 -0.5940498155
O   O20       1.0  0.50670  0.48458  0.69181  1.0000 -0.5940498155
O   O21       1.0  0.16222  0.49971  0.79189  1.0000 -0.5286524933
O   O22       1.0  0.83778  0.50029  0.20811  1.0000 -0.5286524933
O   O23       1.0  0.83778  0.99971  0.70811  1.0000 -0.5286524933
O   O24       1.0  0.16222  0.00029  0.29189  1.0000 -0.5286524933
O   O25       1.0  0.45053  0.53671  0.79909  1.0000 -0.6193757098
O   O26       1.0  0.54947  0.46329  0.20091  1.0000 -0.6193757098
O   O27       1.0  0.54947  0.03671  0.70091  1.0000 -0.6193757098
O   O28       1.0  0.45053  0.96329  0.29909  1.0000 -0.6193757098
O   O29       1.0  0.21112  0.97887  0.18410  1.0000 -0.5579106699
O   O30       1.0  0.78888  0.02113  0.81590  1.0000 -0.5579106699
O   O31       1.0  0.78888  0.47887  0.31590  1.0000 -0.5579106699
O   O32       1.0  0.21112  0.52113  0.68410  1.0000 -0.5579106699
