# DDEC6 charges by PACMAN v1.1 (https://github.com/mtap-research/PACMAN-charge/)
data_2014[Cu][nan]3[ASR]6
_chemical_formula_sum              "Cu24 H120 C168 N24 O120"
_cell_length_a       24.1633
_cell_length_b       24.1633
_cell_length_c       24.1633
_cell_angle_alpha    60
_cell_angle_beta     60
_cell_angle_gamma    60

_symmetry_space_group_name_H-M    "P 1"
_symmetry_Int_Tables_number       1

loop_
  _symmetry_equiv_pos_as_xyz
  'x, y, z'

loop_
  _atom_site_type_symbol
  _atom_site_label
  _atom_site_symmetry_multiplicity
  _atom_site_fract_x
  _atom_site_fract_y
  _atom_site_fract_z
  _atom_site_occupancy
  _atom_site_charge
Cu  Cu1       1.0  0.45473  0.45473  0.04527  1.0000 0.8293382197
Cu  Cu2       1.0  0.04527  0.04527  0.45473  1.0000 0.8293382197
Cu  Cu3       1.0  0.04527  0.45473  0.45473  1.0000 0.8293382197
Cu  Cu4       1.0  0.45473  0.04527  0.45473  1.0000 0.8293382197
Cu  Cu5       1.0  0.45473  0.04527  0.04527  1.0000 0.8293382197
Cu  Cu6       1.0  0.04527  0.45473  0.04527  1.0000 0.8293382197
Cu  Cu7       1.0  0.71080  0.28920  0.28920  1.0000 0.8293382197
Cu  Cu8       1.0  0.28920  0.71080  0.71080  1.0000 0.8293382197
Cu  Cu9       1.0  0.28920  0.71080  0.28920  1.0000 0.8293382197
Cu  Cu10      1.0  0.28920  0.28920  0.71080  1.0000 0.8293382197
Cu  Cu11      1.0  0.71080  0.28920  0.71080  1.0000 0.8293382197
Cu  Cu12      1.0  0.71080  0.71080  0.28920  1.0000 0.8293382197
Cu  Cu13      1.0  0.53162  0.53162  0.96838  1.0000 0.8406313362
Cu  Cu14      1.0  0.96838  0.96838  0.53162  1.0000 0.8406313362
Cu  Cu15      1.0  0.96838  0.53162  0.53162  1.0000 0.8406313362
Cu  Cu16      1.0  0.53162  0.96838  0.53162  1.0000 0.8406313362
Cu  Cu17      1.0  0.53162  0.96838  0.96838  1.0000 0.8406313362
Cu  Cu18      1.0  0.96838  0.53162  0.96838  1.0000 0.8406313362
Cu  Cu19      1.0  0.78905  0.21095  0.21095  1.0000 0.8293382197
Cu  Cu20      1.0  0.21095  0.78905  0.78905  1.0000 0.8293382197
Cu  Cu21      1.0  0.21095  0.78905  0.21095  1.0000 0.8293382197
Cu  Cu22      1.0  0.21095  0.21095  0.78905  1.0000 0.8293382197
Cu  Cu23      1.0  0.78905  0.21095  0.78905  1.0000 0.8293382197
Cu  Cu24      1.0  0.78905  0.78905  0.21095  1.0000 0.8293382197
H   H1        1.0  0.35700  0.49840  0.31560  1.0000 0.130115803
H   H2        1.0  0.49840  0.35700  0.82900  1.0000 0.130115803
H   H3        1.0  0.82900  0.31560  0.49840  1.0000 0.130115803
H   H4        1.0  0.31560  0.82900  0.35700  1.0000 0.130115803
H   H5        1.0  0.31560  0.35700  0.49840  1.0000 0.130115803
H   H6        1.0  0.49840  0.31560  0.35700  1.0000 0.130115803
H   H7        1.0  0.35700  0.31560  0.82900  1.0000 0.130115803
H   H8        1.0  0.35700  0.82900  0.49840  1.0000 0.130115803
H   H9        1.0  0.82900  0.49840  0.35700  1.0000 0.130115803
H   H10       1.0  0.31560  0.49840  0.82900  1.0000 0.130115803
H   H11       1.0  0.49840  0.82900  0.31560  1.0000 0.130115803
H   H12       1.0  0.82900  0.35700  0.31560  1.0000 0.130115803
H   H13       1.0  0.57470  0.35950  0.88610  1.0000 0.1522558316
H   H14       1.0  0.35950  0.57470  0.17970  1.0000 0.1522558316
H   H15       1.0  0.17970  0.88610  0.35950  1.0000 0.1522558316
H   H16       1.0  0.88610  0.17970  0.57470  1.0000 0.1522558316
H   H17       1.0  0.88610  0.57470  0.35950  1.0000 0.1522558316
H   H18       1.0  0.35950  0.88610  0.57470  1.0000 0.1522558316
H   H19       1.0  0.57470  0.88610  0.17970  1.0000 0.1522558316
H   H20       1.0  0.57470  0.17970  0.35950  1.0000 0.1522558316
H   H21       1.0  0.17970  0.35950  0.57470  1.0000 0.1522558316
H   H22       1.0  0.88610  0.35950  0.17970  1.0000 0.1522558316
H   H23       1.0  0.35950  0.17970  0.88610  1.0000 0.1522558316
H   H24       1.0  0.17970  0.57470  0.88610  1.0000 0.1522558316
H   H25       1.0  0.61150  0.41350  0.84330  1.0000 0.1692842092
H   H26       1.0  0.41350  0.61150  0.13170  1.0000 0.1692842092
H   H27       1.0  0.13170  0.84330  0.41350  1.0000 0.1692842092
H   H28       1.0  0.84330  0.13170  0.61150  1.0000 0.1692842092
H   H29       1.0  0.84330  0.61150  0.41350  1.0000 0.1692842092
H   H30       1.0  0.41350  0.84330  0.61150  1.0000 0.1692842092
H   H31       1.0  0.61150  0.84330  0.13170  1.0000 0.1692842092
H   H32       1.0  0.61150  0.13170  0.41350  1.0000 0.1692842092
H   H33       1.0  0.13170  0.41350  0.61150  1.0000 0.1692842092
H   H34       1.0  0.84330  0.41350  0.13170  1.0000 0.1692842092
H   H35       1.0  0.41350  0.13170  0.84330  1.0000 0.1692842092
H   H36       1.0  0.13170  0.61150  0.84330  1.0000 0.1692842092
H   H37       1.0  0.61890  0.25730  0.97190  1.0000 0.2775658049
H   H38       1.0  0.25730  0.61890  0.15190  1.0000 0.2775658049
H   H39       1.0  0.15190  0.97190  0.25730  1.0000 0.2775658049
H   H40       1.0  0.97190  0.15190  0.61890  1.0000 0.2775658049
H   H41       1.0  0.97190  0.61890  0.25730  1.0000 0.2775658049
H   H42       1.0  0.25730  0.97190  0.61890  1.0000 0.2775658049
H   H43       1.0  0.61890  0.97190  0.15190  1.0000 0.2775658049
H   H44       1.0  0.61890  0.15190  0.25730  1.0000 0.2775658049
H   H45       1.0  0.15190  0.25730  0.61890  1.0000 0.2775658049
H   H46       1.0  0.97190  0.25730  0.15190  1.0000 0.2775658049
H   H47       1.0  0.25730  0.15190  0.97190  1.0000 0.2775658049
H   H48       1.0  0.15190  0.61890  0.97190  1.0000 0.2775658049
H   H49       1.0  0.68390  0.34790  0.91130  1.0000 0.1136038158
H   H50       1.0  0.34790  0.68390  0.05690  1.0000 0.1136038158
H   H51       1.0  0.05690  0.91130  0.34790  1.0000 0.1136038158
H   H52       1.0  0.91130  0.05690  0.68390  1.0000 0.1136038158
H   H53       1.0  0.91130  0.68390  0.34790  1.0000 0.1136038158
H   H54       1.0  0.34790  0.91130  0.68390  1.0000 0.1136038158
H   H55       1.0  0.68390  0.91130  0.05690  1.0000 0.1136038158
H   H56       1.0  0.68390  0.05690  0.34790  1.0000 0.1136038158
H   H57       1.0  0.05690  0.34790  0.68390  1.0000 0.1136038158
H   H58       1.0  0.91130  0.34790  0.05690  1.0000 0.1136038158
H   H59       1.0  0.34790  0.05690  0.91130  1.0000 0.1136038158
H   H60       1.0  0.05690  0.68390  0.91130  1.0000 0.1136038158
H   H61       1.0  0.67000  0.14380  0.00140  1.0000 0.130115803
H   H62       1.0  0.14380  0.67000  0.18480  1.0000 0.130115803
H   H63       1.0  0.18480  0.00140  0.14380  1.0000 0.130115803
H   H64       1.0  0.00140  0.18480  0.67000  1.0000 0.130115803
H   H65       1.0  0.00140  0.67000  0.14380  1.0000 0.130115803
H   H66       1.0  0.14380  0.00140  0.67000  1.0000 0.130115803
H   H67       1.0  0.67000  0.00140  0.18480  1.0000 0.130115803
H   H68       1.0  0.67000  0.18480  0.14380  1.0000 0.130115803
H   H69       1.0  0.18480  0.14380  0.67000  1.0000 0.130115803
H   H70       1.0  0.00140  0.14380  0.18480  1.0000 0.130115803
H   H71       1.0  0.14380  0.18480  0.00140  1.0000 0.130115803
H   H72       1.0  0.18480  0.67000  0.00140  1.0000 0.130115803
H   H73       1.0  0.52630  0.34910  0.24170  1.0000 0.2740480182
H   H74       1.0  0.34910  0.52630  0.88290  1.0000 0.2740480182
H   H75       1.0  0.88290  0.24170  0.34910  1.0000 0.2740480182
H   H76       1.0  0.24170  0.88290  0.52630  1.0000 0.2740480182
H   H77       1.0  0.24170  0.52630  0.34910  1.0000 0.2740480182
H   H78       1.0  0.34910  0.24170  0.52630  1.0000 0.2740480182
H   H79       1.0  0.52630  0.24170  0.88290  1.0000 0.2740480182
H   H80       1.0  0.52630  0.88290  0.34910  1.0000 0.2740480182
H   H81       1.0  0.88290  0.34910  0.52630  1.0000 0.2740480182
H   H82       1.0  0.24170  0.34910  0.88290  1.0000 0.2740480182
H   H83       1.0  0.34910  0.88290  0.24170  1.0000 0.2740480182
H   H84       1.0  0.88290  0.52630  0.24170  1.0000 0.2740480182
H   H85       1.0  0.61450  0.31930  0.14070  1.0000 0.1522558316
H   H86       1.0  0.31930  0.61450  0.92550  1.0000 0.1522558316
H   H87       1.0  0.92550  0.14070  0.31930  1.0000 0.1522558316
H   H88       1.0  0.14070  0.92550  0.61450  1.0000 0.1522558316
H   H89       1.0  0.14070  0.61450  0.31930  1.0000 0.1522558316
H   H90       1.0  0.31930  0.14070  0.61450  1.0000 0.1522558316
H   H91       1.0  0.61450  0.14070  0.92550  1.0000 0.1522558316
H   H92       1.0  0.61450  0.92550  0.31930  1.0000 0.1522558316
H   H93       1.0  0.92550  0.31930  0.61450  1.0000 0.1522558316
H   H94       1.0  0.14070  0.31930  0.92550  1.0000 0.1522558316
H   H95       1.0  0.31930  0.92550  0.14070  1.0000 0.1522558316
H   H96       1.0  0.92550  0.61450  0.14070  1.0000 0.1522558316
H   H97       1.0  0.65710  0.36750  0.08650  1.0000 0.1692842092
H   H98       1.0  0.36750  0.65710  0.88890  1.0000 0.1692842092
H   H99       1.0  0.88890  0.08650  0.36750  1.0000 0.1692842092
H   H100      1.0  0.08650  0.88890  0.65710  1.0000 0.1692842092
H   H101      1.0  0.08650  0.65710  0.36750  1.0000 0.1692842092
H   H102      1.0  0.36750  0.08650  0.65710  1.0000 0.1692842092
H   H103      1.0  0.65710  0.08650  0.88890  1.0000 0.1692842092
H   H104      1.0  0.65710  0.88890  0.36750  1.0000 0.1692842092
H   H105      1.0  0.88890  0.36750  0.65710  1.0000 0.1692842092
H   H106      1.0  0.08650  0.36750  0.88890  1.0000 0.1692842092
H   H107      1.0  0.36750  0.88890  0.08650  1.0000 0.1692842092
H   H108      1.0  0.88890  0.65710  0.08650  1.0000 0.1692842092
H   H109      1.0  0.58760  0.44340  0.15200  1.0000 0.1136038158
H   H110      1.0  0.44340  0.58760  0.81700  1.0000 0.1136038158
H   H111      1.0  0.81700  0.15200  0.44340  1.0000 0.1136038158
H   H112      1.0  0.15200  0.81700  0.58760  1.0000 0.1136038158
H   H113      1.0  0.15200  0.58760  0.44340  1.0000 0.1136038158
H   H114      1.0  0.44340  0.15200  0.58760  1.0000 0.1136038158
H   H115      1.0  0.58760  0.15200  0.81700  1.0000 0.1136038158
H   H116      1.0  0.58760  0.81700  0.44340  1.0000 0.1136038158
H   H117      1.0  0.81700  0.44340  0.58760  1.0000 0.1136038158
H   H118      1.0  0.15200  0.44340  0.81700  1.0000 0.1136038158
H   H119      1.0  0.44340  0.81700  0.15200  1.0000 0.1152446844
H   H120      1.0  0.81700  0.58760  0.15200  1.0000 0.1136038158
C   C1        1.0  0.37010  0.45490  0.34530  1.0000 -0.1191942251
C   C2        1.0  0.45490  0.37010  0.82970  1.0000 -0.1191942251
C   C3        1.0  0.82970  0.34530  0.45490  1.0000 -0.1191942251
C   C4        1.0  0.34530  0.82970  0.37010  1.0000 -0.1191942251
C   C5        1.0  0.34530  0.37010  0.45490  1.0000 -0.1191942251
C   C6        1.0  0.45490  0.34530  0.37010  1.0000 -0.1191942251
C   C7        1.0  0.37010  0.34530  0.82970  1.0000 -0.1191942251
C   C8        1.0  0.37010  0.82970  0.45490  1.0000 -0.1191942251
C   C9        1.0  0.82970  0.45490  0.37010  1.0000 -0.1191942251
C   C10       1.0  0.34530  0.45490  0.82970  1.0000 -0.1191942251
C   C11       1.0  0.45490  0.82970  0.34530  1.0000 -0.1191942251
C   C12       1.0  0.82970  0.37010  0.34530  1.0000 -0.1191942251
C   C13       1.0  0.61780  0.36580  0.86860  1.0000 -0.3583984781
C   C14       1.0  0.36580  0.61780  0.14780  1.0000 -0.3583984781
C   C15       1.0  0.14780  0.86860  0.36580  1.0000 -0.3583984781
C   C16       1.0  0.86860  0.14780  0.61780  1.0000 -0.3583984781
C   C17       1.0  0.86860  0.61780  0.36580  1.0000 -0.3583984781
C   C18       1.0  0.36580  0.86860  0.61780  1.0000 -0.3583984781
C   C19       1.0  0.61780  0.86860  0.14780  1.0000 -0.3583984781
C   C20       1.0  0.61780  0.14780  0.36580  1.0000 -0.3583984781
C   C21       1.0  0.14780  0.36580  0.61780  1.0000 -0.3583984781
C   C22       1.0  0.86860  0.36580  0.14780  1.0000 -0.3583984781
C   C23       1.0  0.36580  0.14780  0.86860  1.0000 -0.3583984781
C   C24       1.0  0.14780  0.61780  0.86860  1.0000 -0.3583984781
C   C25       1.0  0.43540  0.41000  0.32440  1.0000 -0.0251728374
C   C26       1.0  0.41000  0.43540  0.83020  1.0000 -0.0251728374
C   C27       1.0  0.83020  0.32440  0.41000  1.0000 -0.0251728374
C   C28       1.0  0.32440  0.83020  0.43540  1.0000 -0.0251728374
C   C29       1.0  0.32440  0.43540  0.41000  1.0000 -0.0251728374
C   C30       1.0  0.41000  0.32440  0.43540  1.0000 -0.0209208332
C   C31       1.0  0.43540  0.32440  0.83020  1.0000 -0.0251728374
C   C32       1.0  0.43540  0.83020  0.41000  1.0000 -0.0251728374
C   C33       1.0  0.83020  0.41000  0.43540  1.0000 -0.0251728374
C   C34       1.0  0.32440  0.41000  0.83020  1.0000 -0.0251728374
C   C35       1.0  0.41000  0.83020  0.32440  1.0000 -0.0251728374
C   C36       1.0  0.83020  0.43540  0.32440  1.0000 -0.0251728374
C   C37       1.0  0.66990  0.17550  0.06550  1.0000 -0.0209208332
C   C38       1.0  0.17550  0.66990  0.08910  1.0000 -0.0209208332
C   C39       1.0  0.08910  0.06550  0.17550  1.0000 -0.0209208332
C   C40       1.0  0.06550  0.08910  0.66990  1.0000 -0.0209208332
C   C41       1.0  0.06550  0.66990  0.17550  1.0000 -0.0209208332
C   C42       1.0  0.17550  0.06550  0.66990  1.0000 -0.0209208332
C   C43       1.0  0.66990  0.06550  0.08910  1.0000 -0.0209208332
C   C44       1.0  0.66990  0.08910  0.17550  1.0000 -0.0209208332
C   C45       1.0  0.08910  0.17550  0.66990  1.0000 -0.0209208332
C   C46       1.0  0.06550  0.17550  0.08910  1.0000 -0.0209208332
C   C47       1.0  0.17550  0.08910  0.06550  1.0000 -0.0209208332
C   C48       1.0  0.08910  0.66990  0.06550  1.0000 -0.0209208332
C   C49       1.0  0.67170  0.24450  0.01890  1.0000 0.451081573
C   C50       1.0  0.24450  0.67170  0.06490  1.0000 0.451081573
C   C51       1.0  0.06490  0.01890  0.24450  1.0000 0.451081573
C   C52       1.0  0.01890  0.06490  0.67170  1.0000 0.451081573
C   C53       1.0  0.01890  0.67170  0.24450  1.0000 0.451081573
C   C54       1.0  0.24450  0.01890  0.67170  1.0000 0.451081573
C   C55       1.0  0.67170  0.01890  0.06490  1.0000 0.451081573
C   C56       1.0  0.67170  0.06490  0.24450  1.0000 0.451081573
C   C57       1.0  0.06490  0.24450  0.67170  1.0000 0.451081573
C   C58       1.0  0.01890  0.24450  0.06490  1.0000 0.451081573
C   C59       1.0  0.24450  0.06490  0.01890  1.0000 0.451081573
C   C60       1.0  0.06490  0.67170  0.01890  1.0000 0.451081573
C   C61       1.0  0.63850  0.34550  0.92850  1.0000 0.040548595
C   C62       1.0  0.34550  0.63850  0.08750  1.0000 0.040548595
C   C63       1.0  0.08750  0.92850  0.34550  1.0000 0.040548595
C   C64       1.0  0.92850  0.08750  0.63850  1.0000 0.040548595
C   C65       1.0  0.92850  0.63850  0.34550  1.0000 0.040548595
C   C66       1.0  0.34550  0.92850  0.63850  1.0000 0.040548595
C   C67       1.0  0.63850  0.92850  0.08750  1.0000 0.040548595
C   C68       1.0  0.63850  0.08750  0.34550  1.0000 0.040548595
C   C69       1.0  0.08750  0.34550  0.63850  1.0000 0.040548595
C   C70       1.0  0.92850  0.34550  0.08750  1.0000 0.040548595
C   C71       1.0  0.34550  0.08750  0.92850  1.0000 0.040548595
C   C72       1.0  0.08750  0.63850  0.92850  1.0000 0.040548595
C   C73       1.0  0.63140  0.35280  0.13400  1.0000 -0.3583984781
C   C74       1.0  0.35280  0.63140  0.88180  1.0000 -0.3583984781
C   C75       1.0  0.88180  0.13400  0.35280  1.0000 -0.3583984781
C   C76       1.0  0.13400  0.88180  0.63140  1.0000 -0.3583984781
C   C77       1.0  0.13400  0.63140  0.35280  1.0000 -0.3583984781
C   C78       1.0  0.35280  0.13400  0.63140  1.0000 -0.3583984781
C   C79       1.0  0.63140  0.13400  0.88180  1.0000 -0.3583984781
C   C80       1.0  0.63140  0.88180  0.35280  1.0000 -0.3583984781
C   C81       1.0  0.88180  0.35280  0.63140  1.0000 -0.3583984781
C   C82       1.0  0.13400  0.35280  0.88180  1.0000 -0.3583984781
C   C83       1.0  0.35280  0.88180  0.13400  1.0000 -0.3583984781
C   C84       1.0  0.88180  0.63140  0.13400  1.0000 -0.3583984781
C   C85       1.0  0.67000  0.13020  0.04480  1.0000 -0.1255490281
C   C86       1.0  0.13020  0.67000  0.15500  1.0000 -0.1255490281
C   C87       1.0  0.15500  0.04480  0.13020  1.0000 -0.1191942251
C   C88       1.0  0.04480  0.15500  0.67000  1.0000 -0.1255490281
C   C89       1.0  0.04480  0.67000  0.13020  1.0000 -0.1255490281
C   C90       1.0  0.13020  0.04480  0.67000  1.0000 -0.1255490281
C   C91       1.0  0.67000  0.04480  0.15500  1.0000 -0.1255490281
C   C92       1.0  0.67000  0.15500  0.13020  1.0000 -0.1255490281
C   C93       1.0  0.15500  0.13020  0.67000  1.0000 -0.1255490281
C   C94       1.0  0.04480  0.13020  0.15500  1.0000 -0.1191942251
C   C95       1.0  0.13020  0.15500  0.04480  1.0000 -0.1255490281
C   C96       1.0  0.15500  0.67000  0.04480  1.0000 -0.1255490281
C   C97       1.0  0.58710  0.39810  0.96390  1.0000 0.577600688
C   C98       1.0  0.39810  0.58710  0.05090  1.0000 0.577600688
C   C99       1.0  0.05090  0.96390  0.39810  1.0000 0.577600688
C   C100      1.0  0.96390  0.05090  0.58710  1.0000 0.577600688
C   C101      1.0  0.96390  0.58710  0.39810  1.0000 0.577600688
C   C102      1.0  0.39810  0.96390  0.58710  1.0000 0.577600688
C   C103      1.0  0.58710  0.96390  0.05090  1.0000 0.577600688
C   C104      1.0  0.58710  0.05090  0.39810  1.0000 0.577600688
C   C105      1.0  0.05090  0.39810  0.58710  1.0000 0.577600688
C   C106      1.0  0.96390  0.39810  0.05090  1.0000 0.577600688
C   C107      1.0  0.39810  0.05090  0.96390  1.0000 0.577600688
C   C108      1.0  0.05090  0.58710  0.96390  1.0000 0.577600688
C   C109      1.0  0.53580  0.44960  0.10140  1.0000 0.577600688
C   C110      1.0  0.44960  0.53580  0.91320  1.0000 0.577600688
C   C111      1.0  0.91320  0.10140  0.44960  1.0000 0.577600688
C   C112      1.0  0.10140  0.91320  0.53580  1.0000 0.577600688
C   C113      1.0  0.10140  0.53580  0.44960  1.0000 0.577600688
C   C114      1.0  0.44960  0.10140  0.53580  1.0000 0.577600688
C   C115      1.0  0.53580  0.10140  0.91320  1.0000 0.577600688
C   C116      1.0  0.53580  0.91320  0.44960  1.0000 0.577600688
C   C117      1.0  0.91320  0.44960  0.53580  1.0000 0.577600688
C   C118      1.0  0.10140  0.44960  0.91320  1.0000 0.577600688
C   C119      1.0  0.44960  0.91320  0.10140  1.0000 0.577600688
C   C120      1.0  0.91320  0.53580  0.10140  1.0000 0.577600688
C   C121      1.0  0.67790  0.31610  0.17490  1.0000 0.6524507282
C   C122      1.0  0.31610  0.67790  0.83110  1.0000 0.6524507282
C   C123      1.0  0.83110  0.17490  0.31610  1.0000 0.6524507282
C   C124      1.0  0.17490  0.83110  0.67790  1.0000 0.6524507282
C   C125      1.0  0.17490  0.67790  0.31610  1.0000 0.6524507282
C   C126      1.0  0.31610  0.17490  0.67790  1.0000 0.6524507282
C   C127      1.0  0.67790  0.17490  0.83110  1.0000 0.6524507282
C   C128      1.0  0.67790  0.83110  0.31610  1.0000 0.6524507282
C   C129      1.0  0.83110  0.31610  0.67790  1.0000 0.6524507282
C   C130      1.0  0.17490  0.31610  0.83110  1.0000 0.6524507282
C   C131      1.0  0.31610  0.83110  0.17490  1.0000 0.6524507282
C   C132      1.0  0.83110  0.67790  0.17490  1.0000 0.6524507282
C   C133      1.0  0.48150  0.43510  0.25550  1.0000 0.451081573
C   C134      1.0  0.43510  0.48150  0.82790  1.0000 0.451081573
C   C135      1.0  0.82790  0.25550  0.43510  1.0000 0.451081573
C   C136      1.0  0.25550  0.82790  0.48150  1.0000 0.451081573
C   C137      1.0  0.25550  0.48150  0.43510  1.0000 0.451081573
C   C138      1.0  0.43510  0.25550  0.48150  1.0000 0.451081573
C   C139      1.0  0.48150  0.25550  0.82790  1.0000 0.451081573
C   C140      1.0  0.48150  0.82790  0.43510  1.0000 0.451081573
C   C141      1.0  0.82790  0.43510  0.48150  1.0000 0.451081573
C   C142      1.0  0.25550  0.43510  0.82790  1.0000 0.451081573
C   C143      1.0  0.43510  0.82790  0.25550  1.0000 0.451081573
C   C144      1.0  0.82790  0.48150  0.25550  1.0000 0.451081573
C   C145      1.0  0.66910  0.32530  0.82170  1.0000 0.6524507282
C   C146      1.0  0.32530  0.66910  0.18390  1.0000 0.6524507282
C   C147      1.0  0.18390  0.82170  0.32530  1.0000 0.6524507282
C   C148      1.0  0.82170  0.18390  0.66910  1.0000 0.6524507282
C   C149      1.0  0.82170  0.66910  0.32530  1.0000 0.6524507282
C   C150      1.0  0.32530  0.82170  0.66910  1.0000 0.6524507282
C   C151      1.0  0.66910  0.82170  0.18390  1.0000 0.6524507282
C   C152      1.0  0.66910  0.18390  0.32530  1.0000 0.6524507282
C   C153      1.0  0.18390  0.32530  0.66910  1.0000 0.6524507282
C   C154      1.0  0.82170  0.32530  0.18390  1.0000 0.6524507282
C   C155      1.0  0.32530  0.18390  0.82170  1.0000 0.6524507282
C   C156      1.0  0.18390  0.66910  0.82170  1.0000 0.6524507282
C   C157      1.0  0.57120  0.41280  0.15380  1.0000 0.040548595
C   C158      1.0  0.41280  0.57120  0.86220  1.0000 0.040548595
C   C159      1.0  0.86220  0.15380  0.41280  1.0000 0.040548595
C   C160      1.0  0.15380  0.86220  0.57120  1.0000 0.040548595
C   C161      1.0  0.15380  0.57120  0.41280  1.0000 0.040548595
C   C162      1.0  0.41280  0.15380  0.57120  1.0000 0.040548595
C   C163      1.0  0.57120  0.15380  0.86220  1.0000 0.040548595
C   C164      1.0  0.57120  0.86220  0.41280  1.0000 0.040548595
C   C165      1.0  0.86220  0.41280  0.57120  1.0000 0.040548595
C   C166      1.0  0.15380  0.41280  0.86220  1.0000 0.040548595
C   C167      1.0  0.41280  0.86220  0.15380  1.0000 0.040548595
C   C168      1.0  0.86220  0.57120  0.15380  1.0000 0.040548595
N   N1        1.0  0.52680  0.39020  0.22220  1.0000 -0.3796550803
N   N2        1.0  0.39020  0.52680  0.86080  1.0000 -0.3796550803
N   N3        1.0  0.86080  0.22220  0.39020  1.0000 -0.3796550803
N   N4        1.0  0.22220  0.86080  0.52680  1.0000 -0.3796550803
N   N5        1.0  0.22220  0.52680  0.39020  1.0000 -0.3796550803
N   N6        1.0  0.39020  0.22220  0.52680  1.0000 -0.3796550803
N   N7        1.0  0.52680  0.22220  0.86080  1.0000 -0.3796550803
N   N8        1.0  0.52680  0.86080  0.39020  1.0000 -0.3796550803
N   N9        1.0  0.86080  0.39020  0.52680  1.0000 -0.3796550803
N   N10       1.0  0.22220  0.39020  0.86080  1.0000 -0.3796550803
N   N11       1.0  0.39020  0.86080  0.22220  1.0000 -0.3796550803
N   N12       1.0  0.86080  0.52680  0.22220  1.0000 -0.3796550803
N   N13       1.0  0.63910  0.27690  0.97390  1.0000 -0.3700546851
N   N14       1.0  0.27690  0.63910  0.11010  1.0000 -0.3700546851
N   N15       1.0  0.11010  0.97390  0.27690  1.0000 -0.3700546851
N   N16       1.0  0.97390  0.11010  0.63910  1.0000 -0.3583984781
N   N17       1.0  0.97390  0.63910  0.27690  1.0000 -0.3700546851
N   N18       1.0  0.27690  0.97390  0.63910  1.0000 -0.3700546851
N   N19       1.0  0.63910  0.97390  0.11010  1.0000 -0.3583984781
N   N20       1.0  0.63910  0.11010  0.27690  1.0000 -0.3700546851
N   N21       1.0  0.11010  0.27690  0.63910  1.0000 -0.3583984781
N   N22       1.0  0.97390  0.27690  0.11010  1.0000 -0.3700546851
N   N23       1.0  0.27690  0.11010  0.97390  1.0000 -0.3700546851
N   N24       1.0  0.11010  0.63910  0.97390  1.0000 -0.3700546851
O   O1        1.0  0.70310  0.27130  0.02130  1.0000 -0.469924395
O   O2        1.0  0.27130  0.70310  0.00430  1.0000 -0.469924395
O   O3        1.0  0.00430  0.02130  0.27130  1.0000 -0.469924395
O   O4        1.0  0.02130  0.00430  0.70310  1.0000 -0.469924395
O   O5        1.0  0.02130  0.70310  0.27130  1.0000 -0.469924395
O   O6        1.0  0.27130  0.02130  0.70310  1.0000 -0.469924395
O   O7        1.0  0.70310  0.02130  0.00430  1.0000 -0.469924395
O   O8        1.0  0.70310  0.00430  0.27130  1.0000 -0.469924395
O   O9        1.0  0.00430  0.27130  0.70310  1.0000 -0.469924395
O   O10       1.0  0.02130  0.27130  0.00430  1.0000 -0.469924395
O   O11       1.0  0.27130  0.00430  0.02130  1.0000 -0.469924395
O   O12       1.0  0.00430  0.70310  0.02130  1.0000 -0.469924395
O   O13       1.0  0.59700  0.45480  0.93520  1.0000 -0.519841302
O   O14       1.0  0.45480  0.59700  0.01300  1.0000 -0.519841302
O   O15       1.0  0.01300  0.93520  0.45480  1.0000 -0.519841302
O   O16       1.0  0.93520  0.01300  0.59700  1.0000 -0.519841302
O   O17       1.0  0.93520  0.59700  0.45480  1.0000 -0.519841302
O   O18       1.0  0.45480  0.93520  0.59700  1.0000 -0.519841302
O   O19       1.0  0.59700  0.93520  0.01300  1.0000 -0.519841302
O   O20       1.0  0.59700  0.01300  0.45480  1.0000 -0.519841302
O   O21       1.0  0.01300  0.45480  0.59700  1.0000 -0.519841302
O   O22       1.0  0.93520  0.45480  0.01300  1.0000 -0.519841302
O   O23       1.0  0.45480  0.01300  0.93520  1.0000 -0.519841302
O   O24       1.0  0.01300  0.59700  0.93520  1.0000 -0.519841302
O   O25       1.0  0.72200  0.26040  0.16680  1.0000 -0.519841302
O   O26       1.0  0.26040  0.72200  0.85080  1.0000 -0.519841302
O   O27       1.0  0.85080  0.16680  0.26040  1.0000 -0.519841302
O   O28       1.0  0.16680  0.85080  0.72200  1.0000 -0.519841302
O   O29       1.0  0.16680  0.72200  0.26040  1.0000 -0.519841302
O   O30       1.0  0.26040  0.16680  0.72200  1.0000 -0.519841302
O   O31       1.0  0.72200  0.16680  0.85080  1.0000 -0.519841302
O   O32       1.0  0.72200  0.85080  0.26040  1.0000 -0.519841302
O   O33       1.0  0.85080  0.26040  0.72200  1.0000 -0.519841302
O   O34       1.0  0.16680  0.26040  0.85080  1.0000 -0.519841302
O   O35       1.0  0.26040  0.85080  0.16680  1.0000 -0.519841302
O   O36       1.0  0.85080  0.72200  0.16680  1.0000 -0.519841302
O   O37       1.0  0.56360  0.48660  0.04580  1.0000 -0.4974789418
O   O38       1.0  0.48660  0.56360  0.90400  1.0000 -0.4974789418
O   O39       1.0  0.90400  0.04580  0.48660  1.0000 -0.4943660296
O   O40       1.0  0.04580  0.90400  0.56360  1.0000 -0.4974789418
O   O41       1.0  0.04580  0.56360  0.48660  1.0000 -0.4974789418
O   O42       1.0  0.48660  0.04580  0.56360  1.0000 -0.4943660296
O   O43       1.0  0.56360  0.04580  0.90400  1.0000 -0.4943660296
O   O44       1.0  0.56360  0.90400  0.48660  1.0000 -0.4974789418
O   O45       1.0  0.90400  0.48660  0.56360  1.0000 -0.4943660296
O   O46       1.0  0.04580  0.48660  0.90400  1.0000 -0.4943660296
O   O47       1.0  0.48660  0.90400  0.04580  1.0000 -0.4974789418
O   O48       1.0  0.90400  0.56360  0.04580  1.0000 -0.4943660296
O   O49       1.0  0.47950  0.49530  0.22890  1.0000 -0.469924395
O   O50       1.0  0.49530  0.47950  0.79630  1.0000 -0.469924395
O   O51       1.0  0.79630  0.22890  0.49530  1.0000 -0.469924395
O   O52       1.0  0.22890  0.79630  0.47950  1.0000 -0.469924395
O   O53       1.0  0.22890  0.47950  0.49530  1.0000 -0.469924395
O   O54       1.0  0.49530  0.22890  0.47950  1.0000 -0.469924395
O   O55       1.0  0.47950  0.22890  0.79630  1.0000 -0.469924395
O   O56       1.0  0.47950  0.79630  0.49530  1.0000 -0.469924395
O   O57       1.0  0.79630  0.49530  0.47950  1.0000 -0.469924395
O   O58       1.0  0.22890  0.49530  0.79630  1.0000 -0.469924395
O   O59       1.0  0.49530  0.79630  0.22890  1.0000 -0.469924395
O   O60       1.0  0.79630  0.47950  0.22890  1.0000 -0.469924395
O   O61       1.0  0.48560  0.43580  0.11580  1.0000 -0.4974789418
O   O62       1.0  0.43580  0.48560  0.96280  1.0000 -0.4943660296
O   O63       1.0  0.96280  0.11580  0.43580  1.0000 -0.4943660296
O   O64       1.0  0.11580  0.96280  0.48560  1.0000 -0.4974789418
O   O65       1.0  0.11580  0.48560  0.43580  1.0000 -0.4974789418
O   O66       1.0  0.43580  0.11580  0.48560  1.0000 -0.4974789418
O   O67       1.0  0.48560  0.11580  0.96280  1.0000 -0.4974789418
O   O68       1.0  0.48560  0.96280  0.43580  1.0000 -0.4974789418
O   O69       1.0  0.96280  0.43580  0.48560  1.0000 -0.4974789418
O   O70       1.0  0.11580  0.43580  0.96280  1.0000 -0.4974789418
O   O71       1.0  0.43580  0.96280  0.11580  1.0000 -0.4974789418
O   O72       1.0  0.96280  0.48560  0.11580  1.0000 -0.4974789418
O   O73       1.0  0.64870  0.33350  0.77850  1.0000 -0.519841302
O   O74       1.0  0.33350  0.64870  0.23930  1.0000 -0.519841302
O   O75       1.0  0.23930  0.77850  0.33350  1.0000 -0.519841302
O   O76       1.0  0.77850  0.23930  0.64870  1.0000 -0.519841302
O   O77       1.0  0.77850  0.64870  0.33350  1.0000 -0.5146085419
O   O78       1.0  0.33350  0.77850  0.64870  1.0000 -0.519841302
O   O79       1.0  0.64870  0.77850  0.23930  1.0000 -0.519841302
O   O80       1.0  0.64870  0.23930  0.33350  1.0000 -0.5146085419
O   O81       1.0  0.23930  0.33350  0.64870  1.0000 -0.519841302
O   O82       1.0  0.77850  0.33350  0.23930  1.0000 -0.519841302
O   O83       1.0  0.33350  0.23930  0.77850  1.0000 -0.519841302
O   O84       1.0  0.23930  0.64870  0.77850  1.0000 -0.519841302
O   O85       1.0  0.53709  0.38391  0.01451  1.0000 -0.4974789418
O   O86       1.0  0.38391  0.53709  0.06449  1.0000 -0.4974789418
O   O87       1.0  0.06449  0.01451  0.38391  1.0000 -0.4974789418
O   O88       1.0  0.01451  0.06449  0.53709  1.0000 -0.4974789418
O   O89       1.0  0.01451  0.53709  0.38391  1.0000 -0.4974789418
O   O90       1.0  0.38391  0.01451  0.53709  1.0000 -0.4974789418
O   O91       1.0  0.53709  0.01451  0.06449  1.0000 -0.4974789418
O   O92       1.0  0.53709  0.06449  0.38391  1.0000 -0.4974789418
O   O93       1.0  0.06449  0.38391  0.53709  1.0000 -0.4974789418
O   O94       1.0  0.01451  0.38391  0.06449  1.0000 -0.4974789418
O   O95       1.0  0.38391  0.06449  0.01451  1.0000 -0.4974789418
O   O96       1.0  0.06449  0.53709  0.01451  1.0000 -0.4974789418
O   O97       1.0  0.67240  0.34220  0.21180  1.0000 -0.519841302
O   O98       1.0  0.34220  0.67240  0.77360  1.0000 -0.5257673237
O   O99       1.0  0.77360  0.21180  0.34220  1.0000 -0.5257673237
O   O100      1.0  0.21180  0.77360  0.67240  1.0000 -0.519841302
O   O101      1.0  0.21180  0.67240  0.34220  1.0000 -0.519841302
O   O102      1.0  0.34220  0.21180  0.67240  1.0000 -0.5257673237
O   O103      1.0  0.67240  0.21180  0.77360  1.0000 -0.5257673237
O   O104      1.0  0.67240  0.77360  0.34220  1.0000 -0.5257673237
O   O105      1.0  0.77360  0.34220  0.67240  1.0000 -0.519841302
O   O106      1.0  0.21180  0.34220  0.77360  1.0000 -0.519841302
O   O107      1.0  0.34220  0.77360  0.21180  1.0000 -0.5257673237
O   O108      1.0  0.77360  0.67240  0.21180  1.0000 -0.519841302
O   O109      1.0  0.72650  0.28850  0.82750  1.0000 -0.5257673237
O   O110      1.0  0.28850  0.72650  0.15750  1.0000 -0.5257673237
O   O111      1.0  0.15750  0.82750  0.28850  1.0000 -0.5257673237
O   O112      1.0  0.82750  0.15750  0.72650  1.0000 -0.5257673237
O   O113      1.0  0.82750  0.72650  0.28850  1.0000 -0.5257673237
O   O114      1.0  0.28850  0.82750  0.72650  1.0000 -0.5257673237
O   O115      1.0  0.72650  0.82750  0.15750  1.0000 -0.5257673237
O   O116      1.0  0.72650  0.15750  0.28850  1.0000 -0.5257673237
O   O117      1.0  0.15750  0.28850  0.72650  1.0000 -0.5257673237
O   O118      1.0  0.82750  0.28850  0.15750  1.0000 -0.519841302
O   O119      1.0  0.28850  0.15750  0.82750  1.0000 -0.5257673237
O   O120      1.0  0.15750  0.72650  0.82750  1.0000 -0.5257673237
