# DDEC6 charges by PACMAN v1.1 (https://github.com/mtap-research/PACMAN-charge/)
data_2015[Tb][pts]3[ASR]1
_chemical_formula_sum              "Tb4 H20 C36 N4 O32"
_cell_length_a       13.009
_cell_length_b       13.7701
_cell_length_c       15.0439
_cell_angle_alpha    99.513
_cell_angle_beta     90.402
_cell_angle_gamma    116.522

_symmetry_space_group_name_H-M    "P 1"
_symmetry_Int_Tables_number       1

loop_
  _symmetry_equiv_pos_as_xyz
  'x, y, z'

loop_
  _atom_site_type_symbol
  _atom_site_label
  _atom_site_symmetry_multiplicity
  _atom_site_fract_x
  _atom_site_fract_y
  _atom_site_fract_z
  _atom_site_occupancy
  _atom_site_charge
Tb  Tb1       1.0  0.99092  0.85127  0.96030  1.0000 2.0237678931
Tb  Tb2       1.0  0.00908  0.14873  0.03970  1.0000 2.0237678931
Tb  Tb3       1.0  0.35606  0.85596  0.46486  1.0000 2.0431532309
Tb  Tb4       1.0  0.64394  0.14404  0.53514  1.0000 2.0431532309
H   H1        1.0  0.28980  0.28390  0.87410  1.0000 0.1154076335
H   H2        1.0  0.71020  0.71610  0.12590  1.0000 0.1154076335
H   H3        1.0  0.48360  0.25330  0.67590  1.0000 0.1433226437
H   H4        1.0  0.51640  0.74670  0.32410  1.0000 0.1433226437
H   H5        1.0  0.20920  0.98430  0.72850  1.0000 0.1300170467
H   H6        1.0  0.79080  0.01570  0.27150  1.0000 0.1300170467
H   H7        1.0  0.45090  0.44480  0.92040  1.0000 0.0889110014
H   H8        1.0  0.54910  0.55520  0.07960  1.0000 0.0889110014
H   H9        1.0  0.37290  0.45810  0.84760  1.0000 0.1090072737
H   H10       1.0  0.62710  0.54190  0.15240  1.0000 0.1090072737
H   H11       1.0  0.53560  0.62970  0.92050  1.0000 0.1000695125
H   H12       1.0  0.46440  0.37030  0.07950  1.0000 0.1000695125
H   H13       1.0  0.61470  0.58740  0.86520  1.0000 0.1090072737
H   H14       1.0  0.38530  0.41260  0.13480  1.0000 0.1090072737
H   H15       1.0  0.47780  0.71840  0.67500  1.0000 0.148741816
H   H16       1.0  0.52220  0.28160  0.32500  1.0000 0.148741816
H   H17       1.0  0.73310  0.02400  0.76570  1.0000 0.1300170467
H   H18       1.0  0.26690  0.97600  0.23430  1.0000 0.1300170467
H   H19       1.0  0.69980  0.77240  0.88580  1.0000 0.1154076335
H   H20       1.0  0.30020  0.22760  0.11420  1.0000 0.1154076335
C   C1        1.0  0.13670  0.07460  0.86700  1.0000 0.6582732246
C   C2        1.0  0.86330  0.92540  0.13300  1.0000 0.6582732246
C   C3        1.0  0.23760  0.12540  0.81010  1.0000 -0.006239849
C   C4        1.0  0.76240  0.87460  0.18990  1.0000 -0.006239849
C   C5        1.0  0.30690  0.23970  0.82910  1.0000 -0.2302089288
C   C6        1.0  0.69310  0.76030  0.17090  1.0000 -0.2302089288
C   C7        1.0  0.39970  0.28620  0.78120  1.0000 0.2379949436
C   C8        1.0  0.60030  0.71380  0.21880  1.0000 0.2379949436
C   C9        1.0  0.42090  0.22080  0.70880  1.0000 -0.1697987571
C   C10       1.0  0.57910  0.77920  0.29120  1.0000 -0.1697987571
C   C11       1.0  0.34880  0.10760  0.68600  1.0000 -0.016409889
C   C12       1.0  0.65120  0.89240  0.31400  1.0000 -0.016409889
C   C13       1.0  0.25660  0.06020  0.74050  1.0000 -0.1111220821
C   C14       1.0  0.74340  0.93980  0.25950  1.0000 -0.1111220821
C   C15       1.0  0.36430  0.03460  0.60860  1.0000 0.6366482422
C   C16       1.0  0.63570  0.96540  0.39140  1.0000 0.6366482422
C   C17       1.0  0.44930  0.46580  0.86220  1.0000 -0.063275355
C   C18       1.0  0.55070  0.53420  0.13780  1.0000 -0.063275355
C   C19       1.0  0.53820  0.58290  0.86570  1.0000 -0.0667308933
C   C20       1.0  0.46180  0.41710  0.13430  1.0000 -0.0667308933
C   C21       1.0  0.57510  0.72710  0.78360  1.0000 0.2541700647
C   C22       1.0  0.42490  0.27290  0.21640  1.0000 0.2541700647
C   C23       1.0  0.54140  0.76680  0.71550  1.0000 -0.1590740226
C   C24       1.0  0.45860  0.23320  0.28450  1.0000 -0.1590740226
C   C25       1.0  0.59980  0.87680  0.70620  1.0000 -0.0393655851
C   C26       1.0  0.40020  0.12320  0.29380  1.0000 -0.0393655851
C   C27       1.0  0.69440  0.94950  0.76920  1.0000 -0.1029495254
C   C28       1.0  0.30560  0.05050  0.23080  1.0000 -0.1029495254
C   C29       1.0  0.73030  0.91030  0.83710  1.0000 -0.016409889
C   C30       1.0  0.26970  0.08970  0.16290  1.0000 -0.016409889
C   C31       1.0  0.67300  0.79900  0.84280  1.0000 -0.235148172
C   C32       1.0  0.32700  0.20100  0.15720  1.0000 -0.235148172
C   C33       1.0  0.82910  0.98670  0.90440  1.0000 0.6325085357
C   C34       1.0  0.17090  0.01330  0.09560  1.0000 0.6325085357
C   C35       1.0  0.56210  0.92200  0.63810  1.0000 0.6473164008
C   C36       1.0  0.43790  0.07800  0.36190  1.0000 0.6473164008
N   N1        1.0  0.84370  0.63610  0.00690  1.0000 0.7097728894
N   N2        1.0  0.15630  0.36390  0.99310  1.0000 0.7097728894
N   N3        1.0  0.27720  0.63660  0.51200  1.0000 0.6325085357
N   N4        1.0  0.72280  0.36340  0.48800  1.0000 0.6325085357
O   O1        1.0  0.95270  0.68280  0.02450  1.0000 -0.5244157865
O   O2        1.0  0.04730  0.31720  0.97550  1.0000 -0.5244157865
O   O3        1.0  0.80400  0.67870  0.95730  1.0000 -0.5556829526
O   O4        1.0  0.19600  0.32130  0.04270  1.0000 -0.5545353248
O   O5        1.0  0.78320  0.55440  0.03650  1.0000 -0.34725001
O   O6        1.0  0.21680  0.44560  0.96350  1.0000 -0.34725001
O   O7        1.0  0.10370  0.97450  0.87120  1.0000 -0.6765667751
O   O8        1.0  0.89630  0.02550  0.12880  1.0000 -0.6765667751
O   O9        1.0  0.09790  0.13610  0.90630  1.0000 -0.6222547843
O   O10       1.0  0.90210  0.86390  0.09370  1.0000 -0.6222547843
O   O11       1.0  0.47480  0.39740  0.79490  1.0000 -0.1697987571
O   O12       1.0  0.52520  0.60260  0.20510  1.0000 -0.1697987571
O   O13       1.0  0.51210  0.61840  0.78700  1.0000 -0.1590740226
O   O14       1.0  0.48790  0.38160  0.21300  1.0000 -0.1590740226
O   O15       1.0  0.88680  0.95110  0.94260  1.0000 -0.71961468
O   O16       1.0  0.11320  0.04890  0.05740  1.0000 -0.71961468
O   O17       1.0  0.85090  0.08870  0.92460  1.0000 -0.6128236904
O   O18       1.0  0.14910  0.91130  0.07540  1.0000 -0.6128236904
O   O19       1.0  0.62980  0.01500  0.62450  1.0000 -0.6579581454
O   O20       1.0  0.37020  0.98500  0.37550  1.0000 -0.6579581454
O   O21       1.0  0.46010  0.86230  0.59770  1.0000 -0.6579581454
O   O22       1.0  0.53990  0.13770  0.40230  1.0000 -0.6579581454
O   O23       1.0  0.28590  0.93900  0.58300  1.0000 -0.5906900868
O   O24       1.0  0.71410  0.06100  0.41700  1.0000 -0.5906900868
O   O25       1.0  0.45400  0.07320  0.56810  1.0000 -0.72799104
O   O26       1.0  0.54600  0.92680  0.43190  1.0000 -0.72799104
O   O27       1.0  0.22060  0.69290  0.52180  1.0000 -0.5906900868
O   O28       1.0  0.77940  0.30710  0.47820  1.0000 -0.5906900868
O   O29       1.0  0.36310  0.67140  0.46840  1.0000 -0.5341858818
O   O30       1.0  0.63690  0.32860  0.53160  1.0000 -0.5350620701
O   O31       1.0  0.24020  0.54840  0.53750  1.0000 -0.3024707689
O   O32       1.0  0.75980  0.45160  0.46250  1.0000 -0.3024707689
