# DDEC6 charges by PACMAN v1.1 (https://github.com/mtap-research/PACMAN-charge/)
data_2015[Zn][nts]3[ASR]2
_chemical_formula_sum              "Zn24 H136 C288 N72 O112"
_cell_length_a       31.5582
_cell_length_b       31.5582
_cell_length_c       31.5582
_cell_angle_alpha    120.288
_cell_angle_beta     120.288
_cell_angle_gamma    89.5013

_symmetry_space_group_name_H-M    "P 1"
_symmetry_Int_Tables_number       1

loop_
  _symmetry_equiv_pos_as_xyz
  'x, y, z'

loop_
  _atom_site_type_symbol
  _atom_site_label
  _atom_site_symmetry_multiplicity
  _atom_site_fract_x
  _atom_site_fract_y
  _atom_site_fract_z
  _atom_site_occupancy
  _atom_site_charge
Zn  Zn1       1.0  0.02648  0.97250  0.33422  1.0000 0.9269436678
Zn  Zn2       1.0  0.97250  0.63828  0.94602  1.0000 0.9269436678
Zn  Zn3       1.0  0.63828  0.69226  0.66578  1.0000 0.9269436678
Zn  Zn4       1.0  0.69226  0.02648  0.05398  1.0000 0.9269436678
Zn  Zn5       1.0  0.97352  0.02750  0.66578  1.0000 0.9269436678
Zn  Zn6       1.0  0.02750  0.36172  0.05398  1.0000 0.9269436678
Zn  Zn7       1.0  0.36172  0.30774  0.33422  1.0000 0.9269436678
Zn  Zn8       1.0  0.30774  0.97352  0.94602  1.0000 0.9269436678
Zn  Zn9       1.0  0.01983  0.97897  0.25098  1.0000 0.9269436678
Zn  Zn10      1.0  0.97897  0.72799  0.95914  1.0000 0.9269436678
Zn  Zn11      1.0  0.72799  0.76885  0.74902  1.0000 0.9269436678
Zn  Zn12      1.0  0.76885  0.01983  0.04086  1.0000 0.9269436678
Zn  Zn13      1.0  0.98017  0.02103  0.74902  1.0000 0.9269436678
Zn  Zn14      1.0  0.02103  0.27201  0.04086  1.0000 0.9269436678
Zn  Zn15      1.0  0.27201  0.23115  0.25098  1.0000 0.9269436678
Zn  Zn16      1.0  0.23115  0.98017  0.95914  1.0000 0.9269436678
Zn  Zn17      1.0  0.03888  0.25137  0.29025  1.0000 0.8965408845
Zn  Zn18      1.0  0.25137  0.96112  0.21249  1.0000 0.8965408845
Zn  Zn19      1.0  0.96112  0.74863  0.70975  1.0000 0.8965408845
Zn  Zn20      1.0  0.74863  0.03888  0.78751  1.0000 0.8965408845
Zn  Zn21      1.0  0.05112  0.33453  0.38565  1.0000 0.8965408845
Zn  Zn22      1.0  0.33453  0.94888  0.28341  1.0000 0.8965408845
Zn  Zn23      1.0  0.94888  0.66547  0.61435  1.0000 0.8965408845
Zn  Zn24      1.0  0.66547  0.05112  0.71659  1.0000 0.8965408845
H   H1        1.0  0.99840  0.95520  0.15100  1.0000 0.433769208
H   H2        1.0  0.95520  0.80420  0.95680  1.0000 0.433769208
H   H3        1.0  0.80420  0.84740  0.84900  1.0000 0.433769208
H   H4        1.0  0.84740  0.99840  0.04320  1.0000 0.433769208
H   H5        1.0  0.00160  0.04480  0.84900  1.0000 0.4364826647
H   H6        1.0  0.04480  0.19580  0.04320  1.0000 0.433769208
H   H7        1.0  0.19580  0.15260  0.15100  1.0000 0.433769208
H   H8        1.0  0.15260  0.00160  0.95680  1.0000 0.4364826647
H   H9        1.0  0.01130  0.97610  0.40740  1.0000 0.4364826647
H   H10       1.0  0.97610  0.56870  0.96480  1.0000 0.4364826647
H   H11       1.0  0.56870  0.60390  0.59260  1.0000 0.4364826647
H   H12       1.0  0.60390  0.01130  0.03520  1.0000 0.4364826647
H   H13       1.0  0.98870  0.02390  0.59260  1.0000 0.4364826647
H   H14       1.0  0.02390  0.43130  0.03520  1.0000 0.4364826647
H   H15       1.0  0.43130  0.39610  0.40740  1.0000 0.4364826647
H   H16       1.0  0.39610  0.98870  0.96480  1.0000 0.4364826647
H   H17       1.0  0.05330  0.14430  0.33880  1.0000 0.1597003549
H   H18       1.0  0.14430  0.80550  0.09100  1.0000 0.149093187
H   H19       1.0  0.80550  0.71450  0.66120  1.0000 0.1597003549
H   H20       1.0  0.71450  0.05330  0.90900  1.0000 0.1597003549
H   H21       1.0  0.94670  0.85570  0.66120  1.0000 0.1597003549
H   H22       1.0  0.85570  0.19450  0.90900  1.0000 0.1597003549
H   H23       1.0  0.19450  0.28550  0.33880  1.0000 0.1597003549
H   H24       1.0  0.28550  0.94670  0.09100  1.0000 0.1597003549
H   H25       1.0  0.05650  0.13260  0.46150  1.0000 0.149093187
H   H26       1.0  0.13260  0.67110  0.07610  1.0000 0.149093187
H   H27       1.0  0.67110  0.59500  0.53850  1.0000 0.149093187
H   H28       1.0  0.59500  0.05650  0.92390  1.0000 0.149093187
H   H29       1.0  0.94350  0.86740  0.53850  1.0000 0.149093187
H   H30       1.0  0.86740  0.32890  0.92390  1.0000 0.149093187
H   H31       1.0  0.32890  0.40500  0.46150  1.0000 0.149093187
H   H32       1.0  0.40500  0.94350  0.07610  1.0000 0.149093187
H   H33       1.0  0.06730  0.26940  0.48170  1.0000 0.1404143827
H   H34       1.0  0.26940  0.78770  0.20210  1.0000 0.1404143827
H   H35       1.0  0.78770  0.58560  0.51830  1.0000 0.1404143827
H   H36       1.0  0.58560  0.06730  0.79790  1.0000 0.1404143827
H   H37       1.0  0.93270  0.73060  0.51830  1.0000 0.1404143827
H   H38       1.0  0.73060  0.21230  0.79790  1.0000 0.1404143827
H   H39       1.0  0.21230  0.41440  0.48170  1.0000 0.1404143827
H   H40       1.0  0.41440  0.93270  0.20210  1.0000 0.1404143827
H   H41       1.0  0.04600  0.29300  0.55140  1.0000 0.1404143827
H   H42       1.0  0.29300  0.74160  0.24700  1.0000 0.1404143827
H   H43       1.0  0.74160  0.49460  0.44860  1.0000 0.1404143827
H   H44       1.0  0.49460  0.04600  0.75300  1.0000 0.1404143827
H   H45       1.0  0.95400  0.70700  0.44860  1.0000 0.1404143827
H   H46       1.0  0.70700  0.25840  0.75300  1.0000 0.1404143827
H   H47       1.0  0.25840  0.50540  0.55140  1.0000 0.1404143827
H   H48       1.0  0.50540  0.95400  0.24700  1.0000 0.1404143827
H   H49       1.0  0.05170  0.27150  0.68620  1.0000 0.1232068396
H   H50       1.0  0.27150  0.58530  0.21980  1.0000 0.1232068396
H   H51       1.0  0.58530  0.36550  0.31380  1.0000 0.1232068396
H   H52       1.0  0.36550  0.05170  0.78020  1.0000 0.1232068396
H   H53       1.0  0.94830  0.72850  0.31380  1.0000 0.1232068396
H   H54       1.0  0.72850  0.41470  0.78020  1.0000 0.1232068396
H   H55       1.0  0.41470  0.63450  0.68620  1.0000 0.1232068396
H   H56       1.0  0.63450  0.94830  0.21980  1.0000 0.1232068396
H   H57       1.0  0.03900  0.36020  0.62620  1.0000 0.1232068396
H   H58       1.0  0.36020  0.73400  0.32120  1.0000 0.1232068396
H   H59       1.0  0.73400  0.41280  0.37380  1.0000 0.1232068396
H   H60       1.0  0.41280  0.03900  0.67880  1.0000 0.1232068396
H   H61       1.0  0.96100  0.63980  0.37380  1.0000 0.1232068396
H   H62       1.0  0.63980  0.26600  0.67880  1.0000 0.1232068396
H   H63       1.0  0.26600  0.58720  0.62620  1.0000 0.1232068396
H   H64       1.0  0.58720  0.96100  0.32120  1.0000 0.1232068396
H   H65       1.0  0.02400  0.40520  0.76020  1.0000 0.1232068396
H   H66       1.0  0.40520  0.64500  0.38120  1.0000 0.1232068396
H   H67       1.0  0.64500  0.26380  0.23980  1.0000 0.1232068396
H   H68       1.0  0.26380  0.02400  0.61880  1.0000 0.1232068396
H   H69       1.0  0.97600  0.59480  0.23980  1.0000 0.1232068396
H   H70       1.0  0.59480  0.35500  0.61880  1.0000 0.1232068396
H   H71       1.0  0.35500  0.73620  0.76020  1.0000 0.1232068396
H   H72       1.0  0.73620  0.97600  0.38120  1.0000 0.1232068396
H   H73       1.0  0.03170  0.25250  0.73980  1.0000 0.1404143827
H   H74       1.0  0.25250  0.51270  0.22080  1.0000 0.1404143827
H   H75       1.0  0.51270  0.29190  0.26020  1.0000 0.1404143827
H   H76       1.0  0.29190  0.03170  0.77920  1.0000 0.1404143827
H   H77       1.0  0.96830  0.74750  0.26020  1.0000 0.1404143827
H   H78       1.0  0.74750  0.48730  0.77920  1.0000 0.1404143827
H   H79       1.0  0.48730  0.70810  0.73980  1.0000 0.1404143827
H   H80       1.0  0.70810  0.96830  0.22080  1.0000 0.1404143827
H   H81       1.0  0.01160  0.47970  0.76210  1.0000 0.1404143827
H   H82       1.0  0.47970  0.71760  0.46810  1.0000 0.1404143827
H   H83       1.0  0.71760  0.24950  0.23790  1.0000 0.1404143827
H   H84       1.0  0.24950  0.01160  0.53190  1.0000 0.1404143827
H   H85       1.0  0.98840  0.52030  0.23790  1.0000 0.1404143827
H   H86       1.0  0.52030  0.28240  0.53190  1.0000 0.1404143827
H   H87       1.0  0.28240  0.75050  0.76210  1.0000 0.1404143827
H   H88       1.0  0.75050  0.98840  0.46810  1.0000 0.1404143827
H   H89       1.0  0.01460  0.19470  0.75910  1.0000 0.149093187
H   H90       1.0  0.19470  0.43560  0.18010  1.0000 0.149093187
H   H91       1.0  0.43560  0.25550  0.24090  1.0000 0.149093187
H   H92       1.0  0.25550  0.01460  0.81990  1.0000 0.149093187
H   H93       1.0  0.98540  0.80530  0.24090  1.0000 0.149093187
H   H94       1.0  0.80530  0.56440  0.81990  1.0000 0.149093187
H   H95       1.0  0.56440  0.74450  0.75910  1.0000 0.149093187
H   H96       1.0  0.74450  0.98540  0.18010  1.0000 0.149093187
H   H97       1.0  0.03720  0.32070  0.90770  1.0000 0.149093187
H   H98       1.0  0.32070  0.41300  0.28350  1.0000 0.149093187
H   H99       1.0  0.41300  0.12950  0.09230  1.0000 0.149093187
H   H100      1.0  0.12950  0.03720  0.71650  1.0000 0.149093187
H   H101      1.0  0.96280  0.67930  0.09230  1.0000 0.149093187
H   H102      1.0  0.67930  0.58700  0.71650  1.0000 0.149093187
H   H103      1.0  0.58700  0.87050  0.90770  1.0000 0.149093187
H   H104      1.0  0.87050  0.96280  0.28350  1.0000 0.149093187
H   H105      1.0  0.98660  0.56710  0.67790  1.0000 0.1404143827
H   H106      1.0  0.56710  0.88920  0.58050  1.0000 0.1404143827
H   H107      1.0  0.88920  0.30870  0.32210  1.0000 0.1404143827
H   H108      1.0  0.30870  0.98660  0.41950  1.0000 0.1404143827
H   H109      1.0  0.01340  0.43290  0.32210  1.0000 0.1404143827
H   H110      1.0  0.43290  0.11080  0.41950  1.0000 0.1404143827
H   H111      1.0  0.11080  0.69130  0.67790  1.0000 0.1404143827
H   H112      1.0  0.69130  0.01340  0.58050  1.0000 0.1404143827
H   H113      1.0  0.97640  0.68360  0.80520  1.0000 0.149093187
H   H114      1.0  0.68360  0.87840  0.70720  1.0000 0.1597003549
H   H115      1.0  0.87840  0.17120  0.19480  1.0000 0.1597003549
H   H116      1.0  0.17120  0.97640  0.29280  1.0000 0.1597003549
H   H117      1.0  0.02360  0.31640  0.19480  1.0000 0.1597003549
H   H118      1.0  0.31640  0.12160  0.29280  1.0000 0.1597003549
H   H119      1.0  0.12160  0.82880  0.80520  1.0000 0.1597003549
H   H120      1.0  0.82880  0.02360  0.70720  1.0000 0.1597003549
H   H121      1.0  0.01680  0.18170  0.88070  1.0000 0.149093187
H   H122      1.0  0.18170  0.30100  0.16490  1.0000 0.149093187
H   H123      1.0  0.30100  0.13610  0.11930  1.0000 0.149093187
H   H124      1.0  0.13610  0.01680  0.83510  1.0000 0.149093187
H   H125      1.0  0.98320  0.81830  0.11930  1.0000 0.149093187
H   H126      1.0  0.81830  0.69900  0.83510  1.0000 0.149093187
H   H127      1.0  0.69900  0.86390  0.88070  1.0000 0.149093187
H   H128      1.0  0.86390  0.98320  0.16490  1.0000 0.149093187
H   H129      1.0  0.99580  0.55710  0.80410  1.0000 0.149093187
H   H130      1.0  0.55710  0.75300  0.56130  1.0000 0.149093187
H   H131      1.0  0.75300  0.19170  0.19590  1.0000 0.149093187
H   H132      1.0  0.19170  0.99580  0.43870  1.0000 0.149093187
H   H133      1.0  0.00420  0.44290  0.19590  1.0000 0.149093187
H   H134      1.0  0.44290  0.24700  0.43870  1.0000 0.149093187
H   H135      1.0  0.24700  0.80830  0.80410  1.0000 0.149093187
H   H136      1.0  0.80830  0.00420  0.56130  1.0000 0.149093187
C   C1        1.0  0.06025  0.21163  0.40704  1.0000 0.0026452313
C   C2        1.0  0.21163  0.80459  0.15138  1.0000 0.0026452313
C   C3        1.0  0.80459  0.65321  0.59296  1.0000 0.0026452313
C   C4        1.0  0.65321  0.06025  0.84862  1.0000 0.0068543961
C   C5        1.0  0.93975  0.78837  0.59296  1.0000 0.0026452313
C   C6        1.0  0.78837  0.19541  0.84862  1.0000 0.0026452313
C   C7        1.0  0.19541  0.34679  0.40704  1.0000 0.0026452313
C   C8        1.0  0.34679  0.93975  0.15138  1.0000 0.0026452313
C   C9        1.0  0.05785  0.24275  0.38236  1.0000 0.5964411406
C   C10       1.0  0.24275  0.86039  0.18490  1.0000 0.5964411406
C   C11       1.0  0.86039  0.67549  0.61764  1.0000 0.5964411406
C   C12       1.0  0.67549  0.05785  0.81510  1.0000 0.5964411406
C   C13       1.0  0.94215  0.75725  0.61764  1.0000 0.5964411406
C   C14       1.0  0.75725  0.13961  0.81510  1.0000 0.5964411406
C   C15       1.0  0.13961  0.32451  0.38236  1.0000 0.5964411406
C   C16       1.0  0.32451  0.94215  0.18490  1.0000 0.5964411406
C   C17       1.0  0.05562  0.15937  0.37423  1.0000 -0.1012818242
C   C18       1.0  0.15937  0.78514  0.10375  1.0000 -0.1012818242
C   C19       1.0  0.78514  0.68139  0.62577  1.0000 -0.1012818242
C   C20       1.0  0.68139  0.05562  0.89625  1.0000 -0.1012818242
C   C21       1.0  0.94438  0.84063  0.62577  1.0000 -0.1012818242
C   C22       1.0  0.84063  0.21486  0.89625  1.0000 -0.1012818242
C   C23       1.0  0.21486  0.31861  0.37423  1.0000 -0.1012818242
C   C24       1.0  0.31861  0.94438  0.10375  1.0000 -0.1012818242
C   C25       1.0  0.05454  0.13013  0.39533  1.0000 0.0068543961
C   C26       1.0  0.13013  0.73480  0.07559  1.0000 0.0068543961
C   C27       1.0  0.73480  0.65921  0.60467  1.0000 0.0068543961
C   C28       1.0  0.65921  0.05454  0.92441  1.0000 0.0068543961
C   C29       1.0  0.94546  0.86987  0.60467  1.0000 0.0068543961
C   C30       1.0  0.86987  0.26520  0.92441  1.0000 0.0068543961
C   C31       1.0  0.26520  0.34079  0.39533  1.0000 0.0068543961
C   C32       1.0  0.34079  0.94546  0.07559  1.0000 0.0068543961
C   C33       1.0  0.04596  0.07264  0.35856  1.0000 0.5891867342
C   C34       1.0  0.07264  0.71408  0.02668  1.0000 0.5891867342
C   C35       1.0  0.71408  0.68740  0.64144  1.0000 0.5891867342
C   C36       1.0  0.68740  0.04596  0.97332  1.0000 0.5891867342
C   C37       1.0  0.95404  0.92736  0.64144  1.0000 0.5891867342
C   C38       1.0  0.92736  0.28592  0.97332  1.0000 0.5891867342
C   C39       1.0  0.28592  0.31260  0.35856  1.0000 0.5891867342
C   C40       1.0  0.31260  0.95404  0.02668  1.0000 0.5891867342
C   C41       1.0  0.05779  0.15251  0.44796  1.0000 -0.1509471348
C   C42       1.0  0.15251  0.70455  0.09472  1.0000 -0.1509471348
C   C43       1.0  0.70455  0.60983  0.55204  1.0000 -0.1572632474
C   C44       1.0  0.60983  0.05779  0.90528  1.0000 -0.1509471348
C   C45       1.0  0.94221  0.84749  0.55204  1.0000 -0.1509471348
C   C46       1.0  0.84749  0.29545  0.90528  1.0000 -0.1509471348
C   C47       1.0  0.29545  0.39017  0.44796  1.0000 -0.1572632474
C   C48       1.0  0.39017  0.94221  0.09472  1.0000 -0.1572632474
C   C49       1.0  0.06408  0.23448  0.46002  1.0000 -0.1698839357
C   C50       1.0  0.23448  0.77446  0.17040  1.0000 -0.1698839357
C   C51       1.0  0.77446  0.60406  0.53998  1.0000 -0.1698839357
C   C52       1.0  0.60406  0.06408  0.82960  1.0000 -0.1698839357
C   C53       1.0  0.93592  0.76552  0.53998  1.0000 -0.1698839357
C   C54       1.0  0.76552  0.22554  0.82960  1.0000 -0.1698839357
C   C55       1.0  0.22554  0.39594  0.46002  1.0000 -0.1698839357
C   C56       1.0  0.39594  0.93592  0.17040  1.0000 -0.1698839357
C   C57       1.0  0.06301  0.20478  0.48049  1.0000 0.149093187
C   C58       1.0  0.20478  0.72429  0.14177  1.0000 0.149093187
C   C59       1.0  0.72429  0.58252  0.51951  1.0000 0.149093187
C   C60       1.0  0.58252  0.06301  0.85823  1.0000 0.149093187
C   C61       1.0  0.93699  0.79522  0.51951  1.0000 0.149093187
C   C62       1.0  0.79522  0.27571  0.85823  1.0000 0.149093187
C   C63       1.0  0.27571  0.41748  0.48049  1.0000 0.149093187
C   C64       1.0  0.41748  0.93699  0.14177  1.0000 0.149093187
C   C65       1.0  0.05385  0.26947  0.56140  1.0000 -0.1698839357
C   C66       1.0  0.26947  0.70807  0.21562  1.0000 -0.1698839357
C   C67       1.0  0.70807  0.49245  0.43860  1.0000 -0.1698839357
C   C68       1.0  0.49245  0.05385  0.78438  1.0000 -0.1754071953
C   C69       1.0  0.94615  0.73053  0.43860  1.0000 -0.1754071953
C   C70       1.0  0.73053  0.29193  0.78438  1.0000 -0.1754071953
C   C71       1.0  0.29193  0.50755  0.56140  1.0000 -0.1698839357
C   C72       1.0  0.50755  0.94615  0.21562  1.0000 -0.1698839357
C   C73       1.0  0.05734  0.27271  0.60757  1.0000 0.1597003549
C   C74       1.0  0.27271  0.66514  0.21537  1.0000 0.1597003549
C   C75       1.0  0.66514  0.44977  0.39243  1.0000 0.1597003549
C   C76       1.0  0.44977  0.05734  0.78463  1.0000 0.1597003549
C   C77       1.0  0.94266  0.72729  0.39243  1.0000 0.1597003549
C   C78       1.0  0.72729  0.33486  0.78463  1.0000 0.1597003549
C   C79       1.0  0.33486  0.55023  0.60757  1.0000 0.1597003549
C   C80       1.0  0.55023  0.94266  0.21537  1.0000 0.1597003549
C   C81       1.0  0.04539  0.30074  0.68729  1.0000 -0.1509471348
C   C82       1.0  0.30074  0.61345  0.25535  1.0000 -0.1509471348
C   C83       1.0  0.61345  0.35810  0.31271  1.0000 -0.1509471348
C   C84       1.0  0.35810  0.04539  0.74465  1.0000 -0.1509471348
C   C85       1.0  0.95461  0.69926  0.31271  1.0000 -0.1509471348
C   C86       1.0  0.69926  0.38655  0.74465  1.0000 -0.1509471348
C   C87       1.0  0.38655  0.64190  0.68729  1.0000 -0.1509471348
C   C88       1.0  0.64190  0.95461  0.25535  1.0000 -0.1509471348
C   C89       1.0  0.04638  0.30985  0.64901  1.0000 0.077191332
C   C90       1.0  0.30985  0.66084  0.26347  1.0000 0.077191332
C   C91       1.0  0.66084  0.39737  0.35099  1.0000 0.077191332
C   C92       1.0  0.39737  0.04638  0.73653  1.0000 0.077191332
C   C93       1.0  0.95362  0.69015  0.35099  1.0000 0.077191332
C   C94       1.0  0.69015  0.33916  0.73653  1.0000 0.077191332
C   C95       1.0  0.33916  0.60263  0.64901  1.0000 0.077191332
C   C96       1.0  0.60263  0.95362  0.26347  1.0000 0.077191332
C   C97       1.0  0.03787  0.35406  0.65149  1.0000 -0.1509471348
C   C98       1.0  0.35406  0.70257  0.31619  1.0000 -0.1509471348
C   C99       1.0  0.70257  0.38638  0.34851  1.0000 -0.1509471348
C   C100      1.0  0.38638  0.03787  0.68381  1.0000 -0.1509471348
C   C101      1.0  0.96213  0.64594  0.34851  1.0000 -0.1509471348
C   C102      1.0  0.64594  0.29743  0.68381  1.0000 -0.1509471348
C   C103      1.0  0.29743  0.61362  0.65149  1.0000 -0.1509471348
C   C104      1.0  0.61362  0.96213  0.31619  1.0000 -0.1509471348
C   C105      1.0  0.03492  0.33566  0.72720  1.0000 0.0685620355
C   C106      1.0  0.33566  0.60846  0.30074  1.0000 0.0685620355
C   C107      1.0  0.60846  0.30772  0.27280  1.0000 0.0685620355
C   C108      1.0  0.30772  0.03492  0.69926  1.0000 0.0685620355
C   C109      1.0  0.96508  0.66434  0.27280  1.0000 0.0685620355
C   C110      1.0  0.66434  0.39154  0.69926  1.0000 0.0685620355
C   C111      1.0  0.39154  0.69228  0.72720  1.0000 0.0685620355
C   C112      1.0  0.69228  0.96508  0.30074  1.0000 0.0685620355
C   C113      1.0  0.02819  0.38064  0.73113  1.0000 -0.1509471348
C   C114      1.0  0.38064  0.64951  0.35245  1.0000 -0.1509471348
C   C115      1.0  0.64951  0.29706  0.26887  1.0000 -0.1509471348
C   C116      1.0  0.29706  0.02819  0.64755  1.0000 -0.1509471348
C   C117      1.0  0.97181  0.61936  0.26887  1.0000 -0.1509471348
C   C118      1.0  0.61936  0.35049  0.64755  1.0000 -0.1509471348
C   C119      1.0  0.35049  0.70294  0.73113  1.0000 -0.1442678354
C   C120      1.0  0.70294  0.97181  0.35245  1.0000 -0.1509471348
C   C121      1.0  0.01878  0.43432  0.69286  1.0000 0.1699559949
C   C122      1.0  0.43432  0.74146  0.41554  1.0000 0.1699559949
C   C123      1.0  0.74146  0.32592  0.30714  1.0000 0.175983545
C   C124      1.0  0.32592  0.01878  0.58446  1.0000 0.1699559949
C   C125      1.0  0.98122  0.56568  0.30714  1.0000 0.1699559949
C   C126      1.0  0.56568  0.25854  0.58446  1.0000 0.175983545
C   C127      1.0  0.25854  0.67408  0.69286  1.0000 0.1699559949
C   C128      1.0  0.67408  0.98122  0.41554  1.0000 0.1699559949
C   C129      1.0  0.02769  0.38902  0.69169  1.0000 0.0685620355
C   C130      1.0  0.38902  0.69733  0.36133  1.0000 0.0685620355
C   C131      1.0  0.69733  0.33600  0.30831  1.0000 0.0685620355
C   C132      1.0  0.33600  0.02769  0.63867  1.0000 0.0685620355
C   C133      1.0  0.97231  0.61098  0.30831  1.0000 0.0685620355
C   C134      1.0  0.61098  0.30267  0.63867  1.0000 0.0685620355
C   C135      1.0  0.30267  0.66400  0.69169  1.0000 0.0685620355
C   C136      1.0  0.66400  0.97231  0.36133  1.0000 0.0685620355
C   C137      1.0  0.03162  0.28397  0.76703  1.0000 -0.1698839357
C   C138      1.0  0.28397  0.51694  0.25235  1.0000 -0.1698839357
C   C139      1.0  0.51694  0.26459  0.23297  1.0000 -0.1698839357
C   C140      1.0  0.26459  0.03162  0.74765  1.0000 -0.1572632474
C   C141      1.0  0.96838  0.71603  0.23297  1.0000 -0.1698839357
C   C142      1.0  0.71603  0.48306  0.74765  1.0000 -0.1698839357
C   C143      1.0  0.48306  0.73541  0.76703  1.0000 -0.1698839357
C   C144      1.0  0.73541  0.96838  0.25235  1.0000 -0.1698839357
C   C145      1.0  0.03335  0.32722  0.76747  1.0000 0.1699559949
C   C146      1.0  0.32722  0.55975  0.29387  1.0000 0.1699559949
C   C147      1.0  0.55975  0.26588  0.23253  1.0000 0.1699559949
C   C148      1.0  0.26588  0.03335  0.70613  1.0000 0.1699559949
C   C149      1.0  0.96665  0.67278  0.23253  1.0000 0.1699559949
C   C150      1.0  0.67278  0.44025  0.70613  1.0000 0.1699559949
C   C151      1.0  0.44025  0.73412  0.76747  1.0000 0.1699559949
C   C152      1.0  0.73412  0.96665  0.29387  1.0000 0.1699559949
C   C153      1.0  0.01137  0.47513  0.73052  1.0000 -0.1698839357
C   C154      1.0  0.47513  0.74461  0.46376  1.0000 -0.1698839357
C   C155      1.0  0.74461  0.28085  0.26948  1.0000 -0.1754071953
C   C156      1.0  0.28085  0.01137  0.53624  1.0000 -0.1754071953
C   C157      1.0  0.98863  0.52487  0.26948  1.0000 -0.1754071953
C   C158      1.0  0.52487  0.25539  0.53624  1.0000 -0.1754071953
C   C159      1.0  0.25539  0.71915  0.73052  1.0000 -0.1754071953
C   C160      1.0  0.71915  0.98863  0.46376  1.0000 -0.1754071953
C   C161      1.0  0.01358  0.17918  0.81380  1.0000 0.0026452313
C   C162      1.0  0.17918  0.36538  0.16560  1.0000 0.0026452313
C   C163      1.0  0.36538  0.19978  0.18620  1.0000 0.0026452313
C   C164      1.0  0.19978  0.01358  0.83440  1.0000 0.0026452313
C   C165      1.0  0.98642  0.82082  0.18620  1.0000 0.0026452313
C   C166      1.0  0.82082  0.63462  0.83440  1.0000 0.0026452313
C   C167      1.0  0.63462  0.80022  0.81380  1.0000 0.0026452313
C   C168      1.0  0.80022  0.98642  0.16560  1.0000 0.0026452313
C   C169      1.0  0.01770  0.20961  0.79497  1.0000 -0.1698839357
C   C170      1.0  0.20961  0.41464  0.19191  1.0000 -0.1698839357
C   C171      1.0  0.41464  0.22273  0.20503  1.0000 -0.1698839357
C   C172      1.0  0.22273  0.01770  0.80809  1.0000 -0.1698839357
C   C173      1.0  0.98230  0.79039  0.20503  1.0000 -0.1754071953
C   C174      1.0  0.79039  0.58536  0.80809  1.0000 -0.1698839357
C   C175      1.0  0.58536  0.77727  0.79497  1.0000 -0.1698839357
C   C176      1.0  0.77727  0.98230  0.19191  1.0000 -0.1698839357
C   C177      1.0  0.03130  0.28525  0.88429  1.0000 -0.1572632474
C   C178      1.0  0.28525  0.40096  0.25395  1.0000 -0.1509471348
C   C179      1.0  0.40096  0.14701  0.11571  1.0000 -0.1509471348
C   C180      1.0  0.14701  0.03130  0.74605  1.0000 -0.1509471348
C   C181      1.0  0.96870  0.71475  0.11571  1.0000 -0.1572632474
C   C182      1.0  0.71475  0.59904  0.74605  1.0000 -0.1572632474
C   C183      1.0  0.59904  0.85299  0.88429  1.0000 -0.1509471348
C   C184      1.0  0.85299  0.96870  0.25395  1.0000 -0.1572632474
C   C185      1.0  0.02654  0.26242  0.83084  1.0000 0.149093187
C   C186      1.0  0.26242  0.43158  0.23588  1.0000 0.149093187
C   C187      1.0  0.43158  0.19570  0.16916  1.0000 0.149093187
C   C188      1.0  0.19570  0.02654  0.76412  1.0000 0.149093187
C   C189      1.0  0.97346  0.73758  0.16916  1.0000 0.149093187
C   C190      1.0  0.73758  0.56842  0.76412  1.0000 0.149093187
C   C191      1.0  0.56842  0.80430  0.83084  1.0000 0.149093187
C   C192      1.0  0.80430  0.97346  0.23588  1.0000 0.149093187
C   C193      1.0  0.98039  0.62974  0.73759  1.0000 -0.0044820042
C   C194      1.0  0.62974  0.89215  0.64935  1.0000 -0.0053647844
C   C195      1.0  0.89215  0.24280  0.26241  1.0000 -0.0044820042
C   C196      1.0  0.24280  0.98039  0.35065  1.0000 -0.0053647844
C   C197      1.0  0.01961  0.37026  0.26241  1.0000 -0.0044820042
C   C198      1.0  0.37026  0.10785  0.35065  1.0000 -0.0044820042
C   C199      1.0  0.10785  0.75720  0.73759  1.0000 -0.0044820042
C   C200      1.0  0.75720  0.01961  0.64935  1.0000 -0.0044820042
C   C201      1.0  0.98712  0.58176  0.71224  1.0000 -0.1509471348
C   C202      1.0  0.58176  0.86952  0.59464  1.0000 -0.1442678354
C   C203      1.0  0.86952  0.27488  0.28776  1.0000 -0.1509471348
C   C204      1.0  0.27488  0.98712  0.40536  1.0000 -0.1442678354
C   C205      1.0  0.01288  0.41824  0.28776  1.0000 -0.1509471348
C   C206      1.0  0.41824  0.13048  0.40536  1.0000 -0.1509471348
C   C207      1.0  0.13048  0.72512  0.71224  1.0000 -0.1509471348
C   C208      1.0  0.72512  0.01288  0.59464  1.0000 -0.1509471348
C   C209      1.0  0.99460  0.55591  0.73891  1.0000 0.149093187
C   C210      1.0  0.55591  0.81700  0.56131  1.0000 0.149093187
C   C211      1.0  0.81700  0.25569  0.26109  1.0000 0.149093187
C   C212      1.0  0.25569  0.99460  0.43869  1.0000 0.149093187
C   C213      1.0  0.00540  0.44409  0.26109  1.0000 0.149093187
C   C214      1.0  0.44409  0.18300  0.43869  1.0000 0.149093187
C   C215      1.0  0.18300  0.74431  0.73891  1.0000 0.149093187
C   C216      1.0  0.74431  0.00540  0.56131  1.0000 0.149093187
C   C217      1.0  0.98023  0.65105  0.78798  1.0000 -0.1012818242
C   C218      1.0  0.65105  0.86307  0.67082  1.0000 -0.1012818242
C   C219      1.0  0.86307  0.19225  0.21202  1.0000 -0.1012818242
C   C220      1.0  0.19225  0.98023  0.32918  1.0000 -0.1012818242
C   C221      1.0  0.01977  0.34895  0.21202  1.0000 -0.1012818242
C   C222      1.0  0.34895  0.13693  0.32918  1.0000 -0.1012818242
C   C223      1.0  0.13693  0.80775  0.78798  1.0000 -0.1012818242
C   C224      1.0  0.80775  0.01977  0.67082  1.0000 -0.1012818242
C   C225      1.0  0.01886  0.20188  0.86790  1.0000 -0.1012818242
C   C226      1.0  0.20188  0.33398  0.18302  1.0000 -0.1012818242
C   C227      1.0  0.33398  0.15096  0.13210  1.0000 -0.1012818242
C   C228      1.0  0.15096  0.01886  0.81698  1.0000 -0.1012818242
C   C229      1.0  0.98114  0.79812  0.13210  1.0000 -0.1012818242
C   C230      1.0  0.79812  0.66602  0.81698  1.0000 -0.1012818242
C   C231      1.0  0.66602  0.84904  0.86790  1.0000 -0.1012818242
C   C232      1.0  0.84904  0.98114  0.18302  1.0000 -0.1012818242
C   C233      1.0  0.00146  0.12176  0.77456  1.0000 0.5891867342
C   C234      1.0  0.12176  0.34720  0.12030  1.0000 0.5891867342
C   C235      1.0  0.34720  0.22690  0.22544  1.0000 0.5891867342
C   C236      1.0  0.22690  0.00146  0.87970  1.0000 0.5891867342
C   C237      1.0  0.99854  0.87824  0.22544  1.0000 0.5891867342
C   C238      1.0  0.87824  0.65280  0.87970  1.0000 0.5891867342
C   C239      1.0  0.65280  0.77310  0.77456  1.0000 0.5891867342
C   C240      1.0  0.77310  0.99854  0.12030  1.0000 0.5891867342
C   C241      1.0  0.98590  0.62367  0.81275  1.0000 0.0026452313
C   C242      1.0  0.62367  0.81092  0.63777  1.0000 0.0026452313
C   C243      1.0  0.81092  0.17315  0.18725  1.0000 0.0026452313
C   C244      1.0  0.17315  0.98590  0.36223  1.0000 0.0026452313
C   C245      1.0  0.01410  0.37633  0.18725  1.0000 0.0026452313
C   C246      1.0  0.37633  0.18908  0.36223  1.0000 0.0026452313
C   C247      1.0  0.18908  0.82685  0.81275  1.0000 0.0026452313
C   C248      1.0  0.82685  0.01410  0.63777  1.0000 0.0026452313
C   C249      1.0  0.02716  0.25450  0.90258  1.0000 0.0068543961
C   C250      1.0  0.25450  0.35192  0.22734  1.0000 0.0068543961
C   C251      1.0  0.35192  0.12458  0.09742  1.0000 0.0068543961
C   C252      1.0  0.12458  0.02716  0.77266  1.0000 0.0068543961
C   C253      1.0  0.97284  0.74550  0.09742  1.0000 0.0068543961
C   C254      1.0  0.74550  0.64808  0.77266  1.0000 0.0068543961
C   C255      1.0  0.64808  0.87542  0.90258  1.0000 0.0068543961
C   C256      1.0  0.87542  0.97284  0.22734  1.0000 0.0068543961
C   C257      1.0  0.02906  0.27870  0.95890  1.0000 0.5891867342
C   C258      1.0  0.27870  0.31980  0.24964  1.0000 0.5891867342
C   C259      1.0  0.31980  0.07016  0.04110  1.0000 0.5891867342
C   C260      1.0  0.07016  0.02906  0.75036  1.0000 0.5891867342
C   C261      1.0  0.97094  0.72130  0.04110  1.0000 0.5891867342
C   C262      1.0  0.72130  0.68020  0.75036  1.0000 0.5891867342
C   C263      1.0  0.68020  0.92984  0.95890  1.0000 0.5891867342
C   C264      1.0  0.92984  0.97094  0.24964  1.0000 0.5891867342
C   C265      1.0  0.99263  0.57573  0.78802  1.0000 -0.1698839357
C   C266      1.0  0.57573  0.78771  0.58310  1.0000 -0.1698839357
C   C267      1.0  0.78771  0.20461  0.21198  1.0000 -0.1698839357
C   C268      1.0  0.20461  0.99263  0.41690  1.0000 -0.1698839357
C   C269      1.0  0.00737  0.42427  0.21198  1.0000 -0.1698839357
C   C270      1.0  0.42427  0.21229  0.41690  1.0000 -0.1572632474
C   C271      1.0  0.21229  0.79539  0.78802  1.0000 -0.1698839357
C   C272      1.0  0.79539  0.00737  0.58310  1.0000 -0.1698839357
C   C273      1.0  0.97113  0.65767  0.70832  1.0000 0.5964411406
C   C274      1.0  0.65767  0.94935  0.68654  1.0000 0.5891867342
C   C275      1.0  0.94935  0.26281  0.29168  1.0000 0.5891867342
C   C276      1.0  0.26281  0.97113  0.31346  1.0000 0.5891867342
C   C277      1.0  0.02887  0.34233  0.29168  1.0000 0.5891867342
C   C278      1.0  0.34233  0.05065  0.31346  1.0000 0.5891867342
C   C279      1.0  0.05065  0.73719  0.70832  1.0000 0.5964411406
C   C280      1.0  0.73719  0.02887  0.68654  1.0000 0.5891867342
C   C281      1.0  0.98316  0.64595  0.86579  1.0000 0.5891867342
C   C282      1.0  0.64595  0.78016  0.66279  1.0000 0.5891867342
C   C283      1.0  0.78016  0.11737  0.13421  1.0000 0.5891867342
C   C284      1.0  0.11737  0.98316  0.33721  1.0000 0.5891867342
C   C285      1.0  0.01684  0.35405  0.13421  1.0000 0.5891867342
C   C286      1.0  0.35405  0.21984  0.33721  1.0000 0.5891867342
C   C287      1.0  0.21984  0.88263  0.86579  1.0000 0.5891867342
C   C288      1.0  0.88263  0.01684  0.66279  1.0000 0.5891867342
N   N1        1.0  0.06392  0.22611  0.53247  1.0000 0.1597003549
N   N2        1.0  0.22611  0.69364  0.16219  1.0000 0.1597003549
N   N3        1.0  0.69364  0.53145  0.46753  1.0000 0.1597003549
N   N4        1.0  0.53145  0.06392  0.83781  1.0000 0.1597003549
N   N5        1.0  0.93608  0.77389  0.46753  1.0000 0.1597003549
N   N6        1.0  0.77389  0.30636  0.83781  1.0000 0.1699559949
N   N7        1.0  0.30636  0.46855  0.53247  1.0000 0.1597003549
N   N8        1.0  0.46855  0.93608  0.16219  1.0000 0.1597003549
N   N9        1.0  0.06546  0.20045  0.55439  1.0000 -0.1012818242
N   N10       1.0  0.20045  0.64606  0.13499  1.0000 -0.1012818242
N   N11       1.0  0.64606  0.51107  0.44561  1.0000 -0.1012818242
N   N12       1.0  0.51107  0.06546  0.86501  1.0000 -0.1012818242
N   N13       1.0  0.93454  0.79955  0.44561  1.0000 -0.1012818242
N   N14       1.0  0.79955  0.35394  0.86501  1.0000 -0.1012818242
N   N15       1.0  0.35394  0.48893  0.55439  1.0000 -0.1012818242
N   N16       1.0  0.48893  0.93454  0.13499  1.0000 -0.1012818242
N   N17       1.0  0.06608  0.23031  0.60303  1.0000 -0.2282661231
N   N18       1.0  0.23031  0.62728  0.16423  1.0000 -0.2282661231
N   N19       1.0  0.62728  0.46305  0.39697  1.0000 -0.2282661231
N   N20       1.0  0.46305  0.06608  0.83577  1.0000 -0.2282661231
N   N21       1.0  0.93392  0.76969  0.39697  1.0000 -0.2282661231
N   N22       1.0  0.76969  0.37272  0.83577  1.0000 -0.2282661231
N   N23       1.0  0.37272  0.53695  0.60303  1.0000 -0.2282661231
N   N24       1.0  0.53695  0.93392  0.16423  1.0000 -0.2282661231
N   N25       1.0  0.02974  0.29471  0.81261  1.0000 0.1597003549
N   N26       1.0  0.29471  0.48210  0.26497  1.0000 0.1597003549
N   N27       1.0  0.48210  0.21713  0.18739  1.0000 0.1597003549
N   N28       1.0  0.21713  0.02974  0.73503  1.0000 0.1699559949
N   N29       1.0  0.97026  0.70529  0.18739  1.0000 0.1597003549
N   N30       1.0  0.70529  0.51790  0.73503  1.0000 0.1597003549
N   N31       1.0  0.51790  0.78287  0.81261  1.0000 0.1597003549
N   N32       1.0  0.78287  0.97026  0.26497  1.0000 0.1597003549
N   N33       1.0  0.03032  0.36024  0.81012  1.0000 -0.2145994337
N   N34       1.0  0.36024  0.55012  0.32992  1.0000 -0.220319992
N   N35       1.0  0.55012  0.22020  0.18988  1.0000 -0.220319992
N   N36       1.0  0.22020  0.03032  0.67008  1.0000 -0.220319992
N   N37       1.0  0.96968  0.63976  0.18988  1.0000 -0.220319992
N   N38       1.0  0.63976  0.44988  0.67008  1.0000 -0.2145994337
N   N39       1.0  0.44988  0.77980  0.81012  1.0000 -0.220319992
N   N40       1.0  0.77980  0.96968  0.32992  1.0000 -0.220319992
N   N41       1.0  0.02602  0.34021  0.83699  1.0000 -0.1074741114
N   N42       1.0  0.34021  0.50322  0.31419  1.0000 -0.1074741114
N   N43       1.0  0.50322  0.18903  0.16301  1.0000 -0.1074741114
N   N44       1.0  0.18903  0.02602  0.68581  1.0000 -0.1074741114
N   N45       1.0  0.97398  0.65979  0.16301  1.0000 -0.1074741114
N   N46       1.0  0.65979  0.49678  0.68581  1.0000 -0.1074741114
N   N47       1.0  0.49678  0.81097  0.83699  1.0000 -0.1074741114
N   N48       1.0  0.81097  0.97398  0.31419  1.0000 -0.1074741114
N   N49       1.0  0.00363  0.50761  0.71356  1.0000 0.1699559949
N   N50       1.0  0.50761  0.79405  0.50398  1.0000 0.1699559949
N   N51       1.0  0.79405  0.29007  0.28644  1.0000 0.1699559949
N   N52       1.0  0.29007  0.00363  0.49602  1.0000 0.1699559949
N   N53       1.0  0.99637  0.49239  0.28644  1.0000 0.1699559949
N   N54       1.0  0.49239  0.20595  0.49602  1.0000 0.1699559949
N   N55       1.0  0.20595  0.70993  0.71356  1.0000 0.1699559949
N   N56       1.0  0.70993  0.99637  0.50398  1.0000 0.1699559949
N   N57       1.0  0.01227  0.49156  0.67369  1.0000 -0.1074741114
N   N58       1.0  0.49156  0.81787  0.47929  1.0000 -0.1074741114
N   N59       1.0  0.81787  0.33858  0.32631  1.0000 -0.1074741114
N   N60       1.0  0.33858  0.01227  0.52071  1.0000 -0.1074741114
N   N61       1.0  0.98773  0.50844  0.32631  1.0000 -0.1074741114
N   N62       1.0  0.50844  0.18213  0.52071  1.0000 -0.1074741114
N   N63       1.0  0.18213  0.66142  0.67369  1.0000 -0.1074741114
N   N64       1.0  0.66142  0.98773  0.47929  1.0000 -0.1074741114
N   N65       1.0  0.01616  0.44407  0.65711  1.0000 -0.2282661231
N   N66       1.0  0.44407  0.78696  0.42791  1.0000 -0.2282661231
N   N67       1.0  0.78696  0.35905  0.34289  1.0000 -0.2282661231
N   N68       1.0  0.35905  0.01616  0.57209  1.0000 -0.2282661231
N   N69       1.0  0.98384  0.55593  0.34289  1.0000 -0.2282661231
N   N70       1.0  0.55593  0.21304  0.57209  1.0000 -0.2282661231
N   N71       1.0  0.21304  0.64095  0.65711  1.0000 -0.2282661231
N   N72       1.0  0.64095  0.98384  0.42791  1.0000 -0.2282661231
O   O1        1.0  0.04350  0.04828  0.37860  1.0000 -0.5069986141
O   O2        1.0  0.04828  0.66968  0.00478  1.0000 -0.5069986141
O   O3        1.0  0.66968  0.66490  0.62140  1.0000 -0.5069986141
O   O4        1.0  0.66490  0.04350  0.99522  1.0000 -0.5069986141
O   O5        1.0  0.95650  0.95172  0.62140  1.0000 -0.5069986141
O   O6        1.0  0.95172  0.33032  0.99522  1.0000 -0.5069986141
O   O7        1.0  0.33032  0.33510  0.37860  1.0000 -0.5069986141
O   O8        1.0  0.33510  0.95650  0.00478  1.0000 -0.5069986141
O   O9        1.0  0.04119  0.05408  0.31003  1.0000 -0.5009606453
O   O10       1.0  0.05408  0.74405  0.01289  1.0000 -0.5009606453
O   O11       1.0  0.74405  0.73116  0.68997  1.0000 -0.5009606453
O   O12       1.0  0.73116  0.04119  0.98711  1.0000 -0.5009606453
O   O13       1.0  0.95881  0.94592  0.68997  1.0000 -0.5009606453
O   O14       1.0  0.94592  0.25595  0.98711  1.0000 -0.5009606453
O   O15       1.0  0.25595  0.26884  0.31003  1.0000 -0.5009606453
O   O16       1.0  0.26884  0.95881  0.01289  1.0000 -0.5009606453
O   O17       1.0  0.05187  0.21953  0.33314  1.0000 -0.5009606453
O   O18       1.0  0.21953  0.88639  0.16766  1.0000 -0.5009606453
O   O19       1.0  0.88639  0.71873  0.66686  1.0000 -0.5009606453
O   O20       1.0  0.71873  0.05187  0.83234  1.0000 -0.5009606453
O   O21       1.0  0.94813  0.78047  0.66686  1.0000 -0.5009606453
O   O22       1.0  0.78047  0.11361  0.83234  1.0000 -0.5009606453
O   O23       1.0  0.11361  0.28127  0.33314  1.0000 -0.5009606453
O   O24       1.0  0.28127  0.94813  0.16766  1.0000 -0.5009606453
O   O25       1.0  0.06139  0.28951  0.41350  1.0000 -0.5218888553
O   O26       1.0  0.28951  0.87601  0.22812  1.0000 -0.5218888553
O   O27       1.0  0.87601  0.64789  0.58650  1.0000 -0.5218888553
O   O28       1.0  0.64789  0.06139  0.77188  1.0000 -0.5218888553
O   O29       1.0  0.93861  0.71049  0.58650  1.0000 -0.5218888553
O   O30       1.0  0.71049  0.12399  0.77188  1.0000 -0.5218888553
O   O31       1.0  0.12399  0.35211  0.41350  1.0000 -0.5218888553
O   O32       1.0  0.35211  0.93861  0.22812  1.0000 -0.5218888553
O   O33       1.0  0.01570  0.98369  0.18363  1.0000 -0.8154514464
O   O34       1.0  0.98369  0.80006  0.96799  1.0000 -0.8113911333
O   O35       1.0  0.80006  0.83207  0.81637  1.0000 -0.8113911333
O   O36       1.0  0.83207  0.01570  0.03201  1.0000 -0.8113911333
O   O37       1.0  0.98430  0.01631  0.81637  1.0000 -0.8154514464
O   O38       1.0  0.01631  0.19994  0.03201  1.0000 -0.8154514464
O   O39       1.0  0.19994  0.16793  0.18363  1.0000 -0.8113911333
O   O40       1.0  0.16793  0.98430  0.96799  1.0000 -0.8154514464
O   O41       1.0  0.03274  0.96561  0.40113  1.0000 -0.8113911333
O   O42       1.0  0.96561  0.56448  0.93287  1.0000 -0.8113911333
O   O43       1.0  0.56448  0.63161  0.59887  1.0000 -0.8113911333
O   O44       1.0  0.63161  0.03274  0.06713  1.0000 -0.8113911333
O   O45       1.0  0.96726  0.03439  0.59887  1.0000 -0.8113911333
O   O46       1.0  0.03439  0.43552  0.06713  1.0000 -0.8113911333
O   O47       1.0  0.43552  0.36839  0.40113  1.0000 -0.8113911333
O   O48       1.0  0.36839  0.96726  0.93287  1.0000 -0.8113911333
O   O49       1.0  0.03379  0.32625  0.98652  1.0000 -0.5280240359
O   O50       1.0  0.32625  0.33973  0.29246  1.0000 -0.5280240359
O   O51       1.0  0.33973  0.04727  0.01348  1.0000 -0.5280240359
O   O52       1.0  0.04727  0.03379  0.70754  1.0000 -0.5280240359
O   O53       1.0  0.96621  0.67375  0.01348  1.0000 -0.5280240359
O   O54       1.0  0.67375  0.66027  0.70754  1.0000 -0.5280240359
O   O55       1.0  0.66027  0.95273  0.98652  1.0000 -0.5280240359
O   O56       1.0  0.95273  0.96621  0.29246  1.0000 -0.5280240359
O   O57       1.0  0.99221  0.10242  0.72359  1.0000 -0.5069986141
O   O58       1.0  0.10242  0.37883  0.11021  1.0000 -0.5069986141
O   O59       1.0  0.37883  0.26862  0.27641  1.0000 -0.5069986141
O   O60       1.0  0.26862  0.99221  0.88979  1.0000 -0.5069986141
O   O61       1.0  0.00779  0.89758  0.27641  1.0000 -0.5069986141
O   O62       1.0  0.89758  0.62117  0.88979  1.0000 -0.5069986141
O   O63       1.0  0.62117  0.73138  0.72359  1.0000 -0.5069986141
O   O64       1.0  0.73138  0.00779  0.11021  1.0000 -0.5069986141
O   O65       1.0  0.00101  0.09663  0.79520  1.0000 -0.5218888553
O   O66       1.0  0.09663  0.30143  0.09562  1.0000 -0.5218888553
O   O67       1.0  0.30143  0.20581  0.20480  1.0000 -0.5218888553
O   O68       1.0  0.20581  0.00101  0.90438  1.0000 -0.5218888553
O   O69       1.0  0.99899  0.90337  0.20480  1.0000 -0.5218888553
O   O70       1.0  0.90337  0.69857  0.90438  1.0000 -0.5218888553
O   O71       1.0  0.69857  0.79419  0.79520  1.0000 -0.5218888553
O   O72       1.0  0.79419  0.99899  0.09562  1.0000 -0.5218888553
O   O73       1.0  0.96358  0.63380  0.65822  1.0000 -0.5009606453
O   O74       1.0  0.63380  0.97558  0.67022  1.0000 -0.5009606453
O   O75       1.0  0.97558  0.30536  0.34178  1.0000 -0.5009606453
O   O76       1.0  0.30536  0.96358  0.32978  1.0000 -0.5009606453
O   O77       1.0  0.03642  0.36620  0.34178  1.0000 -0.5009606453
O   O78       1.0  0.36620  0.02442  0.32978  1.0000 -0.5009606453
O   O79       1.0  0.02442  0.69464  0.65822  1.0000 -0.5009606453
O   O80       1.0  0.69464  0.03642  0.67022  1.0000 -0.5009606453
O   O81       1.0  0.02492  0.24912  0.97280  1.0000 -0.5009606453
O   O82       1.0  0.24912  0.27632  0.22420  1.0000 -0.5009606453
O   O83       1.0  0.27632  0.05212  0.02720  1.0000 -0.5009606453
O   O84       1.0  0.05212  0.02492  0.77580  1.0000 -0.5009606453
O   O85       1.0  0.97508  0.75088  0.02720  1.0000 -0.5009606453
O   O86       1.0  0.75088  0.72368  0.77580  1.0000 -0.5009606453
O   O87       1.0  0.72368  0.94788  0.97280  1.0000 -0.5009606453
O   O88       1.0  0.94788  0.97508  0.22420  1.0000 -0.5009606453
O   O89       1.0  0.97256  0.70402  0.73816  1.0000 -0.5218888553
O   O90       1.0  0.70402  0.96586  0.73146  1.0000 -0.5218888553
O   O91       1.0  0.96586  0.23440  0.26184  1.0000 -0.5218888553
O   O92       1.0  0.23440  0.97256  0.26854  1.0000 -0.5218888553
O   O93       1.0  0.02744  0.29598  0.26184  1.0000 -0.5218888553
O   O94       1.0  0.29598  0.03414  0.26854  1.0000 -0.5218888553
O   O95       1.0  0.03414  0.76560  0.73816  1.0000 -0.5218888553
O   O96       1.0  0.76560  0.02744  0.73146  1.0000 -0.5218888553
O   O97       1.0  0.98260  0.69166  0.89008  1.0000 -0.5009606453
O   O98       1.0  0.69166  0.80158  0.70906  1.0000 -0.5009606453
O   O99       1.0  0.80158  0.09252  0.10992  1.0000 -0.5009606453
O   O100      1.0  0.09252  0.98260  0.29094  1.0000 -0.5009606453
O   O101      1.0  0.01740  0.30834  0.10992  1.0000 -0.5009606453
O   O102      1.0  0.30834  0.19842  0.29094  1.0000 -0.5009606453
O   O103      1.0  0.19842  0.90748  0.89008  1.0000 -0.5009606453
O   O104      1.0  0.90748  0.01740  0.70906  1.0000 -0.5009606453
O   O105      1.0  0.98095  0.61660  0.88123  1.0000 -0.5069986141
O   O106      1.0  0.61660  0.73537  0.63565  1.0000 -0.5069986141
O   O107      1.0  0.73537  0.09972  0.11877  1.0000 -0.5069986141
O   O108      1.0  0.09972  0.98095  0.36435  1.0000 -0.5069986141
O   O109      1.0  0.01905  0.38340  0.11877  1.0000 -0.5069986141
O   O110      1.0  0.38340  0.26463  0.36435  1.0000 -0.5069986141
O   O111      1.0  0.26463  0.90028  0.88123  1.0000 -0.5069986141
O   O112      1.0  0.90028  0.01905  0.63565  1.0000 -0.5069986141
