# DDEC6 charges by PACMAN v1.1 (https://github.com/mtap-research/PACMAN-charge/)
data_2015[Mn][nan]3[ASR]13
_chemical_formula_sum              "Mn20 H104 C64 O72"
_cell_length_a       18.1372
_cell_length_b       18.1372
_cell_length_c       18.1372
_cell_angle_alpha    97.0663
_cell_angle_beta     97.0663
_cell_angle_gamma    138.935

_symmetry_space_group_name_H-M    "P 1"
_symmetry_Int_Tables_number       1

loop_
  _symmetry_equiv_pos_as_xyz
  'x, y, z'

loop_
  _atom_site_type_symbol
  _atom_site_label
  _atom_site_symmetry_multiplicity
  _atom_site_fract_x
  _atom_site_fract_y
  _atom_site_fract_z
  _atom_site_occupancy
  _atom_site_charge
Mn  Mn1       1.0  0.36263  0.39433  0.56758  1.0000 1.0736087271
Mn  Mn2       1.0  0.82675  0.79505  0.43242  1.0000 1.0736087271
Mn  Mn3       1.0  0.04505  0.11263  0.46830  1.0000 1.0736087271
Mn  Mn4       1.0  0.64433  0.57675  0.53170  1.0000 1.0736087271
Mn  Mn5       1.0  0.88737  0.35567  0.93242  1.0000 1.0736087271
Mn  Mn6       1.0  0.42325  0.95495  0.06758  1.0000 1.0752553889
Mn  Mn7       1.0  0.20495  0.63737  0.03170  1.0000 1.0736087271
Mn  Mn8       1.0  0.60567  0.17325  0.96830  1.0000 1.0752553889
Mn  Mn9       1.0  0.17171  0.24811  0.65792  1.0000 1.0516026118
Mn  Mn10      1.0  0.59019  0.51379  0.34208  1.0000 1.0516026118
Mn  Mn11      1.0  0.76379  0.92171  0.42360  1.0000 1.0516026118
Mn  Mn12      1.0  0.49811  0.34019  0.57640  1.0000 1.0516026118
Mn  Mn13      1.0  0.07829  0.50189  0.84208  1.0000 1.0516026118
Mn  Mn14      1.0  0.65981  0.23621  0.15792  1.0000 1.0516026118
Mn  Mn15      1.0  0.48621  0.82829  0.07640  1.0000 1.0516026118
Mn  Mn16      1.0  0.75189  0.40981  0.92360  1.0000 1.0516026118
Mn  Mn17      1.0  0.12500  0.37500  0.75000  1.0000 1.0736087271
Mn  Mn18      1.0  0.62500  0.37500  0.25000  1.0000 1.0736087271
Mn  Mn19      1.0  0.62500  0.87500  0.25000  1.0000 1.0736087271
Mn  Mn20      1.0  0.62500  0.37500  0.75000  1.0000 1.0736087271
H   H1        1.0  0.16980  0.31670  0.54490  1.0000 0.4033443504
H   H2        1.0  0.77180  0.62490  0.45510  1.0000 0.4033443504
H   H3        1.0  0.87490  0.91980  0.35310  1.0000 0.4033443504
H   H4        1.0  0.56670  0.52180  0.64690  1.0000 0.4033443504
H   H5        1.0  0.08020  0.43330  0.95510  1.0000 0.4033443504
H   H6        1.0  0.47820  0.12510  0.04490  1.0000 0.4033443504
H   H7        1.0  0.37510  0.83020  0.14690  1.0000 0.4033443504
H   H8        1.0  0.68330  0.22820  0.85310  1.0000 0.4033443504
H   H9        1.0  0.45880  0.69250  0.71770  1.0000 0.1691521011
H   H10       1.0  0.97480  0.74110  0.28230  1.0000 0.1691521011
H   H11       1.0  0.99110  0.20880  0.26630  1.0000 0.1691521011
H   H12       1.0  0.94250  0.72480  0.73370  1.0000 0.1691521011
H   H13       1.0  0.79120  0.05750  0.78230  1.0000 0.1691521011
H   H14       1.0  0.27520  0.00890  0.21770  1.0000 0.1691521011
H   H15       1.0  0.25890  0.54120  0.23370  1.0000 0.1691521011
H   H16       1.0  0.30750  0.02520  0.76630  1.0000 0.1691521011
H   H17       1.0  0.36030  0.62670  0.76020  1.0000 0.1607045779
H   H18       1.0  0.86650  0.60010  0.23980  1.0000 0.1607045779
H   H19       1.0  0.85010  0.11030  0.23360  1.0000 0.1607045779
H   H20       1.0  0.87670  0.61650  0.76640  1.0000 0.1607045779
H   H21       1.0  0.88970  0.12330  0.73980  1.0000 0.1607045779
H   H22       1.0  0.38350  0.14990  0.26020  1.0000 0.1607045779
H   H23       1.0  0.39990  0.63970  0.26640  1.0000 0.1607045779
H   H24       1.0  0.37330  0.13350  0.73360  1.0000 0.1607045779
H   H25       1.0  0.48130  0.67820  0.79990  1.0000 0.1691521011
H   H26       1.0  0.87830  0.68140  0.20010  1.0000 0.1691521011
H   H27       1.0  0.93140  0.23130  0.30310  1.0000 0.1691521011
H   H28       1.0  0.92820  0.62830  0.69690  1.0000 0.1691521011
H   H29       1.0  0.76870  0.07180  0.70010  1.0000 0.1691521011
H   H30       1.0  0.37170  0.06860  0.29990  1.0000 0.1691521011
H   H31       1.0  0.31860  0.51870  0.19690  1.0000 0.1691521011
H   H32       1.0  0.32180  0.12170  0.80310  1.0000 0.1691521011
H   H33       1.0  0.35410  0.30300  0.81430  1.0000 0.1691521011
H   H34       1.0  0.48870  0.53980  0.18570  1.0000 0.1691521011
H   H35       1.0  0.78980  0.10410  0.55110  1.0000 0.1691521011
H   H36       1.0  0.55300  0.23870  0.44890  1.0000 0.1691521011
H   H37       1.0  0.89590  0.44700  0.68570  1.0000 0.1691521011
H   H38       1.0  0.76130  0.21020  0.31430  1.0000 0.1691521011
H   H39       1.0  0.46020  0.64590  0.94890  1.0000 0.1691521011
H   H40       1.0  0.69700  0.51130  0.05110  1.0000 0.1691521011
H   H41       1.0  0.48490  0.37030  0.83440  1.0000 0.1691521011
H   H42       1.0  0.53590  0.65050  0.16560  1.0000 0.1691521011
H   H43       1.0  0.90050  0.23490  0.61460  1.0000 0.1691521011
H   H44       1.0  0.62030  0.28590  0.38540  1.0000 0.1691521011
H   H45       1.0  0.76510  0.37970  0.66560  1.0000 0.1691521011
H   H46       1.0  0.71410  0.09950  0.33440  1.0000 0.1691521011
H   H47       1.0  0.34950  0.51510  0.88540  1.0000 0.1691521011
H   H48       1.0  0.62970  0.46410  0.11460  1.0000 0.1691521011
H   H49       1.0  0.46520  0.44150  0.82490  1.0000 0.1691521011
H   H50       1.0  0.61660  0.64030  0.17510  1.0000 0.1691521011
H   H51       1.0  0.89030  0.21520  0.52370  1.0000 0.1691521011
H   H52       1.0  0.69150  0.36660  0.47630  1.0000 0.1691521011
H   H53       1.0  0.78480  0.30850  0.67510  1.0000 0.1691521011
H   H54       1.0  0.63340  0.10970  0.32490  1.0000 0.1691521011
H   H55       1.0  0.35970  0.53480  0.97630  1.0000 0.1691521011
H   H56       1.0  0.55850  0.38340  0.02370  1.0000 0.1691521011
H   H57       1.0  0.19600  0.05410  0.65130  1.0000 0.1691521011
H   H58       1.0  0.40280  0.54470  0.34870  1.0000 0.1691521011
H   H59       1.0  0.79470  0.94600  0.64190  1.0000 0.1691521011
H   H60       1.0  0.30410  0.15280  0.35810  1.0000 0.1691521011
H   H61       1.0  0.05400  0.69590  0.84870  1.0000 0.1691521011
H   H62       1.0  0.84720  0.20530  0.15130  1.0000 0.1691521011
H   H63       1.0  0.45530  0.80400  0.85810  1.0000 0.1691521011
H   H64       1.0  0.94590  0.59720  0.14190  1.0000 0.1691521011
H   H65       1.0  0.13450  0.06320  0.70070  1.0000 0.1691521011
H   H66       1.0  0.36250  0.43380  0.29930  1.0000 0.1691521011
H   H67       1.0  0.68380  0.88450  0.57130  1.0000 0.1691521011
H   H68       1.0  0.31320  0.11250  0.42870  1.0000 0.1691521011
H   H69       1.0  0.11550  0.68680  0.79930  1.0000 0.1691521011
H   H70       1.0  0.88750  0.31620  0.20070  1.0000 0.1691521011
H   H71       1.0  0.56620  0.86550  0.92870  1.0000 0.1691521011
H   H72       1.0  0.93680  0.63750  0.07130  1.0000 0.1691521011
H   H73       1.0  0.07390  0.93710  0.66180  1.0000 0.1691521011
H   H74       1.0  0.27530  0.41210  0.33820  1.0000 0.1691521011
H   H75       1.0  0.66210  0.82390  0.63680  1.0000 0.1691521011
H   H76       1.0  0.18710  0.02530  0.36320  1.0000 0.1691521011
H   H77       1.0  0.17610  0.81290  0.83820  1.0000 0.1691521011
H   H78       1.0  0.97470  0.33790  0.16180  1.0000 0.1691521011
H   H79       1.0  0.58790  0.92610  0.86320  1.0000 0.1691521011
H   H80       1.0  0.06290  0.72470  0.13680  1.0000 0.1691521011
H   H81       1.0  0.16550  0.16170  0.87940  1.0000 0.15367345
H   H82       1.0  0.28230  0.28610  0.12060  1.0000 0.15367345
H   H83       1.0  0.53610  0.91550  0.50380  1.0000 0.15367345
H   H84       1.0  0.41170  0.03230  0.49620  1.0000 0.15367345
H   H85       1.0  0.08450  0.58830  0.62060  1.0000 0.15367345
H   H86       1.0  0.96770  0.46390  0.37940  1.0000 0.15367345
H   H87       1.0  0.71390  0.83450  0.99620  1.0000 0.15367345
H   H88       1.0  0.83830  0.71770  0.00380  1.0000 0.15367345
H   H89       1.0  0.20630  0.26930  0.93620  1.0000 0.1607045779
H   H90       1.0  0.33310  0.27010  0.06380  1.0000 0.1607045779
H   H91       1.0  0.52010  0.95630  0.43700  1.0000 0.1607045779
H   H92       1.0  0.51930  0.08310  0.56300  1.0000 0.1607045779
H   H93       1.0  0.04370  0.48070  0.56380  1.0000 0.1607045779
H   H94       1.0  0.91690  0.47990  0.43620  1.0000 0.1607045779
H   H95       1.0  0.72990  0.79370  0.06300  1.0000 0.1607045779
H   H96       1.0  0.73070  0.66690  0.93700  1.0000 0.1607045779
H   H97       1.0  0.06800  0.14060  0.89860  1.0000 0.1607045779
H   H98       1.0  0.24200  0.16940  0.10140  1.0000 0.1607045779
H   H99       1.0  0.41940  0.81800  0.42740  1.0000 0.1607045779
H   H100      1.0  0.39060  0.99200  0.57260  1.0000 0.1607045779
H   H101      1.0  0.18200  0.60940  0.60140  1.0000 0.1607045779
H   H102      1.0  0.00800  0.58060  0.39860  1.0000 0.1607045779
H   H103      1.0  0.83060  0.93200  0.07260  1.0000 0.1607045779
H   H104      1.0  0.85940  0.75800  0.92740  1.0000 0.1607045779
C   C1        1.0  0.36403  0.52381  0.70664  1.0000 0.7153597424
C   C2        1.0  0.81717  0.65739  0.29336  1.0000 0.7153597424
C   C3        1.0  0.90739  0.11403  0.34022  1.0000 0.7153597424
C   C4        1.0  0.77381  0.56717  0.65978  1.0000 0.7153597424
C   C5        1.0  0.88597  0.22619  0.79336  1.0000 0.7153597424
C   C6        1.0  0.43283  0.09261  0.20664  1.0000 0.7153597424
C   C7        1.0  0.34261  0.63597  0.15978  1.0000 0.7153597424
C   C8        1.0  0.47619  0.18283  0.84022  1.0000 0.7153597424
C   C9        1.0  0.42102  0.64042  0.74984  1.0000 -0.5969186401
C   C10       1.0  0.89058  0.67118  0.25016  1.0000 -0.5969186401
C   C11       1.0  0.92118  0.17102  0.28060  1.0000 -0.5969186401
C   C12       1.0  0.89042  0.64058  0.71940  1.0000 -0.5969186401
C   C13       1.0  0.82898  0.10958  0.75016  1.0000 -0.5969186401
C   C14       1.0  0.35942  0.07882  0.24984  1.0000 -0.5969186401
C   C15       1.0  0.32882  0.57898  0.21940  1.0000 -0.5969186401
C   C16       1.0  0.35958  0.10942  0.78060  1.0000 -0.5969186401
C   C17       1.0  0.41269  0.33409  0.71898  1.0000 0.7140878388
C   C18       1.0  0.61511  0.69371  0.28102  1.0000 0.7140878388
C   C19       1.0  0.94371  0.16269  0.57860  1.0000 0.7140878388
C   C20       1.0  0.58409  0.36511  0.42140  1.0000 0.7140878388
C   C21       1.0  0.83731  0.41591  0.78102  1.0000 0.7140878388
C   C22       1.0  0.63489  0.05629  0.21898  1.0000 0.7140878388
C   C23       1.0  0.30629  0.58731  0.92140  1.0000 0.7140878388
C   C24       1.0  0.66591  0.38489  0.07860  1.0000 0.7140878388
C   C25       1.0  0.43083  0.36491  0.80574  1.0000 -0.6173909208
C   C26       1.0  0.55917  0.62509  0.19426  1.0000 -0.6173909208
C   C27       1.0  0.87509  0.18083  0.56592  1.0000 -0.6173909208
C   C28       1.0  0.61491  0.30917  0.43408  1.0000 -0.6173909208
C   C29       1.0  0.81917  0.38509  0.69426  1.0000 -0.6173909208
C   C30       1.0  0.69083  0.12491  0.30574  1.0000 -0.6173909208
C   C31       1.0  0.37491  0.56917  0.93408  1.0000 -0.6173909208
C   C32       1.0  0.63509  0.44083  0.06592  1.0000 -0.6173909208
C   C33       1.0  0.05136  0.99362  0.58178  1.0000 0.7140878388
C   C34       1.0  0.41184  0.46958  0.41822  1.0000 0.7153597424
C   C35       1.0  0.71958  0.80136  0.55774  1.0000 0.7153597424
C   C36       1.0  0.24362  0.16184  0.44226  1.0000 0.7153597424
C   C37       1.0  0.19864  0.75638  0.91822  1.0000 0.7153597424
C   C38       1.0  0.83816  0.28042  0.08178  1.0000 0.7140878388
C   C39       1.0  0.53042  0.94864  0.94226  1.0000 0.7153597424
C   C40       1.0  0.00638  0.58816  0.05774  1.0000 0.7140878388
C   C41       1.0  0.11987  0.01375  0.65522  1.0000 -0.5969186401
C   C42       1.0  0.35853  0.46465  0.34478  1.0000 -0.5969186401
C   C43       1.0  0.71465  0.86987  0.60612  1.0000 -0.5969186401
C   C44       1.0  0.26375  0.10853  0.39388  1.0000 -0.5969186401
C   C45       1.0  0.13013  0.73625  0.84478  1.0000 -0.5969186401
C   C46       1.0  0.89147  0.28535  0.15522  1.0000 -0.5969186401
C   C47       1.0  0.53535  0.88013  0.89388  1.0000 -0.5969186401
C   C48       1.0  0.98625  0.64147  0.10612  1.0000 -0.5969186401
C   C49       1.0  0.13597  0.23055  0.81932  1.0000 0.6958465525
C   C50       1.0  0.41123  0.31665  0.18068  1.0000 0.6958465525
C   C51       1.0  0.56665  0.88597  0.40542  1.0000 0.6958465525
C   C52       1.0  0.48055  0.16123  0.59458  1.0000 0.6958465525
C   C53       1.0  0.11403  0.51945  0.68068  1.0000 0.6958465525
C   C54       1.0  0.83877  0.43335  0.31932  1.0000 0.6958465525
C   C55       1.0  0.68335  0.86403  0.09458  1.0000 0.6958465525
C   C56       1.0  0.76945  0.58877  0.90542  1.0000 0.6958465525
C   C57       1.0  0.14472  0.19765  0.88957  1.0000 -0.5639545876
C   C58       1.0  0.30808  0.25515  0.11043  1.0000 -0.5663427165
C   C59       1.0  0.50515  0.89472  0.44707  1.0000 -0.5639545876
C   C60       1.0  0.44765  0.05808  0.55293  1.0000 -0.5663427165
C   C61       1.0  0.10528  0.55235  0.61043  1.0000 -0.5639545876
C   C62       1.0  0.94192  0.49485  0.38957  1.0000 -0.5639545876
C   C63       1.0  0.74485  0.85528  0.05293  1.0000 -0.5663427165
C   C64       1.0  0.80235  0.69192  0.94707  1.0000 -0.5639545876
O   O1        1.0  0.18479  0.28305  0.55056  1.0000 -0.8628566986
O   O2        1.0  0.73249  0.63423  0.44944  1.0000 -0.8628566986
O   O3        1.0  0.88423  0.93479  0.40174  1.0000 -0.8628566986
O   O4        1.0  0.53305  0.48249  0.59826  1.0000 -0.8628566986
O   O5        1.0  0.06521  0.46695  0.94944  1.0000 -0.8628566986
O   O6        1.0  0.51751  0.11577  0.05056  1.0000 -0.8628566986
O   O7        1.0  0.36577  0.81521  0.09826  1.0000 -0.8628566986
O   O8        1.0  0.71695  0.26751  0.90174  1.0000 -0.8628566986
O   O9        1.0  0.40832  0.52374  0.66012  1.0000 -0.5639545876
O   O10       1.0  0.86362  0.74820  0.33988  1.0000 -0.5639545876
O   O11       1.0  0.99820  0.15832  0.38458  1.0000 -0.5639545876
O   O12       1.0  0.77374  0.61362  0.61542  1.0000 -0.5639545876
O   O13       1.0  0.84168  0.22626  0.83988  1.0000 -0.5639545876
O   O14       1.0  0.38638  0.00180  0.16012  1.0000 -0.5639545876
O   O15       1.0  0.25180  0.59168  0.11542  1.0000 -0.5639545876
O   O16       1.0  0.47626  0.13638  0.88458  1.0000 -0.5639545876
O   O17       1.0  0.27239  0.43071  0.72082  1.0000 -0.6173909208
O   O18       1.0  0.70989  0.55157  0.27918  1.0000 -0.6173909208
O   O19       1.0  0.80157  0.02239  0.34168  1.0000 -0.6173909208
O   O20       1.0  0.68071  0.45989  0.65832  1.0000 -0.6173909208
O   O21       1.0  0.97761  0.31929  0.77918  1.0000 -0.6173909208
O   O22       1.0  0.54011  0.19843  0.22082  1.0000 -0.6173909208
O   O23       1.0  0.44843  0.72761  0.15832  1.0000 -0.6173909208
O   O24       1.0  0.56929  0.29011  0.84168  1.0000 -0.6173909208
O   O25       1.0  0.33840  0.31399  0.67175  1.0000 -0.5826763586
O   O26       1.0  0.64224  0.66667  0.32825  1.0000 -0.5826763586
O   O27       1.0  0.91665  0.08840  0.52441  1.0000 -0.5826763586
O   O28       1.0  0.56399  0.39224  0.47559  1.0000 -0.5826763586
O   O29       1.0  0.91160  0.43601  0.82825  1.0000 -0.5826763586
O   O30       1.0  0.60776  0.08335  0.17175  1.0000 -0.5826763586
O   O31       1.0  0.33333  0.66160  0.97559  1.0000 -0.5826763586
O   O32       1.0  0.68601  0.35776  0.02441  1.0000 -0.5826763586
O   O33       1.0  0.47293  0.32913  0.69596  1.0000 -0.590238036
O   O34       1.0  0.63317  0.77697  0.30404  1.0000 -0.590238036
O   O35       1.0  0.02697  0.22293  0.64380  1.0000 -0.590238036
O   O36       1.0  0.57913  0.38317  0.35620  1.0000 -0.590238036
O   O37       1.0  0.77707  0.42087  0.80404  1.0000 -0.590238036
O   O38       1.0  0.61683  0.97303  0.19596  1.0000 -0.590238036
O   O39       1.0  0.22303  0.52707  0.85620  1.0000 -0.590238036
O   O40       1.0  0.67087  0.36683  0.14380  1.0000 -0.590238036
O   O41       1.0  0.98186  0.89787  0.52793  1.0000 -0.5461669317
O   O42       1.0  0.36994  0.45393  0.47207  1.0000 -0.5461669317
O   O43       1.0  0.70393  0.73186  0.58399  1.0000 -0.5461669317
O   O44       1.0  0.14787  0.11994  0.41601  1.0000 -0.5461669317
O   O45       1.0  0.26814  0.85213  0.97207  1.0000 -0.5461669317
O   O46       1.0  0.88006  0.29607  0.02793  1.0000 -0.5461669317
O   O47       1.0  0.54607  0.01814  0.91601  1.0000 -0.5461669317
O   O48       1.0  0.10213  0.63006  0.08399  1.0000 -0.5461669317
O   O49       1.0  0.06995  0.07557  0.57796  1.0000 -0.590238036
O   O50       1.0  0.49761  0.49199  0.42204  1.0000 -0.590238036
O   O51       1.0  0.74199  0.81995  0.49438  1.0000 -0.590238036
O   O52       1.0  0.32557  0.24761  0.50562  1.0000 -0.590238036
O   O53       1.0  0.18005  0.67443  0.92204  1.0000 -0.590238036
O   O54       1.0  0.75239  0.25801  0.07796  1.0000 -0.590238036
O   O55       1.0  0.50801  0.93005  0.00562  1.0000 -0.590238036
O   O56       1.0  0.92443  0.50239  0.99438  1.0000 -0.590238036
O   O57       1.0  0.14969  0.20247  0.76100  1.0000 -0.5826763586
O   O58       1.0  0.44147  0.38869  0.23900  1.0000 -0.5826763586
O   O59       1.0  0.63869  0.89969  0.44722  1.0000 -0.5826763586
O   O60       1.0  0.45247  0.19147  0.55278  1.0000 -0.5826763586
O   O61       1.0  0.10031  0.54753  0.73900  1.0000 -0.5826763586
O   O62       1.0  0.80853  0.36131  0.26100  1.0000 -0.5826763586
O   O63       1.0  0.61131  0.85031  0.05278  1.0000 -0.5826763586
O   O64       1.0  0.79753  0.55853  0.94722  1.0000 -0.5826763586
O   O65       1.0  0.11723  0.28510  0.82423  1.0000 -0.5826763586
O   O66       1.0  0.46087  0.29300  0.17577  1.0000 -0.5826763586
O   O67       1.0  0.54300  0.86723  0.33213  1.0000 -0.5826763586
O   O68       1.0  0.53510  0.21087  0.66787  1.0000 -0.5826763586
O   O69       1.0  0.13277  0.46490  0.67577  1.0000 -0.5826763586
O   O70       1.0  0.78913  0.45700  0.32423  1.0000 -0.5826763586
O   O71       1.0  0.70700  0.88277  0.16787  1.0000 -0.5826763586
O   O72       1.0  0.71490  0.53913  0.83213  1.0000 -0.5826763586
