# DDEC6 charges by PACMAN v1.1 (https://github.com/mtap-research/PACMAN-charge/)
data_2015[Cd][nan]3[ASR]12
_chemical_formula_sum              "Cd6 H60 C64 N8 O28"
_cell_length_a       22.8156
_cell_length_b       6.9955
_cell_length_c       14.4043
_cell_angle_alpha    90
_cell_angle_beta     106.694
_cell_angle_gamma    90

_symmetry_space_group_name_H-M    "P 1"
_symmetry_Int_Tables_number       1

loop_
  _symmetry_equiv_pos_as_xyz
  'x, y, z'

loop_
  _atom_site_type_symbol
  _atom_site_label
  _atom_site_symmetry_multiplicity
  _atom_site_fract_x
  _atom_site_fract_y
  _atom_site_fract_z
  _atom_site_occupancy
  _atom_site_charge
Cd  Cd1       1.0  0.49812  0.51071  0.99879  1.0000 0.9243351917
Cd  Cd2       1.0  0.99812  0.01071  0.99879  1.0000 0.9243351917
Cd  Cd3       1.0  0.90787  0.97929  0.68755  1.0000 1.0318564872
Cd  Cd4       1.0  0.09268  0.97752  0.31310  1.0000 1.0318564872
Cd  Cd5       1.0  0.40787  0.47929  0.68755  1.0000 1.0318564872
Cd  Cd6       1.0  0.59268  0.47752  0.31310  1.0000 1.0318564872
H   H1        1.0  0.95917  0.91557  0.38592  1.0000 0.1356746672
H   H2        1.0  0.04052  0.91548  0.61375  1.0000 0.1356746672
H   H3        1.0  0.45917  0.41557  0.38592  1.0000 0.1356746672
H   H4        1.0  0.54052  0.41548  0.61375  1.0000 0.1356746672
H   H5        1.0  0.66516  0.46395  0.03592  1.0000 0.0895284414
H   H6        1.0  0.33448  0.46378  0.96425  1.0000 0.0814927258
H   H7        1.0  0.16516  0.96395  0.03592  1.0000 0.0895284414
H   H8        1.0  0.83448  0.96378  0.96425  1.0000 0.0814927258
H   H9        1.0  0.84415  0.15854  0.12001  1.0000 0.0895284414
H   H10       1.0  0.15554  0.15843  0.87988  1.0000 0.0895284414
H   H11       1.0  0.34415  0.65854  0.12001  1.0000 0.0895284414
H   H12       1.0  0.65554  0.65843  0.87988  1.0000 0.0895284414
H   H13       1.0  0.78526  0.16670  0.38087  1.0000 0.1356746672
H   H14       1.0  0.21450  0.16613  0.61923  1.0000 0.1356746672
H   H15       1.0  0.28526  0.66667  0.38087  1.0000 0.1356746672
H   H16       1.0  0.71450  0.66613  0.61923  1.0000 0.1356746672
H   H17       1.0  0.68151  0.80051  0.01761  1.0000 0.0814927258
H   H18       1.0  0.31862  0.80004  0.98237  1.0000 0.0895284414
H   H19       1.0  0.18151  0.30051  0.01761  1.0000 0.0814927258
H   H20       1.0  0.81862  0.30004  0.98237  1.0000 0.0895284414
H   H21       1.0  0.70916  0.83700  0.14472  1.0000 0.1139992389
H   H22       1.0  0.29083  0.83642  0.85518  1.0000 0.1139992389
H   H23       1.0  0.20916  0.33700  0.14472  1.0000 0.1139992389
H   H24       1.0  0.79083  0.33642  0.85518  1.0000 0.1139992389
H   H25       1.0  0.84162  0.48558  0.15512  1.0000 0.0707015793
H   H26       1.0  0.15806  0.48556  0.84470  1.0000 0.0707015793
H   H27       1.0  0.34162  0.98558  0.15512  1.0000 0.0707015793
H   H28       1.0  0.65806  0.98556  0.84470  1.0000 0.0707015793
H   H29       1.0  0.81381  0.63194  0.23552  1.0000 0.0895284414
H   H30       1.0  0.18607  0.63132  0.76433  1.0000 0.0895284414
H   H31       1.0  0.31381  0.13194  0.23552  1.0000 0.0895284414
H   H32       1.0  0.68607  0.13132  0.76433  1.0000 0.0895284414
H   H33       1.0  0.80386  0.84356  0.09565  1.0000 0.0895284414
H   H34       1.0  0.19596  0.84367  0.90420  1.0000 0.0895284414
H   H35       1.0  0.30386  0.34356  0.09565  1.0000 0.0895284414
H   H36       1.0  0.69596  0.34367  0.90420  1.0000 0.0895284414
H   H37       1.0  0.77811  0.65130  0.01223  1.0000 0.0895284414
H   H38       1.0  0.22171  0.65140  0.98767  1.0000 0.0895284414
H   H39       1.0  0.27811  0.15130  0.01223  1.0000 0.0895284414
H   H40       1.0  0.72171  0.15140  0.98767  1.0000 0.0895284414
H   H41       1.0  0.52545  0.87941  0.89755  1.0000 0.0814927258
H   H42       1.0  0.44370  0.89427  0.10030  1.0000 0.0895284414
H   H43       1.0  0.02545  0.37941  0.89755  1.0000 0.0814927258
H   H44       1.0  0.94370  0.39427  0.10030  1.0000 0.0895284414
H   H45       1.0  0.59224  0.82852  0.99315  1.0000 0.0814927258
H   H46       1.0  0.41599  0.82733  0.97648  1.0000 0.0814927258
H   H47       1.0  0.09224  0.32852  0.99315  1.0000 0.0814927258
H   H48       1.0  0.91599  0.32733  0.97648  1.0000 0.0814927258
H   H49       1.0  0.44342  0.20981  0.06386  1.0000 0.0814927258
H   H50       1.0  0.58505  0.18603  0.95776  1.0000 0.0895284414
H   H51       1.0  0.94342  0.70981  0.06386  1.0000 0.0814927258
H   H52       1.0  0.08505  0.68603  0.95776  1.0000 0.0895284414
H   H53       1.0  0.40055  0.14324  0.94367  1.0000 0.0996246773
H   H54       1.0  0.57466  0.14320  0.07444  1.0000 0.0996246773
H   H55       1.0  0.90055  0.64324  0.94367  1.0000 0.0996246773
H   H56       1.0  0.07466  0.64320  0.07444  1.0000 0.0996246773
H   H57       1.0  0.53907  0.80896  0.10454  1.0000 0.2511795188
H   H58       1.0  0.03907  0.30896  0.10454  1.0000 0.2511795188
H   H59       1.0  0.48124  0.21149  0.88581  1.0000 0.2511795188
H   H60       1.0  0.98124  0.71149  0.88581  1.0000 0.2511795188
C   C1        1.0  0.95049  0.97573  0.19319  1.0000 0.5832686151
C   C2        1.0  0.05050  0.97274  0.80936  1.0000 0.5832686151
C   C3        1.0  0.45049  0.47573  0.19319  1.0000 0.5832686151
C   C4        1.0  0.55050  0.47274  0.80936  1.0000 0.5832686151
C   C5        1.0  0.91669  0.98663  0.34571  1.0000 -0.0849203889
C   C6        1.0  0.08286  0.98659  0.65454  1.0000 -0.0849203889
C   C7        1.0  0.41669  0.48663  0.34571  1.0000 -0.0849203889
C   C8        1.0  0.58286  0.48659  0.65454  1.0000 -0.0849203889
C   C9        1.0  0.80692  0.17133  0.24300  1.0000 -0.0320223366
C   C10       1.0  0.19276  0.17160  0.75701  1.0000 -0.0320223366
C   C11       1.0  0.30692  0.67133  0.24300  1.0000 -0.0320223366
C   C12       1.0  0.69276  0.67160  0.75701  1.0000 -0.0320223366
C   C13       1.0  0.88589  0.01274  0.49941  1.0000 0.5435762803
C   C14       1.0  0.11389  0.01214  0.50103  1.0000 0.5435762803
C   C15       1.0  0.38589  0.51274  0.49941  1.0000 0.5435762803
C   C16       1.0  0.61389  0.51214  0.50103  1.0000 0.5435762803
C   C17       1.0  0.64924  0.53668  0.17078  1.0000 0.5832686151
C   C18       1.0  0.35003  0.53306  0.82831  1.0000 0.5832686151
C   C19       1.0  0.14924  0.03668  0.17078  1.0000 0.5832686151
C   C20       1.0  0.85003  0.03306  0.82831  1.0000 0.5832686151
C   C21       1.0  0.69031  0.53582  0.10407  1.0000 -0.0194166045
C   C22       1.0  0.30948  0.53554  0.89601  1.0000 -0.0194166045
C   C23       1.0  0.19031  0.03582  0.10407  1.0000 -0.0194166045
C   C24       1.0  0.80948  0.03554  0.89601  1.0000 -0.0194166045
C   C25       1.0  0.90551  0.03029  0.24690  1.0000 -0.0435022118
C   C26       1.0  0.09423  0.02917  0.75348  1.0000 -0.0435022118
C   C27       1.0  0.40551  0.53029  0.24690  1.0000 -0.0435022118
C   C28       1.0  0.59423  0.52917  0.75348  1.0000 -0.0435022118
C   C29       1.0  0.85137  0.12467  0.19691  1.0000 -0.1321720046
C   C30       1.0  0.14832  0.12456  0.80310  1.0000 -0.1321720046
C   C31       1.0  0.35137  0.62467  0.19691  1.0000 -0.1321720046
C   C32       1.0  0.64832  0.62456  0.80310  1.0000 -0.1321720046
C   C33       1.0  0.87341  0.04069  0.39274  1.0000 -0.0108158731
C   C34       1.0  0.12619  0.04152  0.60755  1.0000 -0.0108158731
C   C35       1.0  0.37341  0.54069  0.39274  1.0000 -0.0108158731
C   C36       1.0  0.62619  0.54152  0.60755  1.0000 -0.0108158731
C   C37       1.0  0.74654  0.25788  0.18756  1.0000 0.4191782872
C   C38       1.0  0.25305  0.25789  0.81246  1.0000 0.4191782872
C   C39       1.0  0.24654  0.75788  0.18756  1.0000 0.4191782872
C   C40       1.0  0.75305  0.75789  0.81246  1.0000 0.4191782872
C   C41       1.0  0.81832  0.12888  0.34183  1.0000 -0.0891531904
C   C42       1.0  0.18130  0.12916  0.65826  1.0000 -0.0891531904
C   C43       1.0  0.31832  0.62888  0.34183  1.0000 -0.0891531904
C   C44       1.0  0.68130  0.62916  0.65826  1.0000 -0.0891531904
C   C45       1.0  0.71105  0.73904  0.08551  1.0000 -0.1817808797
C   C46       1.0  0.28888  0.73893  0.91448  1.0000 -0.1817808797
C   C47       1.0  0.21105  0.23904  0.08551  1.0000 -0.1817808797
C   C48       1.0  0.78888  0.23893  0.91448  1.0000 -0.1817808797
C   C49       1.0  0.80152  0.56408  0.16284  1.0000 -0.0320223366
C   C50       1.0  0.19823  0.56403  0.83714  1.0000 -0.0320223366
C   C51       1.0  0.30152  0.06408  0.16284  1.0000 -0.0320223366
C   C52       1.0  0.69823  0.06403  0.83714  1.0000 -0.0320223366
C   C53       1.0  0.77696  0.71061  0.08291  1.0000 -0.1641387467
C   C54       1.0  0.22288  0.71071  0.91700  1.0000 -0.1641387467
C   C55       1.0  0.27696  0.21061  0.08291  1.0000 -0.1641387467
C   C56       1.0  0.72288  0.21071  0.91700  1.0000 -0.1641387467
C   C57       1.0  0.44491  0.12364  0.00005  1.0000 -0.0491194179
C   C58       1.0  0.55465  0.11779  0.99591  1.0000 -0.0435022118
C   C59       1.0  0.94491  0.62364  0.00005  1.0000 -0.0491194179
C   C60       1.0  0.05465  0.61779  0.99591  1.0000 -0.0435022118
C   C61       1.0  0.54801  0.90517  0.97554  1.0000 -0.0435022118
C   C62       1.0  0.45190  0.91103  0.02885  1.0000 -0.0320223366
C   C63       1.0  0.04801  0.40517  0.97554  1.0000 -0.0435022118
C   C64       1.0  0.95190  0.41103  0.02885  1.0000 -0.0320223366
N   N1        1.0  0.74824  0.43564  0.14955  1.0000 -0.1321720046
N   N2        1.0  0.25145  0.43542  0.85069  1.0000 -0.1321720046
N   N3        1.0  0.24824  0.93564  0.14955  1.0000 -0.1321720046
N   N4        1.0  0.75145  0.93542  0.85069  1.0000 -0.1321720046
N   N5        1.0  0.51151  0.82027  0.03423  1.0000 -0.3282142182
N   N6        1.0  0.01151  0.32027  0.03423  1.0000 -0.3282142182
N   N7        1.0  0.49343  0.20389  0.96078  1.0000 -0.3282142182
N   N8        1.0  0.99343  0.70389  0.96078  1.0000 -0.3282142182
O   O1        1.0  0.59073  0.52885  0.13463  1.0000 -0.6107594271
O   O2        1.0  0.40825  0.50739  0.86283  1.0000 -0.6107594271
O   O3        1.0  0.09073  0.02885  0.13463  1.0000 -0.6107594271
O   O4        1.0  0.90825  0.00739  0.86283  1.0000 -0.6107594271
O   O5        1.0  0.93700  0.02438  0.10363  1.0000 -0.5892294248
O   O6        1.0  0.06471  0.02366  0.89839  1.0000 -0.5823236902
O   O7        1.0  0.43700  0.52438  0.10363  1.0000 -0.5892294248
O   O8        1.0  0.56471  0.52366  0.89839  1.0000 -0.5823236902
O   O9        1.0  0.92859  0.89791  0.54513  1.0000 -0.5383870502
O   O10       1.0  0.07163  0.89631  0.45569  1.0000 -0.5383870502
O   O11       1.0  0.42859  0.39791  0.54513  1.0000 -0.5383870502
O   O12       1.0  0.57163  0.39631  0.45569  1.0000 -0.5383870502
O   O13       1.0  0.69728  0.16951  0.17549  1.0000 -0.4872653832
O   O14       1.0  0.30252  0.16978  0.82436  1.0000 -0.4872653832
O   O15       1.0  0.19728  0.66951  0.17549  1.0000 -0.4872653832
O   O16       1.0  0.80252  0.66978  0.82436  1.0000 -0.4872653832
O   O17       1.0  0.99820  0.87950  0.23782  1.0000 -0.5823236902
O   O18       1.0  0.00280  0.87242  0.76700  1.0000 -0.5892294248
O   O19       1.0  0.49820  0.37950  0.23782  1.0000 -0.5823236902
O   O20       1.0  0.50280  0.37242  0.76700  1.0000 -0.5892294248
O   O21       1.0  0.67428  0.54856  0.26185  1.0000 -0.5210391332
O   O22       1.0  0.32508  0.55642  0.73803  1.0000 -0.5210391332
O   O23       1.0  0.17428  0.04856  0.26185  1.0000 -0.5210391332
O   O24       1.0  0.82508  0.05642  0.73803  1.0000 -0.5210391332
O   O25       1.0  0.85370  0.10917  0.54249  1.0000 -0.5484110614
O   O26       1.0  0.14617  0.10834  0.45783  1.0000 -0.5484110614
O   O27       1.0  0.35370  0.60917  0.54249  1.0000 -0.5484110614
O   O28       1.0  0.64617  0.60834  0.45783  1.0000 -0.5484110614
