# DDEC6 charges by PACMAN v1.1 (https://github.com/mtap-research/PACMAN-charge/)
data_2015[Co][sqc]3[ASR]1
_chemical_formula_sum              "Co12 H84 C140 O54"
_cell_length_a       16.5811
_cell_length_b       16.5811
_cell_length_c       23.199
_cell_angle_alpha    87.4848
_cell_angle_beta     92.5152
_cell_angle_gamma    120.797

_symmetry_space_group_name_H-M    "P 1"
_symmetry_Int_Tables_number       1

loop_
  _symmetry_equiv_pos_as_xyz
  'x, y, z'

loop_
  _atom_site_type_symbol
  _atom_site_label
  _atom_site_symmetry_multiplicity
  _atom_site_fract_x
  _atom_site_fract_y
  _atom_site_fract_z
  _atom_site_occupancy
  _atom_site_charge
Co  Co1       1.0  0.48331  0.07943  0.96484  1.0000 1.0686445276
Co  Co2       1.0  0.07943  0.48331  0.53516  1.0000 1.0686445276
Co  Co3       1.0  0.51669  0.92057  0.03516  1.0000 1.0686445276
Co  Co4       1.0  0.92057  0.51669  0.46484  1.0000 1.0686445276
Co  Co5       1.0  0.59854  0.18876  0.84334  1.0000 1.0603690783
Co  Co6       1.0  0.18876  0.59854  0.65666  1.0000 1.0603690783
Co  Co7       1.0  0.40146  0.81124  0.15666  1.0000 1.0603690783
Co  Co8       1.0  0.81124  0.40146  0.34334  1.0000 1.0603690783
Co  Co9       1.0  0.53569  0.95337  0.87019  1.0000 1.0219416658
Co  Co10      1.0  0.95337  0.53569  0.62981  1.0000 1.0219416658
Co  Co11      1.0  0.46431  0.04663  0.12981  1.0000 1.0219416658
Co  Co12      1.0  0.04663  0.46431  0.37019  1.0000 1.0219416658
H   H1        1.0  0.62060  0.09520  0.91870  1.0000 0.3634477446
H   H2        1.0  0.09520  0.62060  0.58130  1.0000 0.3634477446
H   H3        1.0  0.37940  0.90480  0.08130  1.0000 0.3634477446
H   H4        1.0  0.90480  0.37940  0.41870  1.0000 0.3634477446
H   H5        1.0  0.78020  0.45360  0.93510  1.0000 0.120431077
H   H6        1.0  0.45360  0.78020  0.56490  1.0000 0.120431077
H   H7        1.0  0.21980  0.54640  0.06490  1.0000 0.120431077
H   H8        1.0  0.54640  0.21980  0.43510  1.0000 0.120431077
H   H9        1.0  0.83150  0.60250  0.97140  1.0000 0.1402221567
H   H10       1.0  0.60250  0.83150  0.52860  1.0000 0.1402221567
H   H11       1.0  0.16850  0.39750  0.02860  1.0000 0.1402221567
H   H12       1.0  0.39750  0.16850  0.47140  1.0000 0.1402221567
H   H13       1.0  0.59110  0.49550  0.05950  1.0000 0.1402221567
H   H14       1.0  0.49550  0.59110  0.44050  1.0000 0.1402221567
H   H15       1.0  0.40890  0.50450  0.94050  1.0000 0.1402221567
H   H16       1.0  0.50450  0.40890  0.55950  1.0000 0.1402221567
H   H17       1.0  0.54200  0.34620  0.02450  1.0000 0.120431077
H   H18       1.0  0.34620  0.54200  0.47550  1.0000 0.120431077
H   H19       1.0  0.45800  0.65380  0.97550  1.0000 0.120431077
H   H20       1.0  0.65380  0.45800  0.52450  1.0000 0.120431077
H   H21       1.0  0.61330  0.72710  0.89060  1.0000 0.120431077
H   H22       1.0  0.72710  0.61330  0.60940  1.0000 0.120431077
H   H23       1.0  0.38670  0.27290  0.10940  1.0000 0.120431077
H   H24       1.0  0.27290  0.38670  0.39060  1.0000 0.120431077
H   H25       1.0  0.66930  0.63450  0.93380  1.0000 0.1303502663
H   H26       1.0  0.63450  0.66930  0.56620  1.0000 0.1303502663
H   H27       1.0  0.33070  0.36550  0.06620  1.0000 0.1303502663
H   H28       1.0  0.36550  0.33070  0.43380  1.0000 0.1303502663
H   H29       1.0  0.74240  0.78940  0.07780  1.0000 0.1303502663
H   H30       1.0  0.78940  0.74240  0.42220  1.0000 0.1303502663
H   H31       1.0  0.25760  0.21060  0.92220  1.0000 0.1303502663
H   H32       1.0  0.21060  0.25760  0.57780  1.0000 0.1303502663
H   H33       1.0  0.68220  0.87820  0.03580  1.0000 0.1134803708
H   H34       1.0  0.87820  0.68220  0.46420  1.0000 0.1134803708
H   H35       1.0  0.31780  0.12180  0.96420  1.0000 0.1134803708
H   H36       1.0  0.12180  0.31780  0.53580  1.0000 0.1134803708
H   H37       1.0  0.20750  0.00150  0.89230  1.0000 0.1303502663
H   H38       1.0  0.00150  0.20750  0.60770  1.0000 0.1303502663
H   H39       1.0  0.79250  0.99850  0.10770  1.0000 0.1303502663
H   H40       1.0  0.99850  0.79250  0.39230  1.0000 0.1303502663
H   H41       1.0  0.07210  0.98390  0.84620  1.0000 0.1402221567
H   H42       1.0  0.98390  0.07210  0.65380  1.0000 0.1402221567
H   H43       1.0  0.92790  0.01610  0.15380  1.0000 0.1402221567
H   H44       1.0  0.01610  0.92790  0.34620  1.0000 0.1402221567
H   H45       1.0  0.22760  0.14720  0.71250  1.0000 0.1303502663
H   H46       1.0  0.14720  0.22760  0.78750  1.0000 0.1303502663
H   H47       1.0  0.77240  0.85280  0.28750  1.0000 0.1303502663
H   H48       1.0  0.85280  0.77240  0.21250  1.0000 0.1303502663
H   H49       1.0  0.36390  0.16630  0.76010  1.0000 0.1303502663
H   H50       1.0  0.16630  0.36390  0.73990  1.0000 0.1303502663
H   H51       1.0  0.63610  0.83370  0.23990  1.0000 0.1303502663
H   H52       1.0  0.83370  0.63610  0.26010  1.0000 0.1303502663
H   H53       1.0  0.24000  0.69280  0.91180  1.0000 0.120431077
H   H54       1.0  0.69280  0.24000  0.58820  1.0000 0.120431077
H   H55       1.0  0.76000  0.30720  0.08820  1.0000 0.120431077
H   H56       1.0  0.30720  0.76000  0.41180  1.0000 0.120431077
H   H57       1.0  0.09210  0.59090  0.95050  1.0000 0.1303502663
H   H58       1.0  0.59090  0.09210  0.54950  1.0000 0.1303502663
H   H59       1.0  0.90790  0.40910  0.04950  1.0000 0.1303502663
H   H60       1.0  0.40910  0.90790  0.45050  1.0000 0.1303502663
H   H61       1.0  0.11860  0.80180  0.04670  1.0000 0.1303502663
H   H62       1.0  0.80180  0.11860  0.45330  1.0000 0.1303502663
H   H63       1.0  0.88140  0.19820  0.95330  1.0000 0.1303502663
H   H64       1.0  0.19820  0.88140  0.54670  1.0000 0.1303502663
H   H65       1.0  0.26790  0.90310  0.00990  1.0000 0.1303502663
H   H66       1.0  0.90310  0.26790  0.49010  1.0000 0.1303502663
H   H67       1.0  0.73210  0.09690  0.99010  1.0000 0.1303502663
H   H68       1.0  0.09690  0.73210  0.50990  1.0000 0.1303502663
H   H69       1.0  0.12740  0.57060  0.18800  1.0000 0.120431077
H   H70       1.0  0.57060  0.12740  0.31200  1.0000 0.120431077
H   H71       1.0  0.87260  0.42940  0.81200  1.0000 0.120431077
H   H72       1.0  0.42940  0.87260  0.68800  1.0000 0.120431077
H   H73       1.0  0.14300  0.63320  0.09410  1.0000 0.1303502663
H   H74       1.0  0.63320  0.14300  0.40590  1.0000 0.1303502663
H   H75       1.0  0.85700  0.36680  0.90590  1.0000 0.1303502663
H   H76       1.0  0.36680  0.85700  0.59410  1.0000 0.1303502663
H   H77       1.0  0.86600  0.54960  0.08910  1.0000 0.1402221567
H   H78       1.0  0.54960  0.86600  0.41090  1.0000 0.1402221567
H   H79       1.0  0.13400  0.45040  0.91090  1.0000 0.1402221567
H   H80       1.0  0.45040  0.13400  0.58910  1.0000 0.1402221567
H   H81       1.0  0.85160  0.48800  0.18320  1.0000 0.120431077
H   H82       1.0  0.48800  0.85160  0.31680  1.0000 0.120431077
H   H83       1.0  0.14840  0.51200  0.81680  1.0000 0.120431077
H   H84       1.0  0.51200  0.14840  0.68320  1.0000 0.120431077
C   C1        1.0  0.61942  0.29138  0.94991  1.0000 0.5986375998
C   C2        1.0  0.29138  0.61942  0.55009  1.0000 0.5986375998
C   C3        1.0  0.38058  0.70862  0.05009  1.0000 0.5986375998
C   C4        1.0  0.70862  0.38058  0.44991  1.0000 0.5986375998
C   C5        1.0  0.65554  0.38606  0.97526  1.0000 -0.040670723
C   C6        1.0  0.38606  0.65554  0.52474  1.0000 -0.040670723
C   C7        1.0  0.34446  0.61394  0.02474  1.0000 -0.040670723
C   C8        1.0  0.61394  0.34446  0.47526  1.0000 -0.040670723
C   C9        1.0  0.74149  0.46191  0.96026  1.0000 -0.0790850225
C   C10       1.0  0.46191  0.74149  0.53974  1.0000 -0.0790850225
C   C11       1.0  0.25851  0.53809  0.03974  1.0000 -0.0728700067
C   C12       1.0  0.53809  0.25851  0.46026  1.0000 -0.0790850225
C   C13       1.0  0.77205  0.55055  0.98150  1.0000 -0.2104776822
C   C14       1.0  0.55055  0.77205  0.51850  1.0000 -0.2104776822
C   C15       1.0  0.22795  0.44945  0.01850  1.0000 -0.2104776822
C   C16       1.0  0.44945  0.22795  0.48150  1.0000 -0.2104776822
C   C17       1.0  0.71479  0.56181  0.01740  1.0000 0.2392006333
C   C18       1.0  0.56181  0.71479  0.48260  1.0000 0.2392006333
C   C19       1.0  0.28521  0.43819  0.98260  1.0000 0.2392006333
C   C20       1.0  0.43819  0.28521  0.51740  1.0000 0.2392006333
C   C21       1.0  0.62942  0.48698  0.03410  1.0000 -0.2104776822
C   C22       1.0  0.48698  0.62942  0.46590  1.0000 -0.2104776822
C   C23       1.0  0.37058  0.51302  0.96590  1.0000 -0.2104776822
C   C24       1.0  0.51302  0.37058  0.53410  1.0000 -0.2104776822
C   C25       1.0  0.60028  0.39852  0.01300  1.0000 -0.0728700067
C   C26       1.0  0.39852  0.60028  0.48700  1.0000 -0.0728700067
C   C27       1.0  0.39972  0.60148  0.98700  1.0000 -0.0728700067
C   C28       1.0  0.60148  0.39972  0.51300  1.0000 -0.0728700067
C   C29       1.0  0.60074  0.86686  0.93334  1.0000 0.5719493071
C   C30       1.0  0.86686  0.60074  0.56666  1.0000 0.5719493071
C   C31       1.0  0.39926  0.13314  0.06666  1.0000 0.5719493071
C   C32       1.0  0.13314  0.39926  0.43334  1.0000 0.5719493071
C   C33       1.0  0.64058  0.81142  0.95940  1.0000 -0.0501639263
C   C34       1.0  0.81142  0.64058  0.54060  1.0000 -0.0501639263
C   C35       1.0  0.35942  0.18858  0.04060  1.0000 -0.0501639263
C   C36       1.0  0.18858  0.35942  0.45940  1.0000 -0.0501639263
C   C37       1.0  0.63820  0.73880  0.92900  1.0000 -0.0728700067
C   C38       1.0  0.73880  0.63820  0.57100  1.0000 -0.0728700067
C   C39       1.0  0.36180  0.26120  0.07100  1.0000 -0.0728700067
C   C40       1.0  0.26120  0.36180  0.42900  1.0000 -0.0728700067
C   C41       1.0  0.67192  0.68408  0.95440  1.0000 -0.2281284106
C   C42       1.0  0.68408  0.67192  0.54560  1.0000 -0.2281284106
C   C43       1.0  0.32808  0.31592  0.04560  1.0000 -0.2281284106
C   C44       1.0  0.31592  0.32808  0.45440  1.0000 -0.2281284106
C   C45       1.0  0.70935  0.70205  0.01000  1.0000 0.258274142
C   C46       1.0  0.70205  0.70935  0.49000  1.0000 0.258274142
C   C47       1.0  0.29065  0.29795  0.99000  1.0000 0.258274142
C   C48       1.0  0.29795  0.29065  0.51000  1.0000 0.258274142
C   C49       1.0  0.71468  0.77572  0.04010  1.0000 -0.2104776822
C   C50       1.0  0.77572  0.71468  0.45990  1.0000 -0.2104776822
C   C51       1.0  0.28532  0.22428  0.95990  1.0000 -0.2104776822
C   C52       1.0  0.22428  0.28532  0.54010  1.0000 -0.2104776822
C   C53       1.0  0.67963  0.82897  0.01490  1.0000 -0.0728700067
C   C54       1.0  0.82897  0.67963  0.48510  1.0000 -0.0728700067
C   C55       1.0  0.32037  0.17103  0.98510  1.0000 -0.0728700067
C   C56       1.0  0.17103  0.32037  0.51490  1.0000 -0.0728700067
C   C57       1.0  0.38809  0.10451  0.86302  1.0000 0.5911963026
C   C58       1.0  0.10451  0.38809  0.63698  1.0000 0.5911963026
C   C59       1.0  0.61191  0.89549  0.13698  1.0000 0.5911963026
C   C60       1.0  0.89549  0.61191  0.36302  1.0000 0.5911963026
C   C61       1.0  0.29943  0.08877  0.83200  1.0000 -0.0290487019
C   C62       1.0  0.08877  0.29943  0.66800  1.0000 -0.0290487019
C   C63       1.0  0.70057  0.91123  0.16800  1.0000 -0.0290487019
C   C64       1.0  0.91123  0.70057  0.33200  1.0000 -0.0290487019
C   C65       1.0  0.21187  0.03273  0.85621  1.0000 -0.0923018733
C   C66       1.0  0.03273  0.21187  0.64379  1.0000 -0.0923018733
C   C67       1.0  0.78813  0.96727  0.14379  1.0000 -0.0923018733
C   C68       1.0  0.96727  0.78813  0.35621  1.0000 -0.0923018733
C   C69       1.0  0.13137  0.02163  0.82890  1.0000 -0.2004810333
C   C70       1.0  0.02163  0.13137  0.67110  1.0000 -0.2004810333
C   C71       1.0  0.86863  0.97837  0.17110  1.0000 -0.2004810333
C   C72       1.0  0.97837  0.86863  0.32890  1.0000 -0.2004810333
C   C73       1.0  0.13834  0.06646  0.77590  1.0000 0.2467763166
C   C74       1.0  0.06646  0.13834  0.72410  1.0000 0.2467763166
C   C75       1.0  0.86166  0.93354  0.22410  1.0000 0.2467763166
C   C76       1.0  0.93354  0.86166  0.27590  1.0000 0.2467763166
C   C77       1.0  0.22389  0.11891  0.74960  1.0000 -0.2281284106
C   C78       1.0  0.11891  0.22389  0.75040  1.0000 -0.2281284106
C   C79       1.0  0.77611  0.88109  0.25040  1.0000 -0.2281284106
C   C80       1.0  0.88109  0.77611  0.24960  1.0000 -0.2281284106
C   C81       1.0  0.30481  0.13019  0.77790  1.0000 -0.0790850225
C   C82       1.0  0.13019  0.30481  0.72210  1.0000 -0.0790850225
C   C83       1.0  0.69519  0.86981  0.22210  1.0000 -0.0790850225
C   C84       1.0  0.86981  0.69519  0.27790  1.0000 -0.0790850225
C   C85       1.0  0.36803  0.86997  0.94037  1.0000 0.6053583662
C   C86       1.0  0.86997  0.36803  0.55963  1.0000 0.6053583662
C   C87       1.0  0.63197  0.13003  0.05963  1.0000 0.6053583662
C   C88       1.0  0.13003  0.63197  0.44037  1.0000 0.6053583662
C   C89       1.0  0.26925  0.80635  0.95850  1.0000 -0.0290487019
C   C90       1.0  0.80635  0.26925  0.54150  1.0000 -0.0290487019
C   C91       1.0  0.73075  0.19365  0.04150  1.0000 -0.0290487019
C   C92       1.0  0.19365  0.73075  0.45850  1.0000 -0.0290487019
C   C93       1.0  0.21617  0.71443  0.94003  1.0000 -0.0790850225
C   C94       1.0  0.71443  0.21617  0.55997  1.0000 -0.0790850225
C   C95       1.0  0.78383  0.28557  0.05997  1.0000 -0.0790850225
C   C96       1.0  0.28557  0.78383  0.44003  1.0000 -0.0790850225
C   C97       1.0  0.12842  0.65398  0.96270  1.0000 -0.2004810333
C   C98       1.0  0.65398  0.12842  0.53730  1.0000 -0.2004810333
C   C99       1.0  0.87158  0.34602  0.03730  1.0000 -0.2004810333
C   C100      1.0  0.34602  0.87158  0.46270  1.0000 -0.2004810333
C   C101      1.0  0.09478  0.68762  0.00341  1.0000 0.2392006333
C   C102      1.0  0.68762  0.09478  0.49659  1.0000 0.2392006333
C   C103      1.0  0.90522  0.31238  0.99659  1.0000 0.2392006333
C   C104      1.0  0.31238  0.90522  0.50341  1.0000 0.2392006333
C   C105      1.0  0.14442  0.77958  0.02020  1.0000 -0.2004810333
C   C106      1.0  0.77958  0.14442  0.47980  1.0000 -0.2004810333
C   C107      1.0  0.85558  0.22042  0.97980  1.0000 -0.2004810333
C   C108      1.0  0.22042  0.85558  0.52020  1.0000 -0.2004810333
C   C109      1.0  0.23257  0.83963  0.99814  1.0000 -0.0923018733
C   C110      1.0  0.83963  0.23257  0.50186  1.0000 -0.0923018733
C   C111      1.0  0.76743  0.16037  0.00186  1.0000 -0.0923018733
C   C112      1.0  0.16037  0.76743  0.49814  1.0000 -0.0923018733
C   C113      1.0  0.97789  0.48651  0.25641  1.0000 0.5986375998
C   C114      1.0  0.48651  0.97789  0.24359  1.0000 0.5986375998
C   C115      1.0  0.02211  0.51349  0.74359  1.0000 0.5986375998
C   C116      1.0  0.51349  0.02211  0.75641  1.0000 0.5986375998
C   C117      1.0  0.98882  0.52398  0.19516  1.0000 -0.040670723
C   C118      1.0  0.52398  0.98882  0.30484  1.0000 -0.040670723
C   C119      1.0  0.01118  0.47602  0.80484  1.0000 -0.040670723
C   C120      1.0  0.47602  0.01118  0.69516  1.0000 -0.040670723
C   C121      1.0  0.07429  0.56651  0.16801  1.0000 -0.0728700067
C   C122      1.0  0.56651  0.07429  0.33199  1.0000 -0.0728700067
C   C123      1.0  0.92571  0.43349  0.83199  1.0000 -0.0728700067
C   C124      1.0  0.43349  0.92571  0.66801  1.0000 -0.0728700067
C   C125      1.0  0.08379  0.60341  0.11209  1.0000 -0.2383975943
C   C126      1.0  0.60341  0.08379  0.38791  1.0000 -0.2383975943
C   C127      1.0  0.91621  0.39659  0.88791  1.0000 -0.2383975943
C   C128      1.0  0.39659  0.91621  0.61209  1.0000 -0.2383975943
C   C129      1.0  0.00563  0.59597  0.08310  1.0000 0.258274142
C   C130      1.0  0.59597  0.00563  0.41690  1.0000 0.258274142
C   C131      1.0  0.99437  0.40403  0.91690  1.0000 0.258274142
C   C132      1.0  0.40403  0.99437  0.58310  1.0000 0.258274142
C   C133      1.0  0.91898  0.55362  0.10930  1.0000 -0.2186855385
C   C134      1.0  0.55362  0.91898  0.39070  1.0000 -0.2186855385
C   C135      1.0  0.08102  0.44638  0.89070  1.0000 -0.2186855385
C   C136      1.0  0.44638  0.08102  0.60930  1.0000 -0.2186855385
C   C137      1.0  0.91075  0.51745  0.16518  1.0000 -0.0790850225
C   C138      1.0  0.51745  0.91075  0.33482  1.0000 -0.0790850225
C   C139      1.0  0.08925  0.48255  0.83482  1.0000 -0.0790850225
C   C140      1.0  0.48255  0.08925  0.66518  1.0000 -0.0728700067
O   O1        1.0  0.55096  0.22204  0.97450  1.0000 -0.5618113687
O   O2        1.0  0.22204  0.55096  0.52550  1.0000 -0.5618113687
O   O3        1.0  0.44904  0.77796  0.02550  1.0000 -0.5618113687
O   O4        1.0  0.77796  0.44904  0.47450  1.0000 -0.5618113687
O   O5        1.0  0.65921  0.28885  0.90538  1.0000 -0.6039605895
O   O6        1.0  0.28885  0.65921  0.59462  1.0000 -0.6039605895
O   O7        1.0  0.34079  0.71115  0.09462  1.0000 -0.6039605895
O   O8        1.0  0.71115  0.34079  0.40538  1.0000 -0.6039605895
O   O9        1.0  0.74431  0.65109  0.03859  1.0000 -0.2281284106
O   O10       1.0  0.65109  0.74431  0.46141  1.0000 -0.2281284106
O   O11       1.0  0.25569  0.34891  0.96141  1.0000 -0.2281284106
O   O12       1.0  0.34891  0.25569  0.53859  1.0000 -0.2281284106
O   O13       1.0  0.59490  0.92734  0.96226  1.0000 -0.6039605895
O   O14       1.0  0.92734  0.59490  0.53774  1.0000 -0.6039605895
O   O15       1.0  0.40510  0.07266  0.03774  1.0000 -0.6039605895
O   O16       1.0  0.07266  0.40510  0.46226  1.0000 -0.6039605895
O   O17       1.0  0.57374  0.85446  0.88085  1.0000 -0.5401977499
O   O18       1.0  0.85446  0.57374  0.61915  1.0000 -0.5401977499
O   O19       1.0  0.42626  0.14554  0.11915  1.0000 -0.5342393478
O   O20       1.0  0.14554  0.42626  0.38085  1.0000 -0.5342393478
O   O21       1.0  0.37794  0.05350  0.90684  1.0000 -0.5401977499
O   O22       1.0  0.05350  0.37794  0.59316  1.0000 -0.5401977499
O   O23       1.0  0.62206  0.94650  0.09316  1.0000 -0.5401977499
O   O24       1.0  0.94650  0.62206  0.40684  1.0000 -0.5401977499
O   O25       1.0  0.46404  0.16864  0.84313  1.0000 -0.5718046387
O   O26       1.0  0.16864  0.46404  0.65687  1.0000 -0.5718046387
O   O27       1.0  0.53596  0.83136  0.15687  1.0000 -0.5718046387
O   O28       1.0  0.83136  0.53596  0.34313  1.0000 -0.5718046387
O   O29       1.0  0.05670  0.05670  0.75000  1.0000 -0.2186855385
O   O30       1.0  0.94330  0.94330  0.25000  1.0000 -0.2186855385
O   O31       1.0  0.42106  0.93296  0.97603  1.0000 -0.6278292497
O   O32       1.0  0.93296  0.42106  0.52397  1.0000 -0.6278292497
O   O33       1.0  0.57894  0.06704  0.02397  1.0000 -0.6278292497
O   O34       1.0  0.06704  0.57894  0.47603  1.0000 -0.6278292497
O   O35       1.0  0.39579  0.85995  0.89302  1.0000 -0.5156297942
O   O36       1.0  0.85995  0.39579  0.60698  1.0000 -0.5156297942
O   O37       1.0  0.60421  0.14005  0.10698  1.0000 -0.5156297942
O   O38       1.0  0.14005  0.60421  0.39302  1.0000 -0.5156297942
O   O39       1.0  0.00605  0.62715  0.02635  1.0000 -0.2281284106
O   O40       1.0  0.62715  0.00605  0.47365  1.0000 -0.2281284106
O   O41       1.0  0.99395  0.37285  0.97365  1.0000 -0.2281284106
O   O42       1.0  0.37285  0.99395  0.52635  1.0000 -0.2281284106
O   O43       1.0  0.05082  0.50498  0.28620  1.0000 -0.5401977499
O   O44       1.0  0.50498  0.05082  0.21380  1.0000 -0.5401977499
O   O45       1.0  0.94918  0.49502  0.71380  1.0000 -0.5401977499
O   O46       1.0  0.49502  0.94918  0.78620  1.0000 -0.5401977499
O   O47       1.0  0.89564  0.44016  0.27355  1.0000 -0.6039605895
O   O48       1.0  0.44016  0.89564  0.22645  1.0000 -0.6039605895
O   O49       1.0  0.10436  0.55984  0.72645  1.0000 -0.6039605895
O   O50       1.0  0.55984  0.10436  0.77355  1.0000 -0.6039605895
O   O51       1.0  0.56872  0.07926  0.90116  1.0000 -0.8955870231
O   O52       1.0  0.07926  0.56872  0.59884  1.0000 -0.8944179574
O   O53       1.0  0.43128  0.92074  0.09884  1.0000 -0.8944179574
O   O54       1.0  0.92074  0.43128  0.40116  1.0000 -0.8944179574
