# DDEC6 charges by PACMAN v1.1 (https://github.com/mtap-research/PACMAN-charge/)
data_2015[Cd][pcu]3[ASR]3
_chemical_formula_sum              "Cd4 H84 C132 N36 O16"
_cell_length_a       11.1597
_cell_length_b       22.075
_cell_length_c       17.434
_cell_angle_alpha    90
_cell_angle_beta     99.424
_cell_angle_gamma    90

_symmetry_space_group_name_H-M    "P 1"
_symmetry_Int_Tables_number       1

loop_
  _symmetry_equiv_pos_as_xyz
  'x, y, z'

loop_
  _atom_site_type_symbol
  _atom_site_label
  _atom_site_symmetry_multiplicity
  _atom_site_fract_x
  _atom_site_fract_y
  _atom_site_fract_z
  _atom_site_occupancy
  _atom_site_charge
Cd  Cd1       1.0  0.63237  0.55739  0.52872  1.0000 0.8545157353
Cd  Cd2       1.0  0.36763  0.05739  0.97128  1.0000 0.8545157353
Cd  Cd3       1.0  0.36763  0.44261  0.47128  1.0000 0.8545157353
Cd  Cd4       1.0  0.63237  0.94261  0.02872  1.0000 0.8545157353
H   H1        1.0  0.88410  0.58150  0.16650  1.0000 0.285662126
H   H2        1.0  0.11590  0.08150  0.33350  1.0000 0.285662126
H   H3        1.0  0.11590  0.41850  0.83350  1.0000 0.285662126
H   H4        1.0  0.88410  0.91850  0.66650  1.0000 0.285662126
H   H5        1.0  0.23690  0.59320  0.82640  1.0000 0.2770070772
H   H6        1.0  0.76310  0.09320  0.67360  1.0000 0.2770070772
H   H7        1.0  0.76310  0.40680  0.17360  1.0000 0.2770070772
H   H8        1.0  0.23690  0.90680  0.32640  1.0000 0.2770070772
H   H9        1.0  0.66020  0.49910  0.69350  1.0000 0.1104926129
H   H10       1.0  0.33980  0.99910  0.80650  1.0000 0.1104926129
H   H11       1.0  0.33980  0.50090  0.30650  1.0000 0.1104926129
H   H12       1.0  0.66020  0.00090  0.19350  1.0000 0.1104926129
H   H13       1.0  0.77280  0.59830  0.25910  1.0000 0.1320017393
H   H14       1.0  0.22720  0.09830  0.24090  1.0000 0.1320017393
H   H15       1.0  0.22720  0.40170  0.74090  1.0000 0.1320017393
H   H16       1.0  0.77280  0.90170  0.75910  1.0000 0.1320017393
H   H17       1.0  0.57550  0.48690  0.80330  1.0000 0.1475802253
H   H18       1.0  0.42450  0.98690  0.69670  1.0000 0.1475802253
H   H19       1.0  0.42450  0.51310  0.19670  1.0000 0.1475802253
H   H20       1.0  0.57550  0.01310  0.30330  1.0000 0.1475802253
H   H21       1.0  0.97710  0.47490  0.39010  1.0000 0.1388827677
H   H22       1.0  0.02290  0.97490  0.10990  1.0000 0.1388827677
H   H23       1.0  0.02290  0.52510  0.60990  1.0000 0.1388827677
H   H24       1.0  0.97710  0.02510  0.89010  1.0000 0.1388827677
H   H25       1.0  0.39580  0.60480  0.60090  1.0000 0.1104926129
H   H26       1.0  0.60420  0.10480  0.89910  1.0000 0.1104926129
H   H27       1.0  0.60420  0.39520  0.39910  1.0000 0.1104926129
H   H28       1.0  0.39580  0.89520  0.10090  1.0000 0.1104926129
H   H29       1.0  0.30460  0.59640  0.70980  1.0000 0.1320017393
H   H30       1.0  0.69540  0.09640  0.79020  1.0000 0.1320017393
H   H31       1.0  0.69540  0.40360  0.29020  1.0000 0.1320017393
H   H32       1.0  0.30460  0.90360  0.20980  1.0000 0.1320017393
H   H33       1.0  0.85210  0.48500  0.48120  1.0000 0.1104926129
H   H34       1.0  0.14790  0.98500  0.01880  1.0000 0.1104926129
H   H35       1.0  0.14790  0.51500  0.51880  1.0000 0.1104926129
H   H36       1.0  0.85210  0.01500  0.98120  1.0000 0.1104926129
H   H37       1.0  0.89870  0.60840  0.05120  1.0000 0.1104926129
H   H38       1.0  0.10130  0.10840  0.44880  1.0000 0.1104926129
H   H39       1.0  0.10130  0.39160  0.94880  1.0000 0.1104926129
H   H40       1.0  0.89870  0.89160  0.55120  1.0000 0.1104926129
H   H41       1.0  0.21270  0.51890  0.06420  1.0000 0.1388827677
H   H42       1.0  0.78730  0.01890  0.43580  1.0000 0.1388827677
H   H43       1.0  0.78730  0.48110  0.93580  1.0000 0.1388827677
H   H44       1.0  0.21270  0.98110  0.56420  1.0000 0.1388827677
H   H45       1.0  0.65650  0.60630  0.35630  1.0000 0.1104926129
H   H46       1.0  0.34350  0.10630  0.14370  1.0000 0.1104926129
H   H47       1.0  0.34350  0.39370  0.64370  1.0000 0.1104926129
H   H48       1.0  0.65650  0.89370  0.85630  1.0000 0.1104926129
H   H49       1.0  0.06600  0.60780  0.87250  1.0000 0.1002710062
H   H50       1.0  0.93400  0.10780  0.62750  1.0000 0.1002710062
H   H51       1.0  0.93400  0.39220  0.12750  1.0000 0.1002710062
H   H52       1.0  0.06600  0.89220  0.37250  1.0000 0.1002710062
H   H53       1.0  0.84030  0.17720  0.73290  1.0000 0.1002710062
H   H54       1.0  0.15970  0.67720  0.76710  1.0000 0.1002710062
H   H55       1.0  0.15970  0.82280  0.26710  1.0000 0.1002710062
H   H56       1.0  0.84030  0.32280  0.23290  1.0000 0.1002710062
H   H57       1.0  0.56620  0.31940  0.65720  1.0000 0.1215470691
H   H58       1.0  0.43380  0.81940  0.84280  1.0000 0.1215470691
H   H59       1.0  0.43380  0.68060  0.34280  1.0000 0.1215470691
H   H60       1.0  0.56620  0.18060  0.15720  1.0000 0.1215470691
H   H61       1.0  0.97600  0.10990  0.80260  1.0000 0.1104926129
H   H62       1.0  0.02400  0.60990  0.69740  1.0000 0.1104926129
H   H63       1.0  0.02400  0.89010  0.19740  1.0000 0.1104926129
H   H64       1.0  0.97600  0.39010  0.30260  1.0000 0.1104926129
H   H65       1.0  0.05990  0.31550  0.81560  1.0000 0.1002710062
H   H66       1.0  0.94010  0.81550  0.68440  1.0000 0.1002710062
H   H67       1.0  0.94010  0.68450  0.18440  1.0000 0.1002710062
H   H68       1.0  0.05990  0.18450  0.31560  1.0000 0.1002710062
H   H69       1.0  0.69480  0.25660  0.73800  1.0000 0.1104926129
H   H70       1.0  0.30520  0.75660  0.76200  1.0000 0.1215470691
H   H71       1.0  0.30520  0.74340  0.26200  1.0000 0.1104926129
H   H72       1.0  0.69480  0.24340  0.23800  1.0000 0.1104926129
H   H73       1.0  0.97960  0.35160  0.69150  1.0000 0.1002710062
H   H74       1.0  0.02040  0.85160  0.80850  1.0000 0.1002710062
H   H75       1.0  0.02040  0.64840  0.30850  1.0000 0.1002710062
H   H76       1.0  0.97960  0.14840  0.19150  1.0000 0.1002710062
H   H77       1.0  0.84970  0.41470  0.60970  1.0000 0.1215470691
H   H78       1.0  0.15030  0.91470  0.89030  1.0000 0.1215470691
H   H79       1.0  0.15030  0.58530  0.39030  1.0000 0.1215470691
H   H80       1.0  0.84970  0.08530  0.10970  1.0000 0.1215470691
H   H81       1.0  0.19460  0.24710  0.88220  1.0000 0.1215470691
H   H82       1.0  0.80540  0.74710  0.61780  1.0000 0.1215470691
H   H83       1.0  0.80540  0.75290  0.11780  1.0000 0.1215470691
H   H84       1.0  0.19460  0.25290  0.38220  1.0000 0.1215470691
C   C1        1.0  0.42890  0.54000  0.76870  1.0000 0.0783269222
C   C2        1.0  0.57110  0.04000  0.73130  1.0000 0.0783269222
C   C3        1.0  0.57110  0.46000  0.23130  1.0000 0.0783269222
C   C4        1.0  0.42890  0.96000  0.26870  1.0000 0.0783269222
C   C5        1.0  0.58750  0.51870  0.69690  1.0000 0.0888837998
C   C6        1.0  0.41250  0.01870  0.80310  1.0000 0.0888837998
C   C7        1.0  0.41250  0.48130  0.30310  1.0000 0.0888837998
C   C8        1.0  0.58750  0.98130  0.19690  1.0000 0.0888837998
C   C9        1.0  0.37190  0.53180  0.83830  1.0000 0.2198935861
C   C10       1.0  0.62810  0.03180  0.66170  1.0000 0.2198935861
C   C11       1.0  0.62810  0.46820  0.16170  1.0000 0.2198935861
C   C12       1.0  0.37190  0.96820  0.33830  1.0000 0.2198935861
C   C13       1.0  0.88860  0.53510  0.31320  1.0000 0.0625423624
C   C14       1.0  0.11140  0.03510  0.18680  1.0000 0.0625423624
C   C15       1.0  0.11140  0.46490  0.68680  1.0000 0.0625423624
C   C16       1.0  0.88860  0.96490  0.81320  1.0000 0.0625423624
C   C17       1.0  0.79100  0.57500  0.30390  1.0000 -0.2034540695
C   C18       1.0  0.20900  0.07500  0.19610  1.0000 -0.2034540695
C   C19       1.0  0.20900  0.42500  0.69610  1.0000 -0.2034540695
C   C20       1.0  0.79100  0.92500  0.80390  1.0000 -0.2034540695
C   C21       1.0  0.96440  0.53020  0.25220  1.0000 0.2284415646
C   C22       1.0  0.03560  0.03020  0.24780  1.0000 0.2284415646
C   C23       1.0  0.03560  0.46980  0.74780  1.0000 0.2284415646
C   C24       1.0  0.96440  0.96980  0.75220  1.0000 0.2284415646
C   C25       1.0  0.53730  0.51110  0.76290  1.0000 -0.1697887924
C   C26       1.0  0.46270  0.01110  0.73710  1.0000 -0.1697887924
C   C27       1.0  0.46270  0.48890  0.23710  1.0000 -0.1697887924
C   C28       1.0  0.53730  0.98890  0.26290  1.0000 -0.1697887924
C   C29       1.0  0.05290  0.56080  0.07170  1.0000 -0.0127645346
C   C30       1.0  0.94710  0.06080  0.42830  1.0000 -0.0127645346
C   C31       1.0  0.94710  0.43920  0.92830  1.0000 -0.0127645346
C   C32       1.0  0.05290  0.93920  0.57170  1.0000 -0.0127645346
C   C33       1.0  0.91180  0.50160  0.38150  1.0000 -0.1902525286
C   C34       1.0  0.08820  0.00160  0.11850  1.0000 -0.1902525286
C   C35       1.0  0.08820  0.49840  0.61850  1.0000 -0.1902525286
C   C36       1.0  0.91180  0.99840  0.88150  1.0000 -0.1902525286
C   C37       1.0  0.03950  0.54170  0.15050  1.0000 0.2284415646
C   C38       1.0  0.96050  0.04170  0.34950  1.0000 0.2284415646
C   C39       1.0  0.96050  0.45830  0.84950  1.0000 0.2284415646
C   C40       1.0  0.03950  0.95830  0.65050  1.0000 0.2284415646
C   C41       1.0  0.43240  0.58100  0.64220  1.0000 0.1002710062
C   C42       1.0  0.56760  0.08100  0.85780  1.0000 0.1002710062
C   C43       1.0  0.56760  0.41900  0.35780  1.0000 0.1002710062
C   C44       1.0  0.43240  0.91900  0.14220  1.0000 0.1002710062
C   C45       1.0  0.37660  0.57590  0.70740  1.0000 -0.2060679269
C   C46       1.0  0.62340  0.07590  0.79260  1.0000 -0.2060679269
C   C47       1.0  0.62340  0.42410  0.29260  1.0000 -0.2060679269
C   C48       1.0  0.37660  0.92410  0.20740  1.0000 -0.2060679269
C   C49       1.0  0.83680  0.50830  0.43620  1.0000 0.0888837998
C   C50       1.0  0.16320  0.00830  0.06380  1.0000 0.0888837998
C   C51       1.0  0.16320  0.49170  0.56380  1.0000 0.0888837998
C   C52       1.0  0.83680  0.99170  0.93620  1.0000 0.0888837998
C   C53       1.0  0.15600  0.56060  0.96150  1.0000 -0.0127645346
C   C54       1.0  0.84400  0.06060  0.53850  1.0000 -0.0127645346
C   C55       1.0  0.84400  0.43940  0.03850  1.0000 -0.0127645346
C   C56       1.0  0.15600  0.93940  0.46150  1.0000 -0.0127645346
C   C57       1.0  0.96430  0.59630  0.02820  1.0000 0.0108121128
C   C58       1.0  0.03570  0.09630  0.47180  1.0000 0.0046572148
C   C59       1.0  0.03570  0.40370  0.97180  1.0000 0.0108121128
C   C60       1.0  0.96430  0.90370  0.52820  1.0000 0.0108121128
C   C61       1.0  0.15120  0.54270  0.03700  1.0000 -0.1002726245
C   C62       1.0  0.84880  0.04270  0.46300  1.0000 -0.1002726245
C   C63       1.0  0.84880  0.45730  0.96300  1.0000 -0.1002726245
C   C64       1.0  0.15120  0.95730  0.53700  1.0000 -0.1002726245
C   C65       1.0  0.09970  0.17050  0.84750  1.0000 -0.0288889168
C   C66       1.0  0.90030  0.67050  0.65250  1.0000 -0.0288889168
C   C67       1.0  0.90030  0.82950  0.15250  1.0000 -0.0288889168
C   C68       1.0  0.09970  0.32950  0.34750  1.0000 -0.0288889168
C   C69       1.0  0.25360  0.54110  0.91940  1.0000 0.2470977346
C   C70       1.0  0.74640  0.04110  0.58060  1.0000 0.2470977346
C   C71       1.0  0.74640  0.45890  0.08060  1.0000 0.2470977346
C   C72       1.0  0.25360  0.95890  0.41940  1.0000 0.2470977346
C   C73       1.0  0.72150  0.57940  0.36260  1.0000 0.0888837998
C   C74       1.0  0.27850  0.07940  0.13740  1.0000 0.0888837998
C   C75       1.0  0.27850  0.42060  0.63740  1.0000 0.0888837998
C   C76       1.0  0.72150  0.92060  0.86260  1.0000 0.0888837998
C   C77       1.0  0.61210  0.41380  0.56730  1.0000 0.5457319956
C   C78       1.0  0.38790  0.91380  0.93270  1.0000 0.5457319956
C   C79       1.0  0.38790  0.58620  0.43270  1.0000 0.5457319956
C   C80       1.0  0.61210  0.08620  0.06730  1.0000 0.5457319956
C   C81       1.0  0.06250  0.59600  0.92330  1.0000 0.0108121128
C   C82       1.0  0.93750  0.09600  0.57670  1.0000 0.0108121128
C   C83       1.0  0.93750  0.40400  0.07670  1.0000 0.0108121128
C   C84       1.0  0.06250  0.90400  0.42330  1.0000 0.0108121128
C   C85       1.0  0.85120  0.29600  0.72080  1.0000 0.0698564093
C   C86       1.0  0.14880  0.79600  0.77920  1.0000 0.0698564093
C   C87       1.0  0.14880  0.70400  0.27920  1.0000 0.0698564093
C   C88       1.0  0.85120  0.20400  0.22080  1.0000 0.0698564093
C   C89       1.0  0.18910  0.12850  0.89020  1.0000 0.5457319956
C   C90       1.0  0.81090  0.62850  0.60980  1.0000 0.5457319956
C   C91       1.0  0.81090  0.87150  0.10980  1.0000 0.5457319956
C   C92       1.0  0.18910  0.37150  0.39020  1.0000 0.5457319956
C   C93       1.0  0.91120  0.19150  0.76300  1.0000 -0.1798233648
C   C94       1.0  0.08880  0.69150  0.73700  1.0000 -0.1798233648
C   C95       1.0  0.08880  0.80850  0.23700  1.0000 -0.1798233648
C   C96       1.0  0.91120  0.30850  0.26300  1.0000 -0.1798233648
C   C97       1.0  0.93570  0.25350  0.76680  1.0000 0.0888837998
C   C98       1.0  0.06430  0.75350  0.73320  1.0000 0.0888837998
C   C99       1.0  0.06430  0.74650  0.23320  1.0000 0.0888837998
C   C100      1.0  0.93570  0.24650  0.26680  1.0000 0.0888837998
C   C101      1.0  0.64970  0.32570  0.66330  1.0000 -0.1002726245
C   C102      1.0  0.35030  0.82570  0.83670  1.0000 -0.1002726245
C   C103      1.0  0.35030  0.67430  0.33670  1.0000 -0.1002726245
C   C104      1.0  0.64970  0.17430  0.16330  1.0000 -0.1002726245
C   C105      1.0  0.99380  0.15110  0.80440  1.0000 -0.1002726245
C   C106      1.0  0.00620  0.65110  0.69560  1.0000 -0.1002726245
C   C107      1.0  0.00620  0.84890  0.19560  1.0000 -0.1002726245
C   C108      1.0  0.99380  0.34890  0.30440  1.0000 -0.1002726245
C   C109      1.0  0.04290  0.27420  0.81220  1.0000 -0.1697887924
C   C110      1.0  0.95710  0.77420  0.68780  1.0000 -0.1697887924
C   C111      1.0  0.95710  0.72580  0.18780  1.0000 -0.1697887924
C   C112      1.0  0.04290  0.22580  0.31220  1.0000 -0.1697887924
C   C113      1.0  0.72680  0.28780  0.71160  1.0000 -0.152974542
C   C114      1.0  0.27320  0.78780  0.78840  1.0000 -0.152974542
C   C115      1.0  0.27320  0.71220  0.28840  1.0000 -0.152974542
C   C116      1.0  0.72680  0.21220  0.21160  1.0000 -0.152974542
C   C117      1.0  0.69490  0.37300  0.62360  1.0000 -0.0288889168
C   C118      1.0  0.30510  0.87300  0.87640  1.0000 -0.0288889168
C   C119      1.0  0.30510  0.62700  0.37640  1.0000 -0.0288889168
C   C120      1.0  0.69490  0.12700  0.12360  1.0000 -0.0288889168
C   C121      1.0  0.89640  0.34440  0.68370  1.0000 -0.1402102296
C   C122      1.0  0.10360  0.84440  0.81630  1.0000 -0.1402102296
C   C123      1.0  0.10360  0.65560  0.31630  1.0000 -0.1402102296
C   C124      1.0  0.89640  0.15560  0.18370  1.0000 -0.1402102296
C   C125      1.0  0.81820  0.38260  0.63480  1.0000 -0.1002726245
C   C126      1.0  0.18180  0.88260  0.86520  1.0000 -0.1002726245
C   C127      1.0  0.18180  0.61740  0.36520  1.0000 -0.1002726245
C   C128      1.0  0.81820  0.11740  0.13480  1.0000 -0.1002726245
C   C129      1.0  0.12350  0.23320  0.85200  1.0000 -0.0917242129
C   C130      1.0  0.87650  0.73320  0.64800  1.0000 -0.0917242129
C   C131      1.0  0.87650  0.76680  0.14800  1.0000 -0.0917242129
C   C132      1.0  0.12350  0.26680  0.35200  1.0000 -0.0917242129
N   N1        1.0  0.06780  0.49750  0.25890  1.0000 -0.1902525286
N   N2        1.0  0.93220  0.99750  0.24110  1.0000 -0.1902525286
N   N3        1.0  0.93220  0.50250  0.74110  1.0000 -0.1902525286
N   N4        1.0  0.06780  0.00250  0.75890  1.0000 -0.1902525286
N   N5        1.0  0.94390  0.55820  0.18460  1.0000 -0.3031793234
N   N6        1.0  0.05610  0.05820  0.31540  1.0000 -0.3031793234
N   N7        1.0  0.05610  0.44180  0.81540  1.0000 -0.3031793234
N   N8        1.0  0.94390  0.94180  0.68460  1.0000 -0.3031793234
N   N9        1.0  0.53640  0.55310  0.63670  1.0000 -0.2478150518
N   N10       1.0  0.46360  0.05310  0.86330  1.0000 -0.2478150518
N   N11       1.0  0.46360  0.44690  0.36330  1.0000 -0.2478150518
N   N12       1.0  0.53640  0.94690  0.13670  1.0000 -0.2478150518
N   N13       1.0  0.27490  0.56440  0.85340  1.0000 -0.3031793234
N   N14       1.0  0.72510  0.06440  0.64660  1.0000 -0.3031793234
N   N15       1.0  0.72510  0.43560  0.14660  1.0000 -0.3031793234
N   N16       1.0  0.27490  0.93560  0.35340  1.0000 -0.3031793234
N   N17       1.0  0.41020  0.49000  0.89150  1.0000 -0.2396317811
N   N18       1.0  0.58980  0.99000  0.60850  1.0000 -0.2396317811
N   N19       1.0  0.58980  0.51000  0.10850  1.0000 -0.2396317811
N   N20       1.0  0.41020  0.01000  0.39150  1.0000 -0.2396317811
N   N21       1.0  0.74380  0.54650  0.42790  1.0000 -0.2306311761
N   N22       1.0  0.25620  0.04650  0.07210  1.0000 -0.2306311761
N   N23       1.0  0.25620  0.45350  0.57210  1.0000 -0.2306311761
N   N24       1.0  0.74380  0.95350  0.92790  1.0000 -0.2306311761
N   N25       1.0  0.11770  0.50460  0.19330  1.0000 -0.2396317811
N   N26       1.0  0.88230  0.00460  0.30670  1.0000 -0.2396317811
N   N27       1.0  0.88230  0.49540  0.80670  1.0000 -0.2396317811
N   N28       1.0  0.11770  0.99540  0.69330  1.0000 -0.2396317811
N   N29       1.0  0.33333  0.49670  0.94400  1.0000 -0.2478150518
N   N30       1.0  0.66667  0.99670  0.55600  1.0000 -0.2478150518
N   N31       1.0  0.66667  0.50330  0.05600  1.0000 -0.2478150518
N   N32       1.0  0.33333  0.00330  0.44400  1.0000 -0.2478150518
N   N33       1.0  0.96730  0.61420  0.95500  1.0000 -0.1902525286
N   N34       1.0  0.03270  0.11420  0.54500  1.0000 -0.1902525286
N   N35       1.0  0.03270  0.38580  0.04500  1.0000 -0.1902525286
N   N36       1.0  0.96730  0.88580  0.45500  1.0000 -0.1902525286
O   O1        1.0  0.65400  0.45650  0.53980  1.0000 -0.5310165246
O   O2        1.0  0.34600  0.95650  0.96020  1.0000 -0.5310165246
O   O3        1.0  0.34600  0.54350  0.46020  1.0000 -0.5310165246
O   O4        1.0  0.65400  0.04350  0.03980  1.0000 -0.5310165246
O   O5        1.0  0.17700  0.07166  0.87990  1.0000 -0.5595437844
O   O6        1.0  0.82300  0.57166  0.62010  1.0000 -0.5595437844
O   O7        1.0  0.82300  0.92834  0.12010  1.0000 -0.5595437844
O   O8        1.0  0.17700  0.42834  0.37990  1.0000 -0.5595437844
O   O9        1.0  0.50300  0.39610  0.55540  1.0000 -0.5394982208
O   O10       1.0  0.49700  0.89610  0.94460  1.0000 -0.5394982208
O   O11       1.0  0.49700  0.60390  0.44460  1.0000 -0.5394982208
O   O12       1.0  0.50300  0.10390  0.05540  1.0000 -0.5394982208
O   O13       1.0  0.27860  0.15003  0.93630  1.0000 -0.5394982208
O   O14       1.0  0.72140  0.65003  0.56370  1.0000 -0.5394982208
O   O15       1.0  0.72140  0.84997  0.06370  1.0000 -0.5394982208
O   O16       1.0  0.27860  0.34997  0.43630  1.0000 -0.5394982208
