# DDEC6 charges by PACMAN v1.1 (https://github.com/mtap-research/PACMAN-charge/)
data_2015[HoCu][jaj]3[ASR]1
_chemical_formula_sum              "Ho4 Cu4 H36 C64 N8 O40"
_cell_length_a       10.792
_cell_length_b       13.889
_cell_length_c       19.739
_cell_angle_alpha    90
_cell_angle_beta     100.91
_cell_angle_gamma    90

_symmetry_space_group_name_H-M    "P 1"
_symmetry_Int_Tables_number       1

loop_
  _symmetry_equiv_pos_as_xyz
  'x, y, z'

loop_
  _atom_site_type_symbol
  _atom_site_label
  _atom_site_symmetry_multiplicity
  _atom_site_fract_x
  _atom_site_fract_y
  _atom_site_fract_z
  _atom_site_occupancy
  _atom_site_charge
Ho  Ho1       1.0  0.84568  0.43161  0.94285  1.0000 1.9815267286
Ho  Ho2       1.0  0.15432  0.93161  0.55715  1.0000 1.9815267286
Ho  Ho3       1.0  0.15432  0.56839  0.05715  1.0000 1.9815267286
Ho  Ho4       1.0  0.84568  0.06839  0.44285  1.0000 1.9815267286
Cu  Cu1       1.0  0.75762  0.93006  0.78501  1.0000 0.7521001062
Cu  Cu2       1.0  0.24238  0.43006  0.71499  1.0000 0.7521001062
Cu  Cu3       1.0  0.24238  0.06994  0.21499  1.0000 0.7521001062
Cu  Cu4       1.0  0.75762  0.56994  0.28501  1.0000 0.7521001062
H   H1        1.0  0.50000  0.00100  0.72000  1.0000 0.123449575
H   H2        1.0  0.50000  0.50100  0.78000  1.0000 0.123449575
H   H3        1.0  0.50000  0.99900  0.28000  1.0000 0.123449575
H   H4        1.0  0.50000  0.49900  0.22000  1.0000 0.123449575
H   H5        1.0  0.38580  0.14110  0.71270  1.0000 0.1335317826
H   H6        1.0  0.61420  0.64110  0.78730  1.0000 0.1335317826
H   H7        1.0  0.61420  0.85890  0.28730  1.0000 0.1335317826
H   H8        1.0  0.38580  0.35890  0.21270  1.0000 0.1335317826
H   H9        1.0  0.76650  0.11290  0.85990  1.0000 0.123449575
H   H10       1.0  0.23350  0.61290  0.64010  1.0000 0.123449575
H   H11       1.0  0.23350  0.88710  0.14010  1.0000 0.123449575
H   H12       1.0  0.76650  0.38710  0.35990  1.0000 0.123449575
H   H13       1.0  0.97350  0.87020  0.71370  1.0000 0.123449575
H   H14       1.0  0.02650  0.37020  0.78630  1.0000 0.123449575
H   H15       1.0  0.02650  0.12980  0.28630  1.0000 0.123449575
H   H16       1.0  0.97350  0.62980  0.21370  1.0000 0.123449575
H   H17       1.0  0.10420  0.73740  0.71280  1.0000 0.1405611446
H   H18       1.0  0.89580  0.23740  0.78720  1.0000 0.1405611446
H   H19       1.0  0.89580  0.26260  0.28720  1.0000 0.1405611446
H   H20       1.0  0.10420  0.76260  0.21280  1.0000 0.1405611446
H   H21       1.0  0.78620  0.73760  0.83680  1.0000 0.1117406896
H   H22       1.0  0.21380  0.23760  0.66320  1.0000 0.1117406896
H   H23       1.0  0.21380  0.26240  0.16320  1.0000 0.1117406896
H   H24       1.0  0.78620  0.76240  0.33680  1.0000 0.1117406896
H   H25       1.0  0.27110  0.32280  0.01070  1.0000 0.1603323779
H   H26       1.0  0.72890  0.82280  0.48930  1.0000 0.1603323779
H   H27       1.0  0.72890  0.67720  0.98930  1.0000 0.1603323779
H   H28       1.0  0.27110  0.17720  0.51070  1.0000 0.1603323779
H   H29       1.0  0.21790  0.24720  0.95360  1.0000 0.167481724
H   H30       1.0  0.78210  0.74720  0.54640  1.0000 0.167481724
H   H31       1.0  0.78210  0.75280  0.04640  1.0000 0.167481724
H   H32       1.0  0.21790  0.25280  0.45360  1.0000 0.167481724
H   H33       1.0  0.26710  0.34710  0.93270  1.0000 0.1800878903
H   H34       1.0  0.73290  0.84710  0.56730  1.0000 0.1800878903
H   H35       1.0  0.73290  0.65290  0.06730  1.0000 0.1800878903
H   H36       1.0  0.26710  0.15290  0.43270  1.0000 0.1800878903
C   C1        1.0  0.53280  0.05320  0.74710  1.0000 0.104537783
C   C2        1.0  0.46720  0.55320  0.75290  1.0000 0.104537783
C   C3        1.0  0.46720  0.94680  0.25290  1.0000 0.104537783
C   C4        1.0  0.53280  0.44680  0.24710  1.0000 0.104537783
C   C5        1.0  0.46360  0.13770  0.74240  1.0000 -0.1407338569
C   C6        1.0  0.53640  0.63770  0.75760  1.0000 -0.1407338569
C   C7        1.0  0.53640  0.86230  0.25760  1.0000 -0.1407338569
C   C8        1.0  0.46360  0.36230  0.24240  1.0000 -0.1407338569
C   C9        1.0  0.50960  0.21740  0.78190  1.0000 0.0109749603
C   C10       1.0  0.49040  0.71740  0.71810  1.0000 0.0109749603
C   C11       1.0  0.49040  0.78260  0.21810  1.0000 0.0109749603
C   C12       1.0  0.50960  0.28260  0.28190  1.0000 0.0109749603
C   C13       1.0  0.62770  0.20750  0.82590  1.0000 -0.0504720287
C   C14       1.0  0.37230  0.70750  0.67410  1.0000 -0.0504720287
C   C15       1.0  0.37230  0.79250  0.17410  1.0000 -0.0504720287
C   C16       1.0  0.62770  0.29250  0.32590  1.0000 -0.0504720287
C   C17       1.0  0.69040  0.11970  0.82910  1.0000 0.0544957647
C   C18       1.0  0.30960  0.61970  0.67090  1.0000 0.0544957647
C   C19       1.0  0.30960  0.88030  0.17090  1.0000 0.0544957647
C   C20       1.0  0.69040  0.38030  0.32910  1.0000 0.0544957647
C   C21       1.0  0.43250  0.30660  0.78170  1.0000 0.5475832632
C   C22       1.0  0.56750  0.80660  0.71830  1.0000 0.5475832632
C   C23       1.0  0.56750  0.69340  0.21830  1.0000 0.5475832632
C   C24       1.0  0.43250  0.19340  0.28170  1.0000 0.5475832632
C   C25       1.0  0.69350  0.28760  0.86910  1.0000 0.5887617728
C   C26       1.0  0.30650  0.78760  0.63090  1.0000 0.5887617728
C   C27       1.0  0.30650  0.71240  0.13090  1.0000 0.5887617728
C   C28       1.0  0.69350  0.21240  0.36910  1.0000 0.5887617728
C   C29       1.0  0.96080  0.81590  0.73900  1.0000 0.1117406896
C   C30       1.0  0.03920  0.31590  0.76100  1.0000 0.1117406896
C   C31       1.0  0.03920  0.18410  0.26100  1.0000 0.1117406896
C   C32       1.0  0.96080  0.68410  0.23900  1.0000 0.1117406896
C   C33       1.0  0.03880  0.73530  0.73740  1.0000 -0.1459949204
C   C34       1.0  0.96120  0.23530  0.76260  1.0000 -0.1459949204
C   C35       1.0  0.96120  0.26470  0.26260  1.0000 -0.1459949204
C   C36       1.0  0.03880  0.76470  0.23740  1.0000 -0.1459949204
C   C37       1.0  0.01720  0.65220  0.77300  1.0000 0.0428963824
C   C38       1.0  0.98280  0.15220  0.72700  1.0000 0.0428963824
C   C39       1.0  0.98280  0.34780  0.22700  1.0000 0.0428963824
C   C40       1.0  0.01720  0.84780  0.27300  1.0000 0.0428963824
C   C41       1.0  0.91640  0.65170  0.80770  1.0000 -0.0710030889
C   C42       1.0  0.08360  0.15170  0.69230  1.0000 -0.0710030889
C   C43       1.0  0.08360  0.34830  0.19230  1.0000 -0.0710030889
C   C44       1.0  0.91640  0.84830  0.30770  1.0000 -0.0710030889
C   C45       1.0  0.84860  0.73680  0.81000  1.0000 0.0682041811
C   C46       1.0  0.15140  0.23680  0.69000  1.0000 0.0682041811
C   C47       1.0  0.15140  0.26320  0.19000  1.0000 0.0682041811
C   C48       1.0  0.84860  0.76320  0.31000  1.0000 0.0682041811
C   C49       1.0  0.10990  0.56910  0.77410  1.0000 0.5627478173
C   C50       1.0  0.89010  0.06910  0.72590  1.0000 0.5627478173
C   C51       1.0  0.89010  0.43090  0.22590  1.0000 0.5627478173
C   C52       1.0  0.10990  0.93090  0.27410  1.0000 0.5627478173
C   C53       1.0  0.88070  0.56750  0.84790  1.0000 0.5715898832
C   C54       1.0  0.11930  0.06750  0.65210  1.0000 0.5715898832
C   C55       1.0  0.11930  0.43250  0.15210  1.0000 0.5715898832
C   C56       1.0  0.88070  0.93250  0.34790  1.0000 0.5715898832
C   C57       1.0  0.09680  0.35550  0.95960  1.0000 0.7238928041
C   C58       1.0  0.90320  0.85550  0.54040  1.0000 0.7238928041
C   C59       1.0  0.90320  0.64450  0.04040  1.0000 0.7238928041
C   C60       1.0  0.09680  0.14450  0.45960  1.0000 0.7238928041
C   C61       1.0  0.22440  0.31460  0.96460  1.0000 -0.5872324744
C   C62       1.0  0.77560  0.81460  0.53540  1.0000 -0.5872324744
C   C63       1.0  0.77560  0.68540  0.03540  1.0000 -0.5872324744
C   C64       1.0  0.22440  0.18540  0.46460  1.0000 -0.5872324744
N   N1        1.0  0.64510  0.04380  0.78920  1.0000 -0.220212687
N   N2        1.0  0.35490  0.54380  0.71080  1.0000 -0.220212687
N   N3        1.0  0.35490  0.95620  0.21080  1.0000 -0.220212687
N   N4        1.0  0.64510  0.45620  0.28920  1.0000 -0.220212687
N   N5        1.0  0.86780  0.81700  0.77620  1.0000 -0.228850607
N   N6        1.0  0.13220  0.31700  0.72380  1.0000 -0.228850607
N   N7        1.0  0.13220  0.18300  0.22380  1.0000 -0.228850607
N   N8        1.0  0.86780  0.68300  0.27620  1.0000 -0.228850607
O   O1        1.0  0.73510  0.27440  0.93160  1.0000 -0.6081245878
O   O2        1.0  0.26490  0.77440  0.56840  1.0000 -0.6081245878
O   O3        1.0  0.26490  0.72560  0.06840  1.0000 -0.6081245878
O   O4        1.0  0.73510  0.22560  0.43160  1.0000 -0.6081245878
O   O5        1.0  0.71450  0.36630  0.83890  1.0000 -0.6435476878
O   O6        1.0  0.28550  0.86630  0.66110  1.0000 -0.6435476878
O   O7        1.0  0.28550  0.63370  0.16110  1.0000 -0.6435476878
O   O8        1.0  0.71450  0.13370  0.33890  1.0000 -0.6435476878
O   O9        1.0  0.38690  0.34050  0.72080  1.0000 -0.560100604
O   O10       1.0  0.61310  0.84050  0.77920  1.0000 -0.560100604
O   O11       1.0  0.61310  0.65950  0.27920  1.0000 -0.560100604
O   O12       1.0  0.38690  0.15950  0.22080  1.0000 -0.560100604
O   O13       1.0  0.41570  0.34000  0.83630  1.0000 -0.4997714499
O   O14       1.0  0.58430  0.84000  0.66370  1.0000 -0.4997714499
O   O15       1.0  0.58430  0.66000  0.16370  1.0000 -0.4997714499
O   O16       1.0  0.41570  0.16000  0.33630  1.0000 -0.4997714499
O   O17       1.0  0.19230  0.55910  0.82540  1.0000 -0.5157373288
O   O18       1.0  0.80770  0.05910  0.67460  1.0000 -0.5157373288
O   O19       1.0  0.80770  0.44090  0.17460  1.0000 -0.5157373288
O   O20       1.0  0.19230  0.94090  0.32540  1.0000 -0.5157373288
O   O21       1.0  0.09920  0.52020  0.71920  1.0000 -0.5508970657
O   O22       1.0  0.90080  0.02020  0.78080  1.0000 -0.5508970657
O   O23       1.0  0.90080  0.47980  0.28080  1.0000 -0.5508970657
O   O24       1.0  0.09920  0.97980  0.21920  1.0000 -0.5508970657
O   O25       1.0  0.94220  0.49090  0.84900  1.0000 -0.5695335159
O   O26       1.0  0.05780  0.99090  0.65100  1.0000 -0.5695335159
O   O27       1.0  0.05780  0.50910  0.15100  1.0000 -0.5695335159
O   O28       1.0  0.94220  0.00910  0.34900  1.0000 -0.5695335159
O   O29       1.0  0.78790  0.57640  0.87700  1.0000 -0.6081245878
O   O30       1.0  0.21210  0.07640  0.62300  1.0000 -0.6081245878
O   O31       1.0  0.21210  0.42360  0.12300  1.0000 -0.6081245878
O   O32       1.0  0.78790  0.92360  0.37700  1.0000 -0.6081245878
O   O33       1.0  0.08010  0.43910  0.98210  1.0000 -0.75343873
O   O34       1.0  0.91990  0.93910  0.51790  1.0000 -0.75343873
O   O35       1.0  0.91990  0.56090  0.01790  1.0000 -0.75343873
O   O36       1.0  0.08010  0.06090  0.48210  1.0000 -0.75343873
O   O37       1.0  0.99930  0.30880  0.93020  1.0000 -0.63136125
O   O38       1.0  0.00070  0.80880  0.56980  1.0000 -0.63136125
O   O39       1.0  0.00070  0.69120  0.06980  1.0000 -0.63136125
O   O40       1.0  0.99930  0.19120  0.43020  1.0000 -0.63136125
