# DDEC6 charges by PACMAN v1.1 (https://github.com/mtap-research/PACMAN-charge/)
data_2015[Mg][dia]3[ASR]1
_chemical_formula_sum              "Mg4 P2 H2 C8 O24"
_cell_length_a       9.3254
_cell_length_b       9.428
_cell_length_c       14.306
_cell_angle_alpha    96.449
_cell_angle_beta     103.879
_cell_angle_gamma    104.35

_symmetry_space_group_name_H-M    "P 1"
_symmetry_Int_Tables_number       1

loop_
  _symmetry_equiv_pos_as_xyz
  'x, y, z'

loop_
  _atom_site_type_symbol
  _atom_site_label
  _atom_site_symmetry_multiplicity
  _atom_site_fract_x
  _atom_site_fract_y
  _atom_site_fract_z
  _atom_site_occupancy
  _atom_site_charge
Mg  Mg1       1.0  0.20695  0.48237  0.89214  1.0000 1.3682213798
Mg  Mg2       1.0  0.79305  0.51763  0.10786  1.0000 1.3682213798
Mg  Mg3       1.0  0.16084  0.29821  0.53675  1.0000 1.352559723
Mg  Mg4       1.0  0.83916  0.70179  0.46325  1.0000 1.352559723
P   P1        1.0  0.33949  0.59343  0.71123  1.0000 1.3040010706
P   P2        1.0  0.66051  0.40657  0.28877  1.0000 1.3040010706
H   H1        1.0  0.33180  0.73040  0.61270  1.0000 0.3959345892
H   H2        1.0  0.66820  0.26960  0.38730  1.0000 0.3959345892
C   C1        1.0  0.98180  0.56550  0.97538  1.0000 0.5597588495
C   C2        1.0  0.01820  0.43450  0.02462  1.0000 0.5597588495
C   C3        1.0  0.50640  0.57750  0.02772  1.0000 0.5445900336
C   C4        1.0  0.49360  0.42250  0.97228  1.0000 0.5445900336
C   C5        1.0  0.96220  0.00460  0.44620  1.0000 0.5210115686
C   C6        1.0  0.03780  0.99540  0.55380  1.0000 0.5210115686
C   C7        1.0  0.04110  0.52240  0.46020  1.0000 0.5294848159
C   C8        1.0  0.95890  0.47760  0.53980  1.0000 0.5294848159
O   O1        1.0  0.25911  0.59703  0.79062  1.0000 -0.7790157422
O   O2        1.0  0.74089  0.40297  0.20938  1.0000 -0.7790157422
O   O3        1.0  0.31249  0.44102  0.65459  1.0000 -0.8094173595
O   O4        1.0  0.68751  0.55898  0.34541  1.0000 -0.8094173595
O   O5        1.0  0.51454  0.66767  0.75113  1.0000 -0.5474914238
O   O6        1.0  0.48546  0.33233  0.24887  1.0000 -0.5474914238
O   O7        1.0  0.27001  0.69471  0.64198  1.0000 -0.4625469372
O   O8        1.0  0.72999  0.30529  0.35802  1.0000 -0.4702305521
O   O9        1.0  0.05086  0.60278  0.91350  1.0000 -0.4921747372
O   O10       1.0  0.94914  0.39722  0.08650  1.0000 -0.4921747372
O   O11       1.0  0.88683  0.62010  0.00228  1.0000 -0.5179884856
O   O12       1.0  0.11317  0.37990  0.99772  1.0000 -0.5124396707
O   O13       1.0  0.39429  0.62770  0.00460  1.0000 -0.4702305521
O   O14       1.0  0.60571  0.37230  0.99540  1.0000 -0.4702305521
O   O15       1.0  0.63122  0.63904  0.09309  1.0000 -0.4828930125
O   O16       1.0  0.36878  0.36096  0.90691  1.0000 -0.4921747372
O   O17       1.0  0.99605  0.12868  0.42257  1.0000 -0.4921747372
O   O18       1.0  0.00395  0.87132  0.57743  1.0000 -0.4973739609
O   O19       1.0  0.87423  0.88553  0.39272  1.0000 -0.5124396707
O   O20       1.0  0.12577  0.11447  0.60728  1.0000 -0.5124396707
O   O21       1.0  0.12749  0.44567  0.44259  1.0000 -0.5179884856
O   O22       1.0  0.87251  0.55433  0.55741  1.0000 -0.5179884856
O   O23       1.0  0.01410  0.62725  0.42108  1.0000 -0.4828930125
O   O24       1.0  0.98590  0.37275  0.57892  1.0000 -0.4828930125
