# DDEC6 charges by PACMAN v1.1 (https://github.com/mtap-research/PACMAN-charge/)
data_2015[Tb][nan]3[ASR]9
_chemical_formula_sum              "Tb4 H12 C32 N4 O28"
_cell_length_a       7.6957
_cell_length_b       10.2182
_cell_length_c       15.9408
_cell_angle_alpha    86.945
_cell_angle_beta     86.035
_cell_angle_gamma    76.831

_symmetry_space_group_name_H-M    "P 1"
_symmetry_Int_Tables_number       1

loop_
  _symmetry_equiv_pos_as_xyz
  'x, y, z'

loop_
  _atom_site_type_symbol
  _atom_site_label
  _atom_site_symmetry_multiplicity
  _atom_site_fract_x
  _atom_site_fract_y
  _atom_site_fract_z
  _atom_site_occupancy
  _atom_site_charge
Tb  Tb1       1.0  0.35401  0.33674  0.06341  1.0000 1.994236957
Tb  Tb2       1.0  0.64599  0.66326  0.93659  1.0000 1.994236957
Tb  Tb3       1.0  0.61275  0.87052  0.32443  1.0000 1.9623875727
Tb  Tb4       1.0  0.38725  0.12948  0.67557  1.0000 1.9623875727
H   H1        1.0  0.16200  0.52570  0.70580  1.0000 0.1506707517
H   H2        1.0  0.83800  0.47430  0.29420  1.0000 0.1506707517
H   H3        1.0  0.90870  0.64420  0.63970  1.0000 0.1506707517
H   H4        1.0  0.09130  0.35580  0.36030  1.0000 0.1506707517
H   H5        1.0  0.66620  0.54430  0.63110  1.0000 0.1506707517
H   H6        1.0  0.33380  0.45570  0.36890  1.0000 0.1506707517
H   H7        1.0  0.09590  0.88030  0.80940  1.0000 0.1506707517
H   H8        1.0  0.90410  0.11970  0.19060  1.0000 0.1506707517
H   H9        1.0  0.92370  0.88560  0.93630  1.0000 0.1309877743
H   H10       1.0  0.07630  0.11440  0.06370  1.0000 0.1309877743
H   H11       1.0  0.75270  0.09070  0.98180  1.0000 0.140202034
H   H12       1.0  0.24730  0.90930  0.01820  1.0000 0.140202034
C   C1        1.0  0.06010  0.48800  0.70520  1.0000 -0.0095793244
C   C2        1.0  0.93990  0.51200  0.29480  1.0000 -0.0095793244
C   C3        1.0  0.91120  0.55740  0.66480  1.0000 -0.0902190993
C   C4        1.0  0.08880  0.44260  0.33520  1.0000 -0.0902190993
C   C5        1.0  0.76630  0.49970  0.66140  1.0000 -0.0584811496
C   C6        1.0  0.23370  0.50030  0.33860  1.0000 -0.0584811496
C   C7        1.0  0.76740  0.37650  0.70220  1.0000 -0.0542618933
C   C8        1.0  0.23260  0.62350  0.29780  1.0000 -0.0542618933
C   C9        1.0  0.91450  0.31420  0.74680  1.0000 0.0773797815
C   C10       1.0  0.08550  0.68580  0.25320  1.0000 0.0773797815
C   C11       1.0  0.62100  0.30130  0.69430  1.0000 0.5949168911
C   C12       1.0  0.37900  0.69870  0.30570  1.0000 0.5949168911
C   C13       1.0  0.02320  0.96280  0.82810  1.0000 0.004358362
C   C14       1.0  0.97680  0.03720  0.17190  1.0000 0.004358362
C   C15       1.0  0.92310  0.96600  0.90330  1.0000 -0.1203967522
C   C16       1.0  0.07690  0.03400  0.09670  1.0000 -0.1203967522
C   C17       1.0  0.82210  0.08750  0.93000  1.0000 -0.0584811496
C   C18       1.0  0.17790  0.91250  0.07000  1.0000 -0.0584811496
C   C19       1.0  0.82030  0.20420  0.88260  1.0000 -0.0584811496
C   C20       1.0  0.17970  0.79580  0.11740  1.0000 -0.0584811496
C   C21       1.0  0.91880  0.19770  0.80590  1.0000 0.0980660503
C   C22       1.0  0.08120  0.80230  0.19410  1.0000 0.0980660503
C   C23       1.0  0.71210  0.34000  0.91210  1.0000 0.6626923194
C   C24       1.0  0.28790  0.66000  0.08790  1.0000 0.6626923194
C   C25       1.0  0.95000  0.46690  0.03620  1.0000 0.4979516973
C   C26       1.0  0.05000  0.53310  0.96380  1.0000 0.4979516973
C   C27       1.0  0.42730  0.95880  0.50650  1.0000 0.5143734922
C   C28       1.0  0.57270  0.04120  0.49350  1.0000 0.5143734922
C   C29       1.0  0.51050  0.06080  0.15840  1.0000 0.4979516973
C   C30       1.0  0.48950  0.93920  0.84160  1.0000 0.4979516973
C   C31       1.0  0.38830  0.14270  0.22650  1.0000 0.4887698402
C   C32       1.0  0.61170  0.85730  0.77350  1.0000 0.4887698402
N   N1        1.0  0.06150  0.36770  0.74350  1.0000 0.282501321
N   N2        1.0  0.93850  0.63230  0.25650  1.0000 0.282501321
N   N3        1.0  0.01760  0.07730  0.78130  1.0000 0.3038317968
N   N4        1.0  0.98240  0.92270  0.21870  1.0000 0.3038317968
O   O1        1.0  0.21020  0.29600  0.77690  1.0000 -0.5614409337
O   O2        1.0  0.78980  0.70400  0.22310  1.0000 -0.5614409337
O   O3        1.0  0.10490  0.07100  0.70580  1.0000 -0.5715070407
O   O4        1.0  0.89510  0.92900  0.29420  1.0000 -0.5715070407
O   O5        1.0  0.48940  0.35480  0.65150  1.0000 -0.6166460702
O   O6        1.0  0.51060  0.64520  0.34850  1.0000 -0.6166460702
O   O7        1.0  0.63860  0.18600  0.72860  1.0000 -0.598000446
O   O8        1.0  0.36140  0.81400  0.27140  1.0000 -0.598000446
O   O9        1.0  0.75420  0.44400  0.88250  1.0000 -0.6095308453
O   O10       1.0  0.24580  0.55600  0.11750  1.0000 -0.6095308453
O   O11       1.0  0.58850  0.33660  0.96860  1.0000 -0.7051260958
O   O12       1.0  0.41150  0.66340  0.03140  1.0000 -0.7046771536
O   O13       1.0  0.78500  0.51620  0.04740  1.0000 -0.598000446
O   O14       1.0  0.21500  0.48380  0.95260  1.0000 -0.598000446
O   O15       1.0  0.03910  0.37120  0.07820  1.0000 -0.6095308453
O   O16       1.0  0.96090  0.62880  0.92180  1.0000 -0.6095308453
O   O17       1.0  0.33880  0.96940  0.57680  1.0000 -0.598000446
O   O18       1.0  0.66120  0.03060  0.42320  1.0000 -0.598000446
O   O19       1.0  0.40650  0.89050  0.44680  1.0000 -0.5715070407
O   O20       1.0  0.59350  0.10950  0.55320  1.0000 -0.5715070407
O   O21       1.0  0.39640  0.09050  0.29990  1.0000 -0.5614409337
O   O22       1.0  0.60360  0.90950  0.70010  1.0000 -0.5614409337
O   O23       1.0  0.61360  0.95440  0.18160  1.0000 -0.5614409337
O   O24       1.0  0.38640  0.04560  0.81840  1.0000 -0.5614409337
O   O25       1.0  0.29080  0.25180  0.20250  1.0000 -0.6095308453
O   O26       1.0  0.70920  0.74820  0.79750  1.0000 -0.6095308453
O   O27       1.0  0.49910  0.10700  0.08320  1.0000 -0.6319116245
O   O28       1.0  0.50090  0.89300  0.91680  1.0000 -0.6319116245
