# DDEC6 charges by PACMAN v1.1 (https://github.com/mtap-research/PACMAN-charge/)
data_2015[Cu][nan]3[ASR]12
_chemical_formula_sum              "Cu3 H4 C20 O16"
_cell_length_a       7.9985
_cell_length_b       9.7296
_cell_length_c       10.8506
_cell_angle_alpha    84.315
_cell_angle_beta     78.168
_cell_angle_gamma    75.064

_symmetry_space_group_name_H-M    "P 1"
_symmetry_Int_Tables_number       1

loop_
  _symmetry_equiv_pos_as_xyz
  'x, y, z'

loop_
  _atom_site_type_symbol
  _atom_site_label
  _atom_site_symmetry_multiplicity
  _atom_site_fract_x
  _atom_site_fract_y
  _atom_site_fract_z
  _atom_site_occupancy
  _atom_site_charge
Cu  Cu1       1.0  0.41470  0.68700  0.82400  1.0000 0.9121973182
Cu  Cu2       1.0  0.16130  0.54610  0.87490  1.0000 0.9121973182
Cu  Cu3       1.0  0.80400  0.12820  0.34540  1.0000 0.8224214877
H   H1        1.0  0.42800  0.42810  0.21840  1.0000 0.1441311578
H   H2        1.0  0.10660  0.78630  0.48400  1.0000 0.1485414843
H   H3        1.0  0.06770  0.09560  0.89370  1.0000 0.1485414843
H   H4        1.0  0.51890  0.14420  0.79210  1.0000 0.1441311578
C   C1        1.0  0.41110  0.50320  0.39330  1.0000 -0.0260207706
C   C2        1.0  0.37470  0.50900  0.26750  1.0000 -0.052639689
C   C3        1.0  0.26710  0.62450  0.21360  1.0000 -0.0610116624
C   C4        1.0  0.16280  0.73020  0.30440  1.0000 -0.0013599056
C   C5        1.0  0.18170  0.71840  0.42710  1.0000 -0.1041460593
C   C6        1.0  0.30780  0.60970  0.47050  1.0000 0.0148451816
C   C7        1.0  0.31700  0.60930  0.61390  1.0000 0.5933485891
C   C8        1.0  0.54500  0.37940  0.43720  1.0000 0.552990453
C   C9        1.0  0.26000  0.62760  0.08510  1.0000 0.552990453
C   C10       1.0  0.04170  0.86010  0.26000  1.0000 0.5570985045
C   C11       1.0  0.83580  0.23830  0.88980  1.0000 0.0013023162
C   C12       1.0  0.95170  0.10590  0.87970  1.0000 -0.0673239638
C   C13       1.0  0.90480  0.98620  0.84960  1.0000 -0.0013599056
C   C14       1.0  0.74790  0.99880  0.82030  1.0000 -0.0064405903
C   C15       1.0  0.62700  0.13530  0.81930  1.0000 -0.052639689
C   C16       1.0  0.66160  0.25250  0.85590  1.0000 -0.0610116624
C   C17       1.0  0.68960  0.88070  0.76630  1.0000 0.5709480609
C   C18       1.0  0.04280  0.83920  0.84990  1.0000 0.5933485891
C   C19       1.0  0.53660  0.38800  0.85350  1.0000 0.578402039
C   C20       1.0  0.88540  0.35610  0.93800  1.0000 0.552990453
O   O1        1.0  0.42170  0.67100  0.64360  1.0000 -0.4609106615
O   O2        1.0  0.20450  0.55150  0.69010  1.0000 -0.4951870178
O   O3        1.0  0.55550  0.36080  0.54960  1.0000 -0.4145643745
O   O4        1.0  0.64560  0.30730  0.34600  1.0000 -0.4903456007
O   O5        1.0  0.15140  0.56400  0.05590  1.0000 -0.480749685
O   O6        1.0  0.37270  0.67500  0.00930  1.0000 -0.4609106615
O   O7        1.0  0.97030  0.95160  0.34230  1.0000 -0.480749685
O   O8        1.0  0.02490  0.88030  0.14650  1.0000 -0.4374333655
O   O9        1.0  0.75640  0.85920  0.65260  1.0000 -0.4489452873
O   O10       1.0  0.57260  0.82980  0.83310  1.0000 -0.4489452873
O   O11       1.0  0.99030  0.73090  0.86820  1.0000 -0.4170197879
O   O12       1.0  0.20640  0.84970  0.82570  1.0000 -0.5124080811
O   O13       1.0  0.37950  0.38800  0.87580  1.0000 -0.4710133408
O   O14       1.0  0.59260  0.50140  0.82180  1.0000 -0.4609106615
O   O15       1.0  0.00750  0.40290  0.86850  1.0000 -0.4489452873
O   O16       1.0  0.81070  0.39430  0.04390  1.0000 -0.4374333655
