# DDEC6 charges by PACMAN v1.1 (https://github.com/mtap-research/PACMAN-charge/)
data_2015[Tb][sra]3[ASR]2
_chemical_formula_sum              "Tb4 H64 C96 N4 O32"
_cell_length_a       10.932
_cell_length_b       16.713
_cell_length_c       18.893
_cell_angle_alpha    90
_cell_angle_beta     90
_cell_angle_gamma    90

_symmetry_space_group_name_H-M    "P 1"
_symmetry_Int_Tables_number       1

loop_
  _symmetry_equiv_pos_as_xyz
  'x, y, z'

loop_
  _atom_site_type_symbol
  _atom_site_label
  _atom_site_symmetry_multiplicity
  _atom_site_fract_x
  _atom_site_fract_y
  _atom_site_fract_z
  _atom_site_occupancy
  _atom_site_charge
Tb  Tb1       1.0  0.29423  0.25000  0.70461  1.0000 2.0513392202
Tb  Tb2       1.0  0.20577  0.75000  0.20461  1.0000 2.0513392202
Tb  Tb3       1.0  0.70577  0.75000  0.29539  1.0000 2.0513392202
Tb  Tb4       1.0  0.79423  0.25000  0.79539  1.0000 2.0513392202
H   H1        1.0  0.36400  0.25000  0.20690  1.0000 0.3682317548
H   H2        1.0  0.13600  0.75000  0.70690  1.0000 0.3682317548
H   H3        1.0  0.63600  0.75000  0.79310  1.0000 0.3682317548
H   H4        1.0  0.86400  0.25000  0.29310  1.0000 0.3682317548
H   H5        1.0  0.96440  0.25000  0.96960  1.0000 0.1278266041
H   H6        1.0  0.53560  0.75000  0.46960  1.0000 0.1278266041
H   H7        1.0  0.03560  0.75000  0.03040  1.0000 0.1278266041
H   H8        1.0  0.46440  0.25000  0.53040  1.0000 0.1278266041
H   H9        1.0  0.02570  0.25000  0.08650  1.0000 0.1218532589
H   H10       1.0  0.47430  0.75000  0.58650  1.0000 0.1218532589
H   H11       1.0  0.97430  0.75000  0.91350  1.0000 0.1218532589
H   H12       1.0  0.52570  0.25000  0.41350  1.0000 0.1218532589
H   H13       1.0  0.31650  0.25000  0.90920  1.0000 0.1278266041
H   H14       1.0  0.18350  0.75000  0.40920  1.0000 0.1278266041
H   H15       1.0  0.68350  0.75000  0.09080  1.0000 0.1278266041
H   H16       1.0  0.81650  0.25000  0.59080  1.0000 0.1278266041
H   H17       1.0  0.48050  0.17210  0.95820  1.0000 0.1073888722
H   H18       1.0  0.01950  0.82790  0.45820  1.0000 0.1073888722
H   H19       1.0  0.51950  0.67210  0.04180  1.0000 0.1073888722
H   H20       1.0  0.98050  0.32790  0.54180  1.0000 0.1073888722
H   H21       1.0  0.51950  0.82790  0.04180  1.0000 0.1073888722
H   H22       1.0  0.98050  0.17210  0.54180  1.0000 0.1073888722
H   H23       1.0  0.48050  0.32790  0.95820  1.0000 0.1073888722
H   H24       1.0  0.01950  0.67210  0.45820  1.0000 0.1073888722
H   H25       1.0  0.57470  0.17910  0.02050  1.0000 0.1218532589
H   H26       1.0  0.92530  0.82090  0.52050  1.0000 0.1218532589
H   H27       1.0  0.42530  0.67910  0.97950  1.0000 0.1218532589
H   H28       1.0  0.07470  0.32090  0.47950  1.0000 0.1218532589
H   H29       1.0  0.42530  0.82090  0.97950  1.0000 0.1218532589
H   H30       1.0  0.07470  0.17910  0.47950  1.0000 0.1218532589
H   H31       1.0  0.57470  0.32090  0.02050  1.0000 0.1218532589
H   H32       1.0  0.92530  0.67910  0.52050  1.0000 0.1218532589
H   H33       1.0  0.52860  0.10660  0.13520  1.0000 0.1218532589
H   H34       1.0  0.97140  0.89340  0.63520  1.0000 0.1218532589
H   H35       1.0  0.47140  0.60660  0.86480  1.0000 0.1218532589
H   H36       1.0  0.02860  0.39340  0.36480  1.0000 0.1218532589
H   H37       1.0  0.47140  0.89340  0.86480  1.0000 0.1218532589
H   H38       1.0  0.02860  0.10660  0.36480  1.0000 0.1218532589
H   H39       1.0  0.52860  0.39340  0.13520  1.0000 0.1218532589
H   H40       1.0  0.97140  0.60660  0.63520  1.0000 0.1218532589
H   H41       1.0  0.46150  0.98960  0.18100  1.0000 0.1278266041
H   H42       1.0  0.03850  0.01040  0.68100  1.0000 0.1278266041
H   H43       1.0  0.53850  0.48960  0.81900  1.0000 0.1278266041
H   H44       1.0  0.96150  0.51040  0.31900  1.0000 0.1278266041
H   H45       1.0  0.53850  0.01040  0.81900  1.0000 0.1278266041
H   H46       1.0  0.96150  0.98960  0.31900  1.0000 0.1278266041
H   H47       1.0  0.46150  0.51040  0.18100  1.0000 0.1278266041
H   H48       1.0  0.03850  0.48960  0.68100  1.0000 0.1278266041
H   H49       1.0  0.25020  0.95320  0.01260  1.0000 0.1218532589
H   H50       1.0  0.24980  0.04680  0.51260  1.0000 0.1218532589
H   H51       1.0  0.74980  0.45320  0.98740  1.0000 0.1218532589
H   H52       1.0  0.75020  0.54680  0.48740  1.0000 0.1218532589
H   H53       1.0  0.74980  0.04680  0.98740  1.0000 0.1218532589
H   H54       1.0  0.75020  0.95320  0.48740  1.0000 0.1218532589
H   H55       1.0  0.25020  0.54680  0.01260  1.0000 0.1218532589
H   H56       1.0  0.24980  0.45320  0.51260  1.0000 0.1218532589
H   H57       1.0  0.32180  0.07060  0.96260  1.0000 0.1218532589
H   H58       1.0  0.17820  0.92940  0.46260  1.0000 0.1218532589
H   H59       1.0  0.67820  0.57060  0.03740  1.0000 0.1218532589
H   H60       1.0  0.82180  0.42940  0.53740  1.0000 0.1218532589
H   H61       1.0  0.67820  0.92940  0.03740  1.0000 0.1218532589
H   H62       1.0  0.82180  0.07060  0.53740  1.0000 0.1218532589
H   H63       1.0  0.32180  0.42940  0.96260  1.0000 0.1218532589
H   H64       1.0  0.17820  0.57060  0.46260  1.0000 0.1218532589
C   C1        1.0  0.10040  0.25000  0.85300  1.0000 0.6877971701
C   C2        1.0  0.39960  0.75000  0.35300  1.0000 0.6877971701
C   C3        1.0  0.89960  0.75000  0.14700  1.0000 0.6877971701
C   C4        1.0  0.60040  0.25000  0.64700  1.0000 0.6877971701
C   C5        1.0  0.13680  0.25000  0.92800  1.0000 -0.0329398033
C   C6        1.0  0.36320  0.75000  0.42800  1.0000 -0.0329398033
C   C7        1.0  0.86320  0.75000  0.07200  1.0000 -0.0329398033
C   C8        1.0  0.63680  0.25000  0.57200  1.0000 -0.0329398033
C   C9        1.0  0.04710  0.25000  0.98110  1.0000 -0.0883361858
C   C10       1.0  0.45290  0.75000  0.48110  1.0000 -0.0883361858
C   C11       1.0  0.95290  0.75000  0.01890  1.0000 -0.0883361858
C   C12       1.0  0.54710  0.25000  0.51890  1.0000 -0.0883361858
C   C13       1.0  0.08480  0.25000  0.05110  1.0000 -0.0967793129
C   C14       1.0  0.41520  0.75000  0.55110  1.0000 -0.0967793129
C   C15       1.0  0.91520  0.75000  0.94890  1.0000 -0.0967793129
C   C16       1.0  0.58480  0.25000  0.44890  1.0000 -0.0967793129
C   C17       1.0  0.20550  0.25000  0.07030  1.0000 -0.1055829562
C   C18       1.0  0.29450  0.75000  0.57030  1.0000 -0.1055829562
C   C19       1.0  0.79450  0.75000  0.92970  1.0000 -0.1055829562
C   C20       1.0  0.70550  0.25000  0.42970  1.0000 -0.1055829562
C   C21       1.0  0.29330  0.25000  0.01840  1.0000 0.1456047446
C   C22       1.0  0.20670  0.75000  0.51840  1.0000 0.1456047446
C   C23       1.0  0.70670  0.75000  0.98160  1.0000 0.1456047446
C   C24       1.0  0.79330  0.25000  0.48160  1.0000 0.1456047446
C   C25       1.0  0.25760  0.25000  0.94470  1.0000 -0.196745608
C   C26       1.0  0.24240  0.75000  0.44470  1.0000 -0.196745608
C   C27       1.0  0.74240  0.75000  0.05530  1.0000 -0.196745608
C   C28       1.0  0.75760  0.25000  0.55530  1.0000 -0.196745608
C   C29       1.0  0.24100  0.25000  0.14790  1.0000 0.5580966187
C   C30       1.0  0.25900  0.75000  0.64790  1.0000 0.5580966187
C   C31       1.0  0.75900  0.75000  0.85210  1.0000 0.5580966187
C   C32       1.0  0.74100  0.25000  0.35210  1.0000 0.5580966187
C   C33       1.0  0.48830  0.17540  0.00920  1.0000 -0.1757735666
C   C34       1.0  0.01170  0.82460  0.50920  1.0000 -0.1757735666
C   C35       1.0  0.51170  0.67540  0.99080  1.0000 -0.1757735666
C   C36       1.0  0.98830  0.32460  0.49080  1.0000 -0.1757735666
C   C37       1.0  0.51170  0.82460  0.99080  1.0000 -0.1757735666
C   C38       1.0  0.98830  0.17540  0.49080  1.0000 -0.1757735666
C   C39       1.0  0.48830  0.32460  0.00920  1.0000 -0.1757735666
C   C40       1.0  0.01170  0.67540  0.50920  1.0000 -0.1757735666
C   C41       1.0  0.43650  0.10050  0.04210  1.0000 0.1073888722
C   C42       1.0  0.06350  0.89950  0.54210  1.0000 0.1073888722
C   C43       1.0  0.56350  0.60050  0.95790  1.0000 0.1073888722
C   C44       1.0  0.93650  0.39950  0.45790  1.0000 0.1073888722
C   C45       1.0  0.56350  0.89950  0.95790  1.0000 0.1073888722
C   C46       1.0  0.93650  0.10050  0.45790  1.0000 0.1073888722
C   C47       1.0  0.43650  0.39950  0.04210  1.0000 0.1073888722
C   C48       1.0  0.06350  0.60050  0.54210  1.0000 0.1073888722
C   C49       1.0  0.47440  0.07520  0.10930  1.0000 -0.1528545208
C   C50       1.0  0.02560  0.92480  0.60930  1.0000 -0.1528545208
C   C51       1.0  0.52560  0.57520  0.89070  1.0000 -0.1528545208
C   C52       1.0  0.97440  0.42480  0.39070  1.0000 -0.1528545208
C   C53       1.0  0.52560  0.92480  0.89070  1.0000 -0.1528545208
C   C54       1.0  0.97440  0.07520  0.39070  1.0000 -0.1528545208
C   C55       1.0  0.47440  0.42480  0.10930  1.0000 -0.1528545208
C   C56       1.0  0.02560  0.57520  0.60930  1.0000 -0.1528545208
C   C57       1.0  0.43310  0.00570  0.13680  1.0000 -0.0837010778
C   C58       1.0  0.06690  0.99430  0.63680  1.0000 -0.0837010778
C   C59       1.0  0.56690  0.50570  0.86320  1.0000 -0.0837010778
C   C60       1.0  0.93310  0.49430  0.36320  1.0000 -0.0837010778
C   C61       1.0  0.56690  0.99430  0.86320  1.0000 -0.0837010778
C   C62       1.0  0.93310  0.00570  0.36320  1.0000 -0.0837010778
C   C63       1.0  0.43310  0.49430  0.13680  1.0000 -0.0837010778
C   C64       1.0  0.06690  0.50570  0.63680  1.0000 -0.0837010778
C   C65       1.0  0.35040  0.95790  0.10180  1.0000 -0.0513097243
C   C66       1.0  0.14960  0.04210  0.60180  1.0000 -0.0513097243
C   C67       1.0  0.64960  0.45790  0.89820  1.0000 -0.0513097243
C   C68       1.0  0.85040  0.54210  0.39820  1.0000 -0.0513097243
C   C69       1.0  0.64960  0.04210  0.89820  1.0000 -0.0513097243
C   C70       1.0  0.85040  0.95790  0.39820  1.0000 -0.0513097243
C   C71       1.0  0.35040  0.54210  0.10180  1.0000 -0.0513097243
C   C72       1.0  0.14960  0.45790  0.60180  1.0000 -0.0513097243
C   C73       1.0  0.30810  0.98360  0.03660  1.0000 -0.0883361858
C   C74       1.0  0.19190  0.01640  0.53660  1.0000 -0.0883361858
C   C75       1.0  0.69190  0.48360  0.96340  1.0000 -0.0883361858
C   C76       1.0  0.80810  0.51640  0.46340  1.0000 -0.0883361858
C   C77       1.0  0.69190  0.01640  0.96340  1.0000 -0.0883361858
C   C78       1.0  0.80810  0.98360  0.46340  1.0000 -0.0883361858
C   C79       1.0  0.30810  0.51640  0.03660  1.0000 -0.0883361858
C   C80       1.0  0.19190  0.48360  0.53660  1.0000 -0.0883361858
C   C81       1.0  0.35080  0.05430  0.00660  1.0000 -0.1614729948
C   C82       1.0  0.14920  0.94570  0.50660  1.0000 -0.1614729948
C   C83       1.0  0.64920  0.55430  0.99340  1.0000 -0.1614729948
C   C84       1.0  0.85080  0.44570  0.49340  1.0000 -0.1614729948
C   C85       1.0  0.64920  0.94570  0.99340  1.0000 -0.1614729948
C   C86       1.0  0.85080  0.05430  0.49340  1.0000 -0.1614729948
C   C87       1.0  0.35080  0.44570  0.00660  1.0000 -0.1614729948
C   C88       1.0  0.14920  0.55430  0.50660  1.0000 -0.1614729948
C   C89       1.0  0.30780  0.88150  0.13170  1.0000 0.5580966187
C   C90       1.0  0.19220  0.11850  0.63170  1.0000 0.5580966187
C   C91       1.0  0.69220  0.38150  0.86830  1.0000 0.5580966187
C   C92       1.0  0.80780  0.61850  0.36830  1.0000 0.5580966187
C   C93       1.0  0.69220  0.11850  0.86830  1.0000 0.5580966187
C   C94       1.0  0.80780  0.88150  0.36830  1.0000 0.5580966187
C   C95       1.0  0.30780  0.61850  0.13170  1.0000 0.5580966187
C   C96       1.0  0.19220  0.38150  0.63170  1.0000 0.5580966187
N   N1        1.0  0.42440  0.25000  0.03500  1.0000 -0.1205111668
N   N2        1.0  0.07560  0.75000  0.53500  1.0000 -0.1205111668
N   N3        1.0  0.57560  0.75000  0.96500  1.0000 -0.1205111668
N   N4        1.0  0.92440  0.25000  0.46500  1.0000 -0.1205111668
O   O1        1.0  0.18530  0.25000  0.80700  1.0000 -0.7160512396
O   O2        1.0  0.31470  0.75000  0.30700  1.0000 -0.7160512396
O   O3        1.0  0.81470  0.75000  0.19300  1.0000 -0.7160512396
O   O4        1.0  0.68530  0.25000  0.69300  1.0000 -0.7160512396
O   O5        1.0  0.98890  0.25000  0.83620  1.0000 -0.6831504889
O   O6        1.0  0.51110  0.75000  0.33620  1.0000 -0.6831504889
O   O7        1.0  0.01110  0.75000  0.16380  1.0000 -0.6831504889
O   O8        1.0  0.48890  0.25000  0.66380  1.0000 -0.6831504889
O   O9        1.0  0.35600  0.25000  0.16380  1.0000 -0.442070391
O   O10       1.0  0.14400  0.75000  0.66380  1.0000 -0.442070391
O   O11       1.0  0.64400  0.75000  0.83620  1.0000 -0.442070391
O   O12       1.0  0.85600  0.25000  0.33620  1.0000 -0.442070391
O   O13       1.0  0.15920  0.25000  0.19260  1.0000 -0.5251856334
O   O14       1.0  0.34080  0.75000  0.69260  1.0000 -0.5233094382
O   O15       1.0  0.84080  0.75000  0.80740  1.0000 -0.5233094382
O   O16       1.0  0.65920  0.25000  0.30740  1.0000 -0.5233094382
O   O17       1.0  0.36290  0.85020  0.18380  1.0000 -0.6357967891
O   O18       1.0  0.13710  0.14980  0.68380  1.0000 -0.6357967891
O   O19       1.0  0.63710  0.35020  0.81620  1.0000 -0.6357967891
O   O20       1.0  0.86290  0.64980  0.31620  1.0000 -0.6357967891
O   O21       1.0  0.63710  0.14980  0.81620  1.0000 -0.6357967891
O   O22       1.0  0.86290  0.85020  0.31620  1.0000 -0.6357967891
O   O23       1.0  0.36290  0.64980  0.18380  1.0000 -0.6357967891
O   O24       1.0  0.13710  0.35020  0.68380  1.0000 -0.6357967891
O   O25       1.0  0.21470  0.84670  0.10810  1.0000 -0.6301843114
O   O26       1.0  0.28530  0.15330  0.60810  1.0000 -0.6301843114
O   O27       1.0  0.78530  0.34670  0.89190  1.0000 -0.6301843114
O   O28       1.0  0.71470  0.65330  0.39190  1.0000 -0.6301843114
O   O29       1.0  0.78530  0.15330  0.89190  1.0000 -0.6301843114
O   O30       1.0  0.71470  0.84670  0.39190  1.0000 -0.6301843114
O   O31       1.0  0.21470  0.65330  0.10810  1.0000 -0.6301843114
O   O32       1.0  0.28530  0.34670  0.60810  1.0000 -0.6301843114
