# DDEC6 charges by PACMAN v1.1 (https://github.com/mtap-research/PACMAN-charge/)
data_2015[Cu][crb]3[ASR]3
_chemical_formula_sum              "Cu4 H36 C60 N20 O16"
_cell_length_a       9.9602
_cell_length_b       17.0086
_cell_length_c       14.8076
_cell_angle_alpha    90
_cell_angle_beta     124.943
_cell_angle_gamma    90

_symmetry_space_group_name_H-M    "P 1"
_symmetry_Int_Tables_number       1

loop_
  _symmetry_equiv_pos_as_xyz
  'x, y, z'

loop_
  _atom_site_type_symbol
  _atom_site_label
  _atom_site_symmetry_multiplicity
  _atom_site_fract_x
  _atom_site_fract_y
  _atom_site_fract_z
  _atom_site_occupancy
  _atom_site_charge
Cu  Cu1       1.0  0.11416  0.54850  0.65860  1.0000 0.7584052396
Cu  Cu2       1.0  0.88584  0.04850  0.84140  1.0000 0.7584052396
Cu  Cu3       1.0  0.88584  0.45150  0.34140  1.0000 0.7584052396
Cu  Cu4       1.0  0.11416  0.95150  0.15860  1.0000 0.7584052396
H   H1        1.0  0.39560  0.03860  0.79860  1.0000 0.1428414893
H   H2        1.0  0.60440  0.53860  0.70140  1.0000 0.1428414893
H   H3        1.0  0.60440  0.96140  0.20140  1.0000 0.1428414893
H   H4        1.0  0.39560  0.46140  0.29860  1.0000 0.1428414893
H   H5        1.0  0.02950  0.19790  0.68620  1.0000 0.1471455854
H   H6        1.0  0.97050  0.69790  0.81380  1.0000 0.1471455854
H   H7        1.0  0.97050  0.80210  0.31380  1.0000 0.1471455854
H   H8        1.0  0.02950  0.30210  0.18620  1.0000 0.1471455854
H   H9        1.0  0.41490  0.24600  0.66910  1.0000 0.1428414893
H   H10       1.0  0.58510  0.74600  0.83090  1.0000 0.1428414893
H   H11       1.0  0.58510  0.75400  0.33090  1.0000 0.1428414893
H   H12       1.0  0.41490  0.25400  0.16910  1.0000 0.1428414893
H   H13       1.0  0.09710  0.25650  0.40540  1.0000 0.1707744797
H   H14       1.0  0.90290  0.75650  0.09460  1.0000 0.1707744797
H   H15       1.0  0.90290  0.74350  0.59460  1.0000 0.1707744797
H   H16       1.0  0.09710  0.24350  0.90540  1.0000 0.1707744797
H   H17       1.0  0.01080  0.20390  0.44810  1.0000 0.1602899295
H   H18       1.0  0.98920  0.70390  0.05190  1.0000 0.1602899295
H   H19       1.0  0.98920  0.79610  0.55190  1.0000 0.1602899295
H   H20       1.0  0.01080  0.29610  0.94810  1.0000 0.1602899295
H   H21       1.0  0.90540  0.26620  0.35100  1.0000 0.1915745859
H   H22       1.0  0.09460  0.76620  0.14900  1.0000 0.1915745859
H   H23       1.0  0.09460  0.73380  0.64900  1.0000 0.1915745859
H   H24       1.0  0.90540  0.23380  0.85100  1.0000 0.1915745859
H   H25       1.0  0.38490  0.32980  0.01060  1.0000 0.1113779808
H   H26       1.0  0.61510  0.82980  0.48940  1.0000 0.1113779808
H   H27       1.0  0.61510  0.67020  0.98940  1.0000 0.1113779808
H   H28       1.0  0.38490  0.17020  0.51060  1.0000 0.1113779808
H   H29       1.0  0.37380  0.46120  0.04900  1.0000 0.1471455854
H   H30       1.0  0.62620  0.96120  0.45100  1.0000 0.1471455854
H   H31       1.0  0.62620  0.53880  0.95100  1.0000 0.1471455854
H   H32       1.0  0.37380  0.03880  0.54900  1.0000 0.1471455854
H   H33       1.0  0.27380  0.55270  0.90690  1.0000 0.1243910056
H   H34       1.0  0.72620  0.05270  0.59310  1.0000 0.1243910056
H   H35       1.0  0.72620  0.44730  0.09310  1.0000 0.1243910056
H   H36       1.0  0.27380  0.94730  0.40690  1.0000 0.1243910056
C   C1        1.0  0.11750  0.05740  0.78260  1.0000 0.5541026902
C   C2        1.0  0.88250  0.55740  0.71740  1.0000 0.5541026902
C   C3        1.0  0.88250  0.94260  0.21740  1.0000 0.5541026902
C   C4        1.0  0.11750  0.44260  0.28260  1.0000 0.5541026902
C   C5        1.0  0.59450  0.11700  0.76140  1.0000 0.5394987178
C   C6        1.0  0.40550  0.61700  0.73860  1.0000 0.5394987178
C   C7        1.0  0.40550  0.88300  0.23860  1.0000 0.5394987178
C   C8        1.0  0.59450  0.38300  0.26140  1.0000 0.5394987178
C   C9        1.0  0.34910  0.08830  0.76610  1.0000 -0.1257655907
C   C10       1.0  0.65090  0.58830  0.73390  1.0000 -0.1257655907
C   C11       1.0  0.65090  0.91170  0.23390  1.0000 -0.1257655907
C   C12       1.0  0.34910  0.41170  0.26610  1.0000 -0.1249691236
C   C13       1.0  0.20000  0.11090  0.74640  1.0000 0.0122987706
C   C14       1.0  0.80000  0.61090  0.75360  1.0000 0.0122987706
C   C15       1.0  0.80000  0.88910  0.25360  1.0000 0.0122987706
C   C16       1.0  0.20000  0.38910  0.24640  1.0000 0.0122987706
C   C17       1.0  0.43060  0.13940  0.73760  1.0000 0.0122987706
C   C18       1.0  0.56940  0.63940  0.76240  1.0000 0.0122987706
C   C19       1.0  0.56940  0.86060  0.26240  1.0000 0.0122987706
C   C20       1.0  0.43060  0.36060  0.23760  1.0000 0.0122987706
C   C21       1.0  0.13020  0.18240  0.69820  1.0000 -0.1799753694
C   C22       1.0  0.86980  0.68240  0.80180  1.0000 -0.1799753694
C   C23       1.0  0.86980  0.81760  0.30180  1.0000 -0.1799753694
C   C24       1.0  0.13020  0.31760  0.19820  1.0000 -0.1799753694
C   C25       1.0  0.36080  0.21110  0.68840  1.0000 -0.199329904
C   C26       1.0  0.63920  0.71110  0.81160  1.0000 -0.199329904
C   C27       1.0  0.63920  0.78890  0.31160  1.0000 -0.199329904
C   C28       1.0  0.36080  0.28890  0.18840  1.0000 -0.199329904
C   C29       1.0  0.20920  0.23110  0.66750  1.0000 0.1707744797
C   C30       1.0  0.79080  0.73110  0.83250  1.0000 0.1707744797
C   C31       1.0  0.79080  0.76890  0.33250  1.0000 0.1707744797
C   C32       1.0  0.20920  0.26890  0.16750  1.0000 0.1707744797
C   C33       1.0  0.01250  0.25570  0.41970  1.0000 -0.5247711229
C   C34       1.0  0.98750  0.75570  0.08030  1.0000 -0.5247711229
C   C35       1.0  0.98750  0.74430  0.58030  1.0000 -0.5323966134
C   C36       1.0  0.01250  0.24430  0.91970  1.0000 -0.5247711229
C   C37       1.0  0.04860  0.31660  0.50170  1.0000 0.3750447643
C   C38       1.0  0.95140  0.81660  0.99830  1.0000 0.3750447643
C   C39       1.0  0.95140  0.68340  0.49830  1.0000 0.3750447643
C   C40       1.0  0.04860  0.18340  0.00170  1.0000 0.3750447643
C   C41       1.0  0.13700  0.37600  0.65690  1.0000 0.1915745859
C   C42       1.0  0.86300  0.87600  0.84310  1.0000 0.1915745859
C   C43       1.0  0.86300  0.62400  0.34310  1.0000 0.1915745859
C   C44       1.0  0.13700  0.12400  0.15690  1.0000 0.1915745859
C   C45       1.0  0.21550  0.39720  0.77310  1.0000 0.2990102929
C   C46       1.0  0.78450  0.89720  0.72690  1.0000 0.2990102929
C   C47       1.0  0.78450  0.60280  0.22690  1.0000 0.2990102929
C   C48       1.0  0.21550  0.10280  0.27310  1.0000 0.2990102929
C   C49       1.0  0.33690  0.36710  0.95240  1.0000 0.1113779808
C   C50       1.0  0.66310  0.86710  0.54760  1.0000 0.1113779808
C   C51       1.0  0.66310  0.63290  0.04760  1.0000 0.1113779808
C   C52       1.0  0.33690  0.13290  0.45240  1.0000 0.1113779808
C   C53       1.0  0.33480  0.44490  0.97650  1.0000 -0.1799753694
C   C54       1.0  0.66520  0.94490  0.52350  1.0000 -0.1799753694
C   C55       1.0  0.66520  0.55510  0.02350  1.0000 -0.1749926197
C   C56       1.0  0.33480  0.05510  0.47650  1.0000 -0.1749926197
C   C57       1.0  0.27440  0.49840  0.89220  1.0000 0.12724729
C   C58       1.0  0.72560  0.99840  0.60780  1.0000 0.12724729
C   C59       1.0  0.72560  0.50160  0.10780  1.0000 0.12724729
C   C60       1.0  0.27440  0.00160  0.39220  1.0000 0.12724729
N   N1        1.0  0.13300  0.30412  0.61250  1.0000 -0.0866989705
N   N2        1.0  0.86700  0.80412  0.88750  1.0000 -0.0866989705
N   N3        1.0  0.86700  0.69588  0.38750  1.0000 -0.0866989705
N   N4        1.0  0.13300  0.19588  0.11250  1.0000 -0.0866989705
N   N5        1.0  0.00270  0.39128  0.48060  1.0000 -0.2130734685
N   N6        1.0  0.99730  0.89128  0.01940  1.0000 -0.2130734685
N   N7        1.0  0.99730  0.60872  0.51940  1.0000 -0.2130734685
N   N8        1.0  0.00270  0.10872  0.98060  1.0000 -0.2130734685
N   N9        1.0  0.05860  0.42836  0.57910  1.0000 -0.2166841912
N   N10       1.0  0.94140  0.92836  0.92090  1.0000 -0.2166841912
N   N11       1.0  0.94140  0.57164  0.42090  1.0000 -0.2166841912
N   N12       1.0  0.05860  0.07164  0.07910  1.0000 -0.2166841912
N   N13       1.0  0.21610  0.47502  0.78930  1.0000 -0.2820219162
N   N14       1.0  0.78390  0.97502  0.71070  1.0000 -0.2820219162
N   N15       1.0  0.78390  0.52498  0.21070  1.0000 -0.2820219162
N   N16       1.0  0.21610  0.02498  0.28930  1.0000 -0.2820219162
N   N17       1.0  0.27330  0.34190  0.84890  1.0000 -0.2957307014
N   N18       1.0  0.72670  0.84190  0.65110  1.0000 -0.2957307014
N   N19       1.0  0.72670  0.65810  0.15110  1.0000 -0.2957307014
N   N20       1.0  0.27330  0.15810  0.34890  1.0000 -0.2957307014
O   O1        1.0  0.13640  0.98500  0.78420  1.0000 -0.550702064
O   O2        1.0  0.86360  0.48500  0.71580  1.0000 -0.550702064
O   O3        1.0  0.86360  0.01500  0.21580  1.0000 -0.550702064
O   O4        1.0  0.13640  0.51500  0.28420  1.0000 -0.550702064
O   O5        1.0  0.03120  0.09235  0.80710  1.0000 -0.5364053059
O   O6        1.0  0.96880  0.59235  0.69290  1.0000 -0.5364053059
O   O7        1.0  0.96880  0.90765  0.19290  1.0000 -0.5364053059
O   O8        1.0  0.03120  0.40765  0.30710  1.0000 -0.5364053059
O   O9        1.0  0.67150  0.05952  0.82770  1.0000 -0.5323966134
O   O10       1.0  0.32850  0.55952  0.67230  1.0000 -0.5323966134
O   O11       1.0  0.32850  0.94048  0.17230  1.0000 -0.5364053059
O   O12       1.0  0.67150  0.44048  0.32770  1.0000 -0.5323966134
O   O13       1.0  0.64830  0.15455  0.71630  1.0000 -0.5662670719
O   O14       1.0  0.35170  0.65455  0.78370  1.0000 -0.5662670719
O   O15       1.0  0.35170  0.84545  0.28370  1.0000 -0.5662670719
O   O16       1.0  0.64830  0.34545  0.21630  1.0000 -0.5662670719
