# DDEC6 charges by PACMAN v1.1 (https://github.com/mtap-research/PACMAN-charge/)
data_2015[Ag][dia]3[ASR]1
_chemical_formula_sum              "Ag12 H24 C16 N32"
_cell_length_a       19.455
_cell_length_b       19.455
_cell_length_c       3.5339
_cell_angle_alpha    90
_cell_angle_beta     90
_cell_angle_gamma    90

_symmetry_space_group_name_H-M    "P 1"
_symmetry_Int_Tables_number       1

loop_
  _symmetry_equiv_pos_as_xyz
  'x, y, z'

loop_
  _atom_site_type_symbol
  _atom_site_label
  _atom_site_symmetry_multiplicity
  _atom_site_fract_x
  _atom_site_fract_y
  _atom_site_fract_z
  _atom_site_occupancy
  _atom_site_charge
Ag  Ag1       1.0  0.37791  0.45649  0.00087  1.0000 0.2463889041
Ag  Ag2       1.0  0.62209  0.54351  0.00087  1.0000 0.2463889041
Ag  Ag3       1.0  0.45649  0.62209  0.99913  1.0000 0.2438126324
Ag  Ag4       1.0  0.54351  0.37791  0.99913  1.0000 0.2438126324
Ag  Ag5       1.0  0.87817  0.04359  0.50103  1.0000 0.2463889041
Ag  Ag6       1.0  0.12183  0.95641  0.50103  1.0000 0.2463889041
Ag  Ag7       1.0  0.95641  0.87817  0.49897  1.0000 0.2463889041
Ag  Ag8       1.0  0.04359  0.12183  0.49897  1.0000 0.2463889041
Ag  Ag9       1.0  0.16558  0.66521  0.74897  1.0000 0.2891177802
Ag  Ag10      1.0  0.83442  0.33479  0.74897  1.0000 0.2891177802
Ag  Ag11      1.0  0.66521  0.83442  0.25103  1.0000 0.2891177802
Ag  Ag12      1.0  0.33479  0.16558  0.25103  1.0000 0.2891177802
H   H1        1.0  0.29157  0.75549  0.48859  1.0000 0.2731586738
H   H2        1.0  0.70843  0.24451  0.48859  1.0000 0.2731586738
H   H3        1.0  0.75549  0.70843  0.51141  1.0000 0.2731586738
H   H4        1.0  0.24451  0.29157  0.51141  1.0000 0.2731586738
H   H5        1.0  0.79177  0.74451  0.98674  1.0000 0.2731586738
H   H6        1.0  0.20823  0.25549  0.98674  1.0000 0.2731586738
H   H7        1.0  0.25549  0.79177  0.01326  1.0000 0.2731586738
H   H8        1.0  0.74451  0.20823  0.01326  1.0000 0.2731586738
H   H9        1.0  0.37370  0.73496  0.29525  1.0000 0.2731586738
H   H10       1.0  0.62630  0.26504  0.29525  1.0000 0.2731586738
H   H11       1.0  0.73496  0.62630  0.70475  1.0000 0.2731586738
H   H12       1.0  0.26504  0.37370  0.70475  1.0000 0.2731586738
H   H13       1.0  0.87318  0.76484  0.79662  1.0000 0.2731586738
H   H14       1.0  0.12682  0.23516  0.79662  1.0000 0.2731586738
H   H15       1.0  0.23516  0.87318  0.20338  1.0000 0.2731586738
H   H16       1.0  0.76484  0.12682  0.20338  1.0000 0.2731586738
H   H17       1.0  0.22048  0.51430  0.37438  1.0000 0.0769126086
H   H18       1.0  0.77952  0.48570  0.37438  1.0000 0.0769126086
H   H19       1.0  0.51430  0.77952  0.62562  1.0000 0.0769126086
H   H20       1.0  0.48570  0.22048  0.62562  1.0000 0.0769126086
H   H21       1.0  0.72035  0.98564  0.87444  1.0000 0.0679622261
H   H22       1.0  0.27965  0.01436  0.87444  1.0000 0.0679622261
H   H23       1.0  0.01436  0.72035  0.12556  1.0000 0.0679622261
H   H24       1.0  0.98564  0.27965  0.12556  1.0000 0.0679622261
C   C1        1.0  0.26131  0.55280  0.34825  1.0000 0.0917087818
C   C2        1.0  0.73869  0.44720  0.34825  1.0000 0.0917087818
C   C3        1.0  0.55280  0.73869  0.65175  1.0000 0.0917087818
C   C4        1.0  0.44720  0.26131  0.65175  1.0000 0.0917087818
C   C5        1.0  0.76142  0.94642  0.84892  1.0000 0.1104943423
C   C6        1.0  0.23858  0.05358  0.84892  1.0000 0.1104943423
C   C7        1.0  0.05358  0.76142  0.15108  1.0000 0.1104943423
C   C8        1.0  0.94642  0.23858  0.15108  1.0000 0.1104943423
C   C9        1.0  0.31067  0.65094  0.34679  1.0000 0.4711846231
C   C10       1.0  0.68933  0.34906  0.34679  1.0000 0.4711846231
C   C11       1.0  0.65094  0.68933  0.65321  1.0000 0.4711846231
C   C12       1.0  0.34906  0.31067  0.65321  1.0000 0.4711846231
C   C13       1.0  0.81048  0.84840  0.84803  1.0000 0.4785897253
C   C14       1.0  0.18952  0.15160  0.84803  1.0000 0.4785897253
C   C15       1.0  0.15160  0.81048  0.15197  1.0000 0.4785897253
C   C16       1.0  0.84840  0.18952  0.15197  1.0000 0.4785897253
N   N1        1.0  0.32217  0.54367  0.19696  1.0000 -0.1901348227
N   N2        1.0  0.67783  0.45633  0.19696  1.0000 -0.1901348227
N   N3        1.0  0.54367  0.67783  0.80304  1.0000 -0.1901348227
N   N4        1.0  0.45633  0.32217  0.80304  1.0000 -0.1901348227
N   N5        1.0  0.82194  0.95620  0.69900  1.0000 -0.1901348227
N   N6        1.0  0.17806  0.04380  0.69900  1.0000 -0.1901348227
N   N7        1.0  0.04380  0.82194  0.30100  1.0000 -0.1901348227
N   N8        1.0  0.95620  0.17806  0.30100  1.0000 -0.1901348227
N   N9        1.0  0.35432  0.60805  0.19461  1.0000 -0.2823023976
N   N10       1.0  0.64568  0.39195  0.19461  1.0000 -0.2823023976
N   N11       1.0  0.60805  0.64568  0.80539  1.0000 -0.2823023976
N   N12       1.0  0.39195  0.35432  0.80539  1.0000 -0.2823023976
N   N13       1.0  0.85420  0.89218  0.69411  1.0000 -0.2884587379
N   N14       1.0  0.14580  0.10782  0.69411  1.0000 -0.2884587379
N   N15       1.0  0.10782  0.85420  0.30589  1.0000 -0.2884587379
N   N16       1.0  0.89218  0.14580  0.30589  1.0000 -0.2884587379
N   N17       1.0  0.25153  0.61992  0.47423  1.0000 -0.4313597673
N   N18       1.0  0.74847  0.38008  0.47423  1.0000 -0.4313597673
N   N19       1.0  0.61992  0.74847  0.52577  1.0000 -0.4313597673
N   N20       1.0  0.38008  0.25153  0.52577  1.0000 -0.4313597673
N   N21       1.0  0.75199  0.88050  0.97211  1.0000 -0.4313597673
N   N22       1.0  0.24801  0.11950  0.97211  1.0000 -0.4313597673
N   N23       1.0  0.11950  0.75199  0.02789  1.0000 -0.4313597673
N   N24       1.0  0.88050  0.24801  0.02789  1.0000 -0.4313597673
N   N25       1.0  0.32654  0.72027  0.39679  1.0000 -0.6845101
N   N26       1.0  0.67346  0.27973  0.39679  1.0000 -0.6845101
N   N27       1.0  0.72027  0.67346  0.60321  1.0000 -0.6845101
N   N28       1.0  0.27973  0.32654  0.60321  1.0000 -0.6845101
N   N29       1.0  0.82630  0.78053  0.89658  1.0000 -0.6718340398
N   N30       1.0  0.17370  0.21947  0.89658  1.0000 -0.6718340398
N   N31       1.0  0.21947  0.82630  0.10342  1.0000 -0.6718340398
N   N32       1.0  0.78053  0.17370  0.10342  1.0000 -0.6718340398
