# DDEC6 charges by PACMAN v1.1 (https://github.com/mtap-research/PACMAN-charge/)
data_2015[Eu][nan]3[ASR]3
_chemical_formula_sum              "Eu6 H96 C144 N26 O66"
_cell_length_a       15.2438
_cell_length_b       15.2438
_cell_length_c       22.714
_cell_angle_alpha    70.737
_cell_angle_beta     70.737
_cell_angle_gamma    81.6633

_symmetry_space_group_name_H-M    "P 1"
_symmetry_Int_Tables_number       1

loop_
  _symmetry_equiv_pos_as_xyz
  'x, y, z'

loop_
  _atom_site_type_symbol
  _atom_site_label
  _atom_site_symmetry_multiplicity
  _atom_site_fract_x
  _atom_site_fract_y
  _atom_site_fract_z
  _atom_site_occupancy
  _atom_site_charge
Eu  Eu1       1.0  0.86921  0.69954  0.75396  1.0000 2.0114978929
Eu  Eu2       1.0  0.13079  0.30046  0.24604  1.0000 2.0114978929
Eu  Eu3       1.0  0.30046  0.13079  0.74604  1.0000 2.0114978929
Eu  Eu4       1.0  0.69954  0.86921  0.25396  1.0000 2.0114978929
Eu  Eu5       1.0  0.98892  0.01108  0.75000  1.0000 2.162967362
Eu  Eu6       1.0  0.01108  0.98892  0.25000  1.0000 2.162967362
H   H1        1.0  0.79508  0.98368  0.89627  1.0000 0.1095004528
H   H2        1.0  0.20492  0.01632  0.10373  1.0000 0.1095004528
H   H3        1.0  0.01632  0.20492  0.60373  1.0000 0.1095004528
H   H4        1.0  0.98368  0.79508  0.39627  1.0000 0.1095004528
H   H5        1.0  0.68615  0.98734  0.00772  1.0000 0.1095004528
H   H6        1.0  0.31385  0.01266  0.99228  1.0000 0.1095004528
H   H7        1.0  0.01266  0.31385  0.49228  1.0000 0.1095004528
H   H8        1.0  0.98734  0.68615  0.50772  1.0000 0.1095004528
H   H9        1.0  0.53221  0.76629  0.01138  1.0000 0.1095004528
H   H10       1.0  0.46779  0.23371  0.98862  1.0000 0.1095004528
H   H11       1.0  0.23371  0.46779  0.48862  1.0000 0.1095004528
H   H12       1.0  0.76629  0.53221  0.51138  1.0000 0.1095004528
H   H13       1.0  0.65284  0.75508  0.90535  1.0000 0.1204417524
H   H14       1.0  0.34716  0.24492  0.09465  1.0000 0.1204417524
H   H15       1.0  0.24492  0.34716  0.59465  1.0000 0.1204417524
H   H16       1.0  0.75508  0.65284  0.40535  1.0000 0.1204417524
H   H17       1.0  0.55193  0.03052  0.04574  1.0000 0.0941874613
H   H18       1.0  0.44807  0.96948  0.95426  1.0000 0.0941874613
H   H19       1.0  0.96948  0.44807  0.45426  1.0000 0.0941874613
H   H20       1.0  0.03052  0.55193  0.54574  1.0000 0.0941874613
H   H21       1.0  0.45171  0.04826  0.15338  1.0000 0.1204417524
H   H22       1.0  0.54829  0.95174  0.84662  1.0000 0.1204417524
H   H23       1.0  0.95174  0.54829  0.34662  1.0000 0.1204417524
H   H24       1.0  0.04826  0.45171  0.65338  1.0000 0.1204417524
H   H25       1.0  0.40327  0.75270  0.21771  1.0000 0.1389930253
H   H26       1.0  0.59673  0.24730  0.78229  1.0000 0.1389930253
H   H27       1.0  0.24730  0.59673  0.28229  1.0000 0.1389930253
H   H28       1.0  0.75270  0.40327  0.71771  1.0000 0.1389930253
H   H29       1.0  0.51576  0.74420  0.11059  1.0000 0.1204417524
H   H30       1.0  0.48424  0.25580  0.88941  1.0000 0.1204417524
H   H31       1.0  0.25580  0.48424  0.38941  1.0000 0.1204417524
H   H32       1.0  0.74420  0.51576  0.61059  1.0000 0.1204417524
H   H33       1.0  0.32364  0.05765  0.22638  1.0000 0.131121043
H   H34       1.0  0.67636  0.94235  0.77362  1.0000 0.131121043
H   H35       1.0  0.94235  0.67636  0.27362  1.0000 0.131121043
H   H36       1.0  0.05765  0.32364  0.72638  1.0000 0.131121043
H   H37       1.0  0.21331  0.06066  0.33353  1.0000 0.1204417524
H   H38       1.0  0.78669  0.93934  0.66647  1.0000 0.1204417524
H   H39       1.0  0.93934  0.78669  0.16647  1.0000 0.1204417524
H   H40       1.0  0.06066  0.21331  0.83353  1.0000 0.1204417524
H   H41       1.0  0.27070  0.77897  0.41945  1.0000 0.1001724932
H   H42       1.0  0.72930  0.22103  0.58055  1.0000 0.1001724932
H   H43       1.0  0.22103  0.72930  0.08055  1.0000 0.1001724932
H   H44       1.0  0.77897  0.27070  0.91945  1.0000 0.1001724932
H   H45       1.0  0.38137  0.76220  0.31264  1.0000 0.131121043
H   H46       1.0  0.61863  0.23780  0.68736  1.0000 0.131121043
H   H47       1.0  0.23780  0.61863  0.18736  1.0000 0.131121043
H   H48       1.0  0.76220  0.38137  0.81264  1.0000 0.131121043
H   H49       1.0  0.22661  0.04762  0.43873  1.0000 0.131121043
H   H50       1.0  0.77339  0.95238  0.56127  1.0000 0.131121043
H   H51       1.0  0.95238  0.77339  0.06127  1.0000 0.131121043
H   H52       1.0  0.04762  0.22661  0.93873  1.0000 0.131121043
H   H53       1.0  0.11570  0.04300  0.55031  1.0000 0.1204417524
H   H54       1.0  0.88430  0.95700  0.44969  1.0000 0.1204417524
H   H55       1.0  0.95700  0.88430  0.94969  1.0000 0.1204417524
H   H56       1.0  0.04300  0.11570  0.05031  1.0000 0.1204417524
H   H57       1.0  0.99972  0.79342  0.56498  1.0000 0.1095004528
H   H58       1.0  0.00028  0.20658  0.43502  1.0000 0.1095004528
H   H59       1.0  0.20658  0.00028  0.93502  1.0000 0.1095004528
H   H60       1.0  0.79342  0.99972  0.06498  1.0000 0.1095004528
H   H61       1.0  0.10777  0.79896  0.45000  1.0000 0.1095004528
H   H62       1.0  0.89223  0.20104  0.55000  1.0000 0.1095004528
H   H63       1.0  0.20104  0.89223  0.05000  1.0000 0.1095004528
H   H64       1.0  0.79896  0.10777  0.95000  1.0000 0.1095004528
H   H65       1.0  0.06735  0.57997  0.86967  1.0000 0.1204417524
H   H66       1.0  0.93265  0.42003  0.13033  1.0000 0.1204417524
H   H67       1.0  0.42003  0.93265  0.63033  1.0000 0.1204417524
H   H68       1.0  0.57997  0.06735  0.36967  1.0000 0.1204417524
H   H69       1.0  0.19021  0.50821  0.92550  1.0000 0.1204417524
H   H70       1.0  0.80979  0.49179  0.07450  1.0000 0.1204417524
H   H71       1.0  0.49179  0.80979  0.57450  1.0000 0.1204417524
H   H72       1.0  0.50821  0.19021  0.42550  1.0000 0.1204417524
H   H73       1.0  0.28621  0.78413  0.88106  1.0000 0.1204417524
H   H74       1.0  0.71379  0.21587  0.11894  1.0000 0.1204417524
H   H75       1.0  0.21587  0.71379  0.61894  1.0000 0.1204417524
H   H76       1.0  0.78413  0.28621  0.38106  1.0000 0.1204417524
H   H77       1.0  0.16282  0.85368  0.82494  1.0000 0.1095004528
H   H78       1.0  0.83718  0.14632  0.17506  1.0000 0.1095004528
H   H79       1.0  0.14632  0.83718  0.67506  1.0000 0.1095004528
H   H80       1.0  0.85368  0.16282  0.32494  1.0000 0.1095004528
H   H81       1.0  0.22337  0.52435  0.02043  1.0000 0.1204417524
H   H82       1.0  0.77663  0.47565  0.97957  1.0000 0.1204417524
H   H83       1.0  0.47565  0.77663  0.47957  1.0000 0.1204417524
H   H84       1.0  0.52435  0.22337  0.52043  1.0000 0.1204417524
H   H85       1.0  0.34775  0.44676  0.07036  1.0000 0.131121043
H   H86       1.0  0.65225  0.55324  0.92964  1.0000 0.131121043
H   H87       1.0  0.55324  0.65225  0.42964  1.0000 0.131121043
H   H88       1.0  0.44676  0.34775  0.57036  1.0000 0.131121043
H   H89       1.0  0.54962  0.61416  0.89378  1.0000 0.131121043
H   H90       1.0  0.45038  0.38584  0.10622  1.0000 0.131121043
H   H91       1.0  0.38584  0.45038  0.60622  1.0000 0.131121043
H   H92       1.0  0.61416  0.54962  0.39378  1.0000 0.131121043
H   H93       1.0  0.41598  0.68053  0.85127  1.0000 0.1095004528
H   H94       1.0  0.58402  0.31947  0.14873  1.0000 0.1095004528
H   H95       1.0  0.31947  0.58402  0.64873  1.0000 0.1095004528
H   H96       1.0  0.68053  0.41598  0.35127  1.0000 0.1095004528
C   C1        1.0  0.79314  0.86782  0.83052  1.0000 0.6453739782
C   C2        1.0  0.20686  0.13218  0.16948  1.0000 0.6453739782
C   C3        1.0  0.13218  0.20686  0.66948  1.0000 0.6453739782
C   C4        1.0  0.86782  0.79314  0.33052  1.0000 0.6453739782
C   C5        1.0  0.72768  0.86948  0.89652  1.0000 -0.0382091231
C   C6        1.0  0.27232  0.13052  0.10348  1.0000 -0.0382091231
C   C7        1.0  0.13052  0.27232  0.60348  1.0000 -0.0382091231
C   C8        1.0  0.86948  0.72768  0.39652  1.0000 -0.0382091231
C   C9        1.0  0.73731  0.93684  0.92337  1.0000 -0.0666171289
C   C10       1.0  0.26269  0.06316  0.07663  1.0000 -0.0666171289
C   C11       1.0  0.06316  0.26269  0.57663  1.0000 -0.0666171289
C   C12       1.0  0.93684  0.73731  0.42337  1.0000 -0.0666171289
C   C13       1.0  0.67513  0.94123  0.98300  1.0000 -0.1588365934
C   C14       1.0  0.32487  0.05877  0.01700  1.0000 -0.1588365934
C   C15       1.0  0.05877  0.32487  0.51700  1.0000 -0.1588365934
C   C16       1.0  0.94123  0.67513  0.48300  1.0000 -0.1588365934
C   C17       1.0  0.60135  0.88034  0.01366  1.0000 0.1389930253
C   C18       1.0  0.39865  0.11966  0.98634  1.0000 0.1389930253
C   C19       1.0  0.11966  0.39865  0.48634  1.0000 0.1389930253
C   C20       1.0  0.88034  0.60135  0.51366  1.0000 0.1389930253
C   C21       1.0  0.59074  0.81275  0.98718  1.0000 -0.1841797452
C   C22       1.0  0.40926  0.18725  0.01282  1.0000 -0.1841797452
C   C23       1.0  0.18725  0.40926  0.51282  1.0000 -0.1841797452
C   C24       1.0  0.81275  0.59074  0.48718  1.0000 -0.1841797452
C   C25       1.0  0.65584  0.80661  0.92865  1.0000 -0.0776233557
C   C26       1.0  0.34416  0.19339  0.07135  1.0000 -0.0776233557
C   C27       1.0  0.19339  0.34416  0.57135  1.0000 -0.0776233557
C   C28       1.0  0.80661  0.65584  0.42865  1.0000 -0.0776233557
C   C29       1.0  0.51854  0.97168  0.08634  1.0000 0.0531618954
C   C30       1.0  0.48146  0.02832  0.91366  1.0000 0.0531618954
C   C31       1.0  0.02832  0.48146  0.41366  1.0000 0.0531618954
C   C32       1.0  0.97168  0.51854  0.58634  1.0000 0.0531618954
C   C33       1.0  0.46169  0.97988  0.14578  1.0000 -0.1432016114
C   C34       1.0  0.53831  0.02012  0.85422  1.0000 -0.1432016114
C   C35       1.0  0.02012  0.53831  0.35422  1.0000 -0.1432016114
C   C36       1.0  0.97988  0.46169  0.64578  1.0000 -0.1432016114
C   C37       1.0  0.41885  0.90139  0.19542  1.0000 0.1389930253
C   C38       1.0  0.58115  0.09861  0.80458  1.0000 0.1389930253
C   C39       1.0  0.09861  0.58115  0.30458  1.0000 0.1389930253
C   C40       1.0  0.90139  0.41885  0.69542  1.0000 0.1389930253
C   C41       1.0  0.43594  0.81564  0.18161  1.0000 -0.113657936
C   C42       1.0  0.56406  0.18436  0.81839  1.0000 -0.113657936
C   C43       1.0  0.18436  0.56406  0.31839  1.0000 -0.113657936
C   C44       1.0  0.81564  0.43594  0.68161  1.0000 -0.113657936
C   C45       1.0  0.49539  0.80974  0.12221  1.0000 0.063116359
C   C46       1.0  0.50461  0.19026  0.87779  1.0000 0.063116359
C   C47       1.0  0.19026  0.50461  0.37779  1.0000 0.063116359
C   C48       1.0  0.80974  0.49539  0.62221  1.0000 0.063116359
C   C49       1.0  0.31506  0.99314  0.26691  1.0000 -0.122349381
C   C50       1.0  0.68494  0.00686  0.73309  1.0000 -0.122349381
C   C51       1.0  0.00686  0.68494  0.23309  1.0000 -0.122349381
C   C52       1.0  0.99314  0.31506  0.76691  1.0000 -0.122349381
C   C53       1.0  0.25354  0.99726  0.32647  1.0000 0.1001724932
C   C54       1.0  0.74646  0.00274  0.67353  1.0000 0.1001724932
C   C55       1.0  0.00274  0.74646  0.17353  1.0000 0.1001724932
C   C56       1.0  0.99726  0.25354  0.82647  1.0000 0.1001724932
C   C57       1.0  0.28477  0.83623  0.37375  1.0000 0.063116359
C   C58       1.0  0.71523  0.16377  0.62625  1.0000 0.063116359
C   C59       1.0  0.16377  0.71523  0.12625  1.0000 0.063116359
C   C60       1.0  0.83623  0.28477  0.87375  1.0000 0.063116359
C   C61       1.0  0.34419  0.82871  0.31490  1.0000 -0.122349381
C   C62       1.0  0.65581  0.17129  0.68510  1.0000 -0.122349381
C   C63       1.0  0.17129  0.65581  0.18510  1.0000 -0.122349381
C   C64       1.0  0.82871  0.34419  0.81490  1.0000 -0.122349381
C   C65       1.0  0.35933  0.90826  0.25947  1.0000 0.131121043
C   C66       1.0  0.64067  0.09174  0.74053  1.0000 0.131121043
C   C67       1.0  0.09174  0.64067  0.24053  1.0000 0.131121043
C   C68       1.0  0.90826  0.35933  0.75947  1.0000 0.131121043
C   C69       1.0  0.17641  0.99254  0.46604  1.0000 -0.1432016114
C   C70       1.0  0.82359  0.00746  0.53396  1.0000 -0.1432016114
C   C71       1.0  0.00746  0.82359  0.03396  1.0000 -0.1432016114
C   C72       1.0  0.99254  0.17641  0.96604  1.0000 -0.1432016114
C   C73       1.0  0.11559  0.98967  0.52791  1.0000 -0.0666171289
C   C74       1.0  0.88441  0.01033  0.47209  1.0000 -0.0666171289
C   C75       1.0  0.01033  0.88441  0.97209  1.0000 -0.0666171289
C   C76       1.0  0.98967  0.11559  0.02791  1.0000 -0.0666171289
C   C77       1.0  0.05447  0.91665  0.56353  1.0000 -0.0382091231
C   C78       1.0  0.94553  0.08335  0.43647  1.0000 -0.0382091231
C   C79       1.0  0.08335  0.94553  0.93647  1.0000 -0.0382091231
C   C80       1.0  0.91665  0.05447  0.06353  1.0000 -0.0382091231
C   C81       1.0  0.05086  0.84716  0.53640  1.0000 -0.0776233557
C   C82       1.0  0.94914  0.15284  0.46360  1.0000 -0.0776233557
C   C83       1.0  0.15284  0.94914  0.96360  1.0000 -0.0776233557
C   C84       1.0  0.84716  0.05086  0.03640  1.0000 -0.0776233557
C   C85       1.0  0.11064  0.84917  0.47446  1.0000 -0.1588365934
C   C86       1.0  0.88936  0.15083  0.52554  1.0000 -0.1588365934
C   C87       1.0  0.15083  0.88936  0.02554  1.0000 -0.1588365934
C   C88       1.0  0.84917  0.11064  0.97446  1.0000 -0.1588365934
C   C89       1.0  0.17361  0.92099  0.44094  1.0000 0.1485348423
C   C90       1.0  0.82639  0.07901  0.55906  1.0000 0.1485348423
C   C91       1.0  0.07901  0.82639  0.05906  1.0000 0.1485348423
C   C92       1.0  0.92099  0.17361  0.94094  1.0000 0.1485348423
C   C93       1.0  0.99346  0.91214  0.63212  1.0000 0.6283270498
C   C94       1.0  0.00654  0.08786  0.36788  1.0000 0.6283270498
C   C95       1.0  0.08786  0.00654  0.86788  1.0000 0.6283270498
C   C96       1.0  0.91214  0.99346  0.13212  1.0000 0.6283270498
C   C97       1.0  0.03776  0.75868  0.80812  1.0000 0.6453739782
C   C98       1.0  0.96224  0.24132  0.19188  1.0000 0.6453739782
C   C99       1.0  0.24132  0.96224  0.69188  1.0000 0.6453739782
C   C100      1.0  0.75868  0.03776  0.30812  1.0000 0.6453739782
C   C101      1.0  0.10997  0.71963  0.84353  1.0000 -0.0313180289
C   C102      1.0  0.89003  0.28037  0.15647  1.0000 -0.0313180289
C   C103      1.0  0.28037  0.89003  0.65647  1.0000 -0.0313180289
C   C104      1.0  0.71963  0.10997  0.34353  1.0000 -0.0313180289
C   C105      1.0  0.11589  0.62314  0.87286  1.0000 -0.058917785
C   C106      1.0  0.88411  0.37686  0.12714  1.0000 -0.058917785
C   C107      1.0  0.37686  0.88411  0.62714  1.0000 -0.058917785
C   C108      1.0  0.62314  0.11589  0.37286  1.0000 -0.058917785
C   C109      1.0  0.18328  0.58372  0.90422  1.0000 -0.1588365934
C   C110      1.0  0.81672  0.41628  0.09578  1.0000 -0.1588365934
C   C111      1.0  0.41628  0.81672  0.59578  1.0000 -0.1588365934
C   C112      1.0  0.58372  0.18328  0.40422  1.0000 -0.1588365934
C   C113      1.0  0.24415  0.64347  0.90515  1.0000 0.1389930253
C   C114      1.0  0.75585  0.35653  0.09485  1.0000 0.1389930253
C   C115      1.0  0.35653  0.75585  0.59485  1.0000 0.1389930253
C   C116      1.0  0.64347  0.24415  0.40515  1.0000 0.1389930253
C   C117      1.0  0.23882  0.74009  0.87711  1.0000 -0.1669095675
C   C118      1.0  0.76118  0.25991  0.12289  1.0000 -0.1669095675
C   C119      1.0  0.25991  0.76118  0.62289  1.0000 -0.1669095675
C   C120      1.0  0.74009  0.23882  0.37711  1.0000 -0.1669095675
C   C121      1.0  0.17030  0.77845  0.84660  1.0000 -0.058917785
C   C122      1.0  0.82970  0.22155  0.15340  1.0000 -0.058917785
C   C123      1.0  0.22155  0.82970  0.65340  1.0000 -0.058917785
C   C124      1.0  0.77845  0.17030  0.34660  1.0000 -0.058917785
C   C125      1.0  0.29723  0.53893  0.99484  1.0000 0.063116359
C   C126      1.0  0.70277  0.46107  0.00516  1.0000 0.063116359
C   C127      1.0  0.46107  0.70277  0.50516  1.0000 0.063116359
C   C128      1.0  0.53893  0.29723  0.49484  1.0000 0.063116359
C   C129      1.0  0.36839  0.49793  0.02161  1.0000 -0.1497494871
C   C130      1.0  0.63161  0.50207  0.97839  1.0000 -0.1497494871
C   C131      1.0  0.50207  0.63161  0.47839  1.0000 -0.1497494871
C   C132      1.0  0.49793  0.36839  0.52161  1.0000 -0.1497494871
C   C133      1.0  0.46142  0.52287  0.98682  1.0000 0.1095004528
C   C134      1.0  0.53858  0.47713  0.01318  1.0000 0.1095004528
C   C135      1.0  0.47713  0.53858  0.51318  1.0000 0.1095004528
C   C136      1.0  0.52287  0.46142  0.48682  1.0000 0.1095004528
C   C137      1.0  0.47938  0.59215  0.92519  1.0000 -0.1588365934
C   C138      1.0  0.52062  0.40785  0.07481  1.0000 -0.1588365934
C   C139      1.0  0.40785  0.52062  0.57481  1.0000 -0.1588365934
C   C140      1.0  0.59215  0.47938  0.42519  1.0000 -0.1588365934
C   C141      1.0  0.40664  0.63078  0.90003  1.0000 0.0355978389
C   C142      1.0  0.59336  0.36922  0.09997  1.0000 0.0355978389
C   C143      1.0  0.36922  0.59336  0.59997  1.0000 0.0355978389
C   C144      1.0  0.63078  0.40664  0.40003  1.0000 0.0283080952
N   N1        1.0  0.53622  0.88736  0.07479  1.0000 0.0283080952
N   N2        1.0  0.46378  0.11264  0.92521  1.0000 0.0283080952
N   N3        1.0  0.11264  0.46378  0.42521  1.0000 0.0283080952
N   N4        1.0  0.88736  0.53622  0.57479  1.0000 0.0249045757
N   N5        1.0  0.23884  0.91883  0.37870  1.0000 0.0531618954
N   N6        1.0  0.76116  0.08117  0.62130  1.0000 0.0531618954
N   N7        1.0  0.08117  0.76116  0.12130  1.0000 0.0531618954
N   N8        1.0  0.91883  0.23884  0.87870  1.0000 0.0531618954
N   N9        1.0  0.31747  0.60393  0.93443  1.0000 0.0283080952
N   N10       1.0  0.68253  0.39607  0.06557  1.0000 0.0283080952
N   N11       1.0  0.39607  0.68253  0.56557  1.0000 0.0283080952
N   N12       1.0  0.60393  0.31747  0.43443  1.0000 0.0283080952
N   N13       1.0  0.83544  0.16456  0.75000  1.0000 0.7362908701
N   N14       1.0  0.16456  0.83544  0.25000  1.0000 0.7362908701
N   N15       1.0  0.81304  0.74510  0.63010  1.0000 0.7341528018
N   N16       1.0  0.18696  0.25490  0.36990  1.0000 0.7341528018
N   N17       1.0  0.25490  0.18696  0.86990  1.0000 0.7362908701
N   N18       1.0  0.74510  0.81304  0.13010  1.0000 0.7341528018
N   N19       1.0  0.70034  0.57562  0.79773  1.0000 0.7341528018
N   N20       1.0  0.29966  0.42438  0.20227  1.0000 0.7341528018
N   N21       1.0  0.42438  0.29966  0.70227  1.0000 0.7341528018
N   N22       1.0  0.57562  0.70034  0.29773  1.0000 0.7341528018
N   N23       1.0  0.90026  0.51649  0.85929  1.0000 0.7362908701
N   N24       1.0  0.09974  0.48351  0.14071  1.0000 0.7362908701
N   N25       1.0  0.48351  0.09974  0.64071  1.0000 0.7362908701
N   N26       1.0  0.51649  0.90026  0.35929  1.0000 0.7341528018
O   O1        1.0  0.78482  0.80111  0.81111  1.0000 -0.6606576662
O   O2        1.0  0.21518  0.19889  0.18889  1.0000 -0.6606576662
O   O3        1.0  0.19889  0.21518  0.68889  1.0000 -0.6606576662
O   O4        1.0  0.80111  0.78482  0.31111  1.0000 -0.6606576662
O   O5        1.0  0.84554  0.93572  0.79965  1.0000 -0.6778137531
O   O6        1.0  0.15446  0.06428  0.20035  1.0000 -0.6778137531
O   O7        1.0  0.06428  0.15446  0.70035  1.0000 -0.6778137531
O   O8        1.0  0.93572  0.84554  0.29965  1.0000 -0.6778137531
O   O9        1.0  0.98924  0.98392  0.64991  1.0000 -0.6778137531
O   O10       1.0  0.01076  0.01608  0.35009  1.0000 -0.6778137531
O   O11       1.0  0.01608  0.01076  0.85009  1.0000 -0.6778137531
O   O12       1.0  0.98392  0.98924  0.14991  1.0000 -0.6778137531
O   O13       1.0  0.95175  0.83696  0.66710  1.0000 -0.6778137531
O   O14       1.0  0.04825  0.16304  0.33290  1.0000 -0.6778137531
O   O15       1.0  0.16304  0.04825  0.83290  1.0000 -0.6778137531
O   O16       1.0  0.83696  0.95175  0.16710  1.0000 -0.6778137531
O   O17       1.0  0.02681  0.84617  0.78726  1.0000 -0.6778137531
O   O18       1.0  0.97319  0.15383  0.21274  1.0000 -0.6778137531
O   O19       1.0  0.15383  0.97319  0.71274  1.0000 -0.6778137531
O   O20       1.0  0.84617  0.02681  0.28726  1.0000 -0.6778137531
O   O21       1.0  0.99259  0.70064  0.80119  1.0000 -0.667633615
O   O22       1.0  0.00741  0.29936  0.19881  1.0000 -0.667633615
O   O23       1.0  0.29936  0.00741  0.69881  1.0000 -0.667633615
O   O24       1.0  0.70064  0.99259  0.30119  1.0000 -0.667633615
O   O25       1.0  0.86873  0.13256  0.70101  1.0000 -0.5378594319
O   O26       1.0  0.13127  0.86744  0.29899  1.0000 -0.5378594319
O   O27       1.0  0.86744  0.13127  0.79899  1.0000 -0.5378594319
O   O28       1.0  0.13256  0.86873  0.20101  1.0000 -0.5378594319
O   O29       1.0  0.77119  0.22881  0.75000  1.0000 -0.4614556303
O   O30       1.0  0.22881  0.77119  0.25000  1.0000 -0.4614556303
O   O31       1.0  0.76875  0.77701  0.67821  1.0000 -0.5378594319
O   O32       1.0  0.23125  0.22299  0.32179  1.0000 -0.5378594319
O   O33       1.0  0.22299  0.23125  0.82179  1.0000 -0.5378594319
O   O34       1.0  0.77701  0.76875  0.17821  1.0000 -0.5378594319
O   O35       1.0  0.88635  0.69075  0.63460  1.0000 -0.562428623
O   O36       1.0  0.11365  0.30925  0.36540  1.0000 -0.562428623
O   O37       1.0  0.30925  0.11365  0.86540  1.0000 -0.562428623
O   O38       1.0  0.69075  0.88635  0.13460  1.0000 -0.562428623
O   O39       1.0  0.78683  0.76571  0.57973  1.0000 -0.4302119459
O   O40       1.0  0.21317  0.23429  0.42027  1.0000 -0.4302119459
O   O41       1.0  0.23429  0.21317  0.92027  1.0000 -0.4302119459
O   O42       1.0  0.76571  0.78683  0.07973  1.0000 -0.4302119459
O   O43       1.0  0.68381  0.64755  0.81814  1.0000 -0.5185536603
O   O44       1.0  0.31619  0.35245  0.18186  1.0000 -0.5185536603
O   O45       1.0  0.35245  0.31619  0.68186  1.0000 -0.5185536603
O   O46       1.0  0.64755  0.68381  0.31814  1.0000 -0.5185536603
O   O47       1.0  0.78009  0.56606  0.75689  1.0000 -0.562428623
O   O48       1.0  0.21991  0.43394  0.24311  1.0000 -0.562428623
O   O49       1.0  0.43394  0.21991  0.74311  1.0000 -0.562428623
O   O50       1.0  0.56606  0.78009  0.25689  1.0000 -0.562428623
O   O51       1.0  0.63960  0.51408  0.81821  1.0000 -0.4614556303
O   O52       1.0  0.36040  0.48592  0.18179  1.0000 -0.4614556303
O   O53       1.0  0.48592  0.36040  0.68179  1.0000 -0.4614556303
O   O54       1.0  0.51408  0.63960  0.31821  1.0000 -0.4614556303
O   O55       1.0  0.83618  0.57926  0.87116  1.0000 -0.5475456934
O   O56       1.0  0.16382  0.42074  0.12884  1.0000 -0.5475456934
O   O57       1.0  0.42074  0.16382  0.62884  1.0000 -0.5475456934
O   O58       1.0  0.57926  0.83618  0.37116  1.0000 -0.5475456934
O   O59       1.0  0.95251  0.52717  0.80035  1.0000 -0.5185536603
O   O60       1.0  0.04749  0.47283  0.19965  1.0000 -0.525474451
O   O61       1.0  0.47283  0.04749  0.69965  1.0000 -0.525474451
O   O62       1.0  0.52717  0.95251  0.30035  1.0000 -0.525474451
O   O63       1.0  0.91016  0.44487  0.90591  1.0000 -0.4683978031
O   O64       1.0  0.08984  0.55513  0.09409  1.0000 -0.4683978031
O   O65       1.0  0.55513  0.08984  0.59409  1.0000 -0.4683978031
O   O66       1.0  0.44487  0.91016  0.40591  1.0000 -0.4683978031
