# DDEC6 charges by PACMAN v1.1 (https://github.com/mtap-research/PACMAN-charge/)
data_2015[Dy][nan]3[ASR]3
_chemical_formula_sum              "Dy16 H192 C336 O120"
_cell_length_a       15.97
_cell_length_b       28.166
_cell_length_c       24.0267
_cell_angle_alpha    90
_cell_angle_beta     111.092
_cell_angle_gamma    90

_symmetry_space_group_name_H-M    "P 1"
_symmetry_Int_Tables_number       1

loop_
  _symmetry_equiv_pos_as_xyz
  'x, y, z'

loop_
  _atom_site_type_symbol
  _atom_site_label
  _atom_site_symmetry_multiplicity
  _atom_site_fract_x
  _atom_site_fract_y
  _atom_site_fract_z
  _atom_site_occupancy
  _atom_site_charge
Dy  Dy1       1.0  0.43131  0.10491  0.20997  1.0000 2.0399226639
Dy  Dy2       1.0  0.56869  0.60491  0.29003  1.0000 2.0399226639
Dy  Dy3       1.0  0.56869  0.89509  0.79003  1.0000 2.0399226639
Dy  Dy4       1.0  0.43131  0.39509  0.70997  1.0000 2.0399226639
Dy  Dy5       1.0  0.65840  0.14055  0.21840  1.0000 2.0399226639
Dy  Dy6       1.0  0.34160  0.64055  0.28160  1.0000 2.0399226639
Dy  Dy7       1.0  0.34160  0.85945  0.78160  1.0000 2.0399226639
Dy  Dy8       1.0  0.65840  0.35945  0.71840  1.0000 2.0399226639
Dy  Dy9       1.0  0.91087  0.14227  0.30417  1.0000 2.1209001634
Dy  Dy10      1.0  0.08913  0.64227  0.19583  1.0000 2.1209001634
Dy  Dy11      1.0  0.08913  0.85773  0.69583  1.0000 2.1209001634
Dy  Dy12      1.0  0.91087  0.35773  0.80417  1.0000 2.1209001634
Dy  Dy13      1.0  0.20648  0.13029  0.29246  1.0000 2.1275150869
Dy  Dy14      1.0  0.79352  0.63029  0.20754  1.0000 2.1275150869
Dy  Dy15      1.0  0.79352  0.86971  0.70754  1.0000 2.1275150869
Dy  Dy16      1.0  0.20648  0.36971  0.79246  1.0000 2.1275150869
H   H1        1.0  0.57020  0.94020  0.20140  1.0000 0.1196446587
H   H2        1.0  0.42980  0.44020  0.29860  1.0000 0.1196446587
H   H3        1.0  0.42980  0.05980  0.79860  1.0000 0.1196446587
H   H4        1.0  0.57020  0.55980  0.70140  1.0000 0.1196446587
H   H5        1.0  0.71000  0.03180  0.32540  1.0000 0.1196446587
H   H6        1.0  0.29000  0.53180  0.17460  1.0000 0.1196446587
H   H7        1.0  0.29000  0.96820  0.67460  1.0000 0.1196446587
H   H8        1.0  0.71000  0.46820  0.82540  1.0000 0.1196446587
H   H9        1.0  0.66810  0.88070  0.25000  1.0000 0.1196446587
H   H10       1.0  0.33190  0.38070  0.25000  1.0000 0.1196446587
H   H11       1.0  0.33190  0.11930  0.75000  1.0000 0.1196446587
H   H12       1.0  0.66810  0.61930  0.75000  1.0000 0.1196446587
H   H13       1.0  0.80560  0.97210  0.37640  1.0000 0.1376017047
H   H14       1.0  0.19440  0.47210  0.12360  1.0000 0.1376017047
H   H15       1.0  0.19440  0.02790  0.62360  1.0000 0.1376017047
H   H16       1.0  0.80560  0.52790  0.87640  1.0000 0.1376017047
H   H17       1.0  0.66560  0.83930  0.36040  1.0000 0.1376017047
H   H18       1.0  0.33440  0.33930  0.13960  1.0000 0.1376017047
H   H19       1.0  0.33440  0.16070  0.63960  1.0000 0.1376017047
H   H20       1.0  0.66560  0.66070  0.86040  1.0000 0.1376017047
H   H21       1.0  0.88600  0.82150  0.32140  1.0000 0.1376017047
H   H22       1.0  0.11400  0.32150  0.17860  1.0000 0.1376017047
H   H23       1.0  0.11400  0.17850  0.67860  1.0000 0.1376017047
H   H24       1.0  0.88600  0.67850  0.82140  1.0000 0.1376017047
H   H25       1.0  0.63260  0.76050  0.34140  1.0000 0.1287103001
H   H26       1.0  0.36740  0.26050  0.15860  1.0000 0.1287103001
H   H27       1.0  0.36740  0.23950  0.65860  1.0000 0.1287103001
H   H28       1.0  0.63260  0.73950  0.84140  1.0000 0.1287103001
H   H29       1.0  0.85170  0.74230  0.30330  1.0000 0.1287103001
H   H30       1.0  0.14830  0.24230  0.19670  1.0000 0.1287103001
H   H31       1.0  0.14830  0.25770  0.69670  1.0000 0.1196446587
H   H32       1.0  0.85170  0.75770  0.80330  1.0000 0.1196446587
H   H33       1.0  0.58030  0.29790  0.26580  1.0000 0.1196446587
H   H34       1.0  0.41970  0.79790  0.23420  1.0000 0.1196446587
H   H35       1.0  0.41970  0.70210  0.73420  1.0000 0.1196446587
H   H36       1.0  0.58030  0.20210  0.76580  1.0000 0.1196446587
H   H37       1.0  0.44760  0.19950  0.32220  1.0000 0.1287103001
H   H38       1.0  0.55240  0.69950  0.17780  1.0000 0.1287103001
H   H39       1.0  0.55240  0.80050  0.67780  1.0000 0.1287103001
H   H40       1.0  0.44760  0.30050  0.82220  1.0000 0.1287103001
H   H41       1.0  0.51880  0.35770  0.30770  1.0000 0.1376017047
H   H42       1.0  0.48120  0.85770  0.19230  1.0000 0.1376017047
H   H43       1.0  0.48120  0.64230  0.69230  1.0000 0.1376017047
H   H44       1.0  0.51880  0.14230  0.80770  1.0000 0.1376017047
H   H45       1.0  0.39080  0.25810  0.36590  1.0000 0.1376017047
H   H46       1.0  0.60920  0.75810  0.13410  1.0000 0.1376017047
H   H47       1.0  0.60920  0.74190  0.63410  1.0000 0.1376017047
H   H48       1.0  0.39080  0.24190  0.86590  1.0000 0.1376017047
H   H49       1.0  0.32790  0.40410  0.40140  1.0000 0.1287103001
H   H50       1.0  0.67210  0.90410  0.09860  1.0000 0.1287103001
H   H51       1.0  0.67210  0.59590  0.59860  1.0000 0.1287103001
H   H52       1.0  0.32790  0.09590  0.90140  1.0000 0.1287103001
H   H53       1.0  0.53510  0.31280  0.45580  1.0000 0.1287103001
H   H54       1.0  0.46490  0.81280  0.04420  1.0000 0.1287103001
H   H55       1.0  0.46490  0.68720  0.54420  1.0000 0.1287103001
H   H56       1.0  0.53510  0.18720  0.95580  1.0000 0.1287103001
H   H57       1.0  0.34310  0.41560  0.49910  1.0000 0.1196446587
H   H58       1.0  0.65690  0.91560  0.00090  1.0000 0.1196446587
H   H59       1.0  0.65690  0.58440  0.50090  1.0000 0.1196446587
H   H60       1.0  0.34310  0.08440  0.99910  1.0000 0.1196446587
H   H61       1.0  0.55360  0.32840  0.55380  1.0000 0.1376017047
H   H62       1.0  0.44640  0.82840  0.94620  1.0000 0.1376017047
H   H63       1.0  0.44640  0.67160  0.44620  1.0000 0.1376017047
H   H64       1.0  0.55360  0.17160  0.05380  1.0000 0.1376017047
H   H65       1.0  0.61870  0.13820  0.36440  1.0000 0.1287103001
H   H66       1.0  0.38130  0.63820  0.13560  1.0000 0.1287103001
H   H67       1.0  0.38130  0.86180  0.63560  1.0000 0.1287103001
H   H68       1.0  0.61870  0.36180  0.86440  1.0000 0.1287103001
H   H69       1.0  0.83760  0.07040  0.46750  1.0000 0.1196446587
H   H70       1.0  0.16240  0.57040  0.03250  1.0000 0.1196446587
H   H71       1.0  0.16240  0.92960  0.53250  1.0000 0.1196446587
H   H72       1.0  0.83760  0.42960  0.96750  1.0000 0.1196446587
H   H73       1.0  0.55150  0.12520  0.43430  1.0000 0.1376017047
H   H74       1.0  0.44850  0.62520  0.06570  1.0000 0.1376017047
H   H75       1.0  0.44850  0.87480  0.56570  1.0000 0.1376017047
H   H76       1.0  0.55150  0.37480  0.93430  1.0000 0.1376017047
H   H77       1.0  0.77120  0.05560  0.53670  1.0000 0.1196446587
H   H78       1.0  0.22880  0.55560  0.96330  1.0000 0.1196446587
H   H79       1.0  0.22880  0.94440  0.46330  1.0000 0.1196446587
H   H80       1.0  0.77120  0.44440  0.03670  1.0000 0.1196446587
H   H81       1.0  0.58950  0.08170  0.62930  1.0000 0.1376017047
H   H82       1.0  0.41050  0.58170  0.87070  1.0000 0.1376017047
H   H83       1.0  0.41050  0.91830  0.37070  1.0000 0.1376017047
H   H84       1.0  0.58950  0.41830  0.12930  1.0000 0.1376017047
H   H85       1.0  0.63640  0.99700  0.51020  1.0000 0.1287103001
H   H86       1.0  0.36360  0.49700  0.98980  1.0000 0.1287103001
H   H87       1.0  0.36360  0.00300  0.48980  1.0000 0.1287103001
H   H88       1.0  0.63640  0.50300  0.01020  1.0000 0.1287103001
H   H89       1.0  0.57250  0.01580  0.68140  1.0000 0.1287103001
H   H90       1.0  0.42750  0.51580  0.81860  1.0000 0.1287103001
H   H91       1.0  0.42750  0.98420  0.31860  1.0000 0.1287103001
H   H92       1.0  0.57250  0.48420  0.18140  1.0000 0.1287103001
H   H93       1.0  0.63130  0.93150  0.56880  1.0000 0.1196446587
H   H94       1.0  0.36870  0.43150  0.93120  1.0000 0.1196446587
H   H95       1.0  0.36870  0.06850  0.43120  1.0000 0.1196446587
H   H96       1.0  0.63130  0.56850  0.06880  1.0000 0.1196446587
H   H97       1.0  0.99490  0.26690  0.36950  1.0000 0.1196446587
H   H98       1.0  0.00510  0.76690  0.13050  1.0000 0.1196446587
H   H99       1.0  0.00510  0.73310  0.63050  1.0000 0.1196446587
H   H100      1.0  0.99490  0.23310  0.86950  1.0000 0.1196446587
H   H101      1.0  0.18880  0.29180  0.30470  1.0000 0.1196446587
H   H102      1.0  0.81120  0.79180  0.19530  1.0000 0.1196446587
H   H103      1.0  0.81120  0.70820  0.69530  1.0000 0.1196446587
H   H104      1.0  0.18880  0.20820  0.80470  1.0000 0.1196446587
H   H105      1.0  0.99670  0.34530  0.39590  1.0000 0.1376017047
H   H106      1.0  0.00330  0.84530  0.10410  1.0000 0.1376017047
H   H107      1.0  0.00330  0.65470  0.60410  1.0000 0.1376017047
H   H108      1.0  0.99670  0.15470  0.89590  1.0000 0.1376017047
H   H109      1.0  0.18470  0.37110  0.32530  1.0000 0.1287103001
H   H110      1.0  0.81530  0.87110  0.17470  1.0000 0.1287103001
H   H111      1.0  0.81530  0.62890  0.67470  1.0000 0.1287103001
H   H112      1.0  0.18470  0.12890  0.82530  1.0000 0.1287103001
H   H113      1.0  0.19330  0.47200  0.44480  1.0000 0.1376017047
H   H114      1.0  0.80670  0.97200  0.05520  1.0000 0.1376017047
H   H115      1.0  0.80670  0.52800  0.55520  1.0000 0.1376017047
H   H116      1.0  0.19330  0.02800  0.94480  1.0000 0.1376017047
H   H117      1.0  0.06040  0.44050  0.27400  1.0000 0.1287103001
H   H118      1.0  0.93960  0.94050  0.22600  1.0000 0.1287103001
H   H119      1.0  0.93960  0.55950  0.72600  1.0000 0.1287103001
H   H120      1.0  0.06040  0.05950  0.77400  1.0000 0.1287103001
H   H121      1.0  0.25660  0.53740  0.41690  1.0000 0.1196446587
H   H122      1.0  0.74340  0.03740  0.08310  1.0000 0.1196446587
H   H123      1.0  0.74340  0.46260  0.58310  1.0000 0.1196446587
H   H124      1.0  0.25660  0.96260  0.91690  1.0000 0.1196446587
H   H125      1.0  0.12140  0.50640  0.24530  1.0000 0.1196446587
H   H126      1.0  0.87860  0.00640  0.25470  1.0000 0.1196446587
H   H127      1.0  0.87860  0.49360  0.75470  1.0000 0.1196446587
H   H128      1.0  0.12140  0.99360  0.74530  1.0000 0.1196446587
H   H129      1.0  0.96510  0.00610  0.36930  1.0000 0.1196446587
H   H130      1.0  0.03490  0.50610  0.13070  1.0000 0.1196446587
H   H131      1.0  0.03490  0.99390  0.63070  1.0000 0.1196446587
H   H132      1.0  0.96510  0.49390  0.86930  1.0000 0.1196446587
H   H133      1.0  0.18270  0.98910  0.32530  1.0000 0.1196446587
H   H134      1.0  0.81730  0.48910  0.17470  1.0000 0.1196446587
H   H135      1.0  0.81730  0.01090  0.67470  1.0000 0.1196446587
H   H136      1.0  0.18270  0.51090  0.82530  1.0000 0.1196446587
H   H137      1.0  0.96320  0.92580  0.38530  1.0000 0.1376017047
H   H138      1.0  0.03680  0.42580  0.11470  1.0000 0.1376017047
H   H139      1.0  0.03680  0.07420  0.61470  1.0000 0.1376017047
H   H140      1.0  0.96320  0.57420  0.88530  1.0000 0.1376017047
H   H141      1.0  0.17490  0.90820  0.33510  1.0000 0.1287103001
H   H142      1.0  0.82510  0.40820  0.16490  1.0000 0.1287103001
H   H143      1.0  0.82510  0.09180  0.66490  1.0000 0.1287103001
H   H144      1.0  0.17490  0.59180  0.83510  1.0000 0.1287103001
H   H145      1.0  0.03710  0.82860  0.27300  1.0000 0.1196446587
H   H146      1.0  0.96290  0.32860  0.22700  1.0000 0.1196446587
H   H147      1.0  0.96290  0.17140  0.72700  1.0000 0.1196446587
H   H148      1.0  0.03710  0.67140  0.77300  1.0000 0.1196446587
H   H149      1.0  0.20410  0.81870  0.44050  1.0000 0.1376017047
H   H150      1.0  0.79590  0.31870  0.05950  1.0000 0.1376017047
H   H151      1.0  0.79590  0.18130  0.55950  1.0000 0.1376017047
H   H152      1.0  0.20410  0.68130  0.94050  1.0000 0.1376017047
H   H153      1.0  0.10460  0.76200  0.24870  1.0000 0.1129709129
H   H154      1.0  0.89540  0.26200  0.25130  1.0000 0.1129709129
H   H155      1.0  0.89540  0.23800  0.75130  1.0000 0.1129709129
H   H156      1.0  0.10460  0.73800  0.74870  1.0000 0.1129709129
H   H157      1.0  0.27260  0.75410  0.41580  1.0000 0.1287103001
H   H158      1.0  0.72740  0.25410  0.08420  1.0000 0.1287103001
H   H159      1.0  0.72740  0.24590  0.58420  1.0000 0.1287103001
H   H160      1.0  0.27260  0.74590  0.91580  1.0000 0.1287103001
H   H161      1.0  0.82660  0.14150  0.10420  1.0000 0.1196446587
H   H162      1.0  0.17340  0.64150  0.39580  1.0000 0.1196446587
H   H163      1.0  0.17340  0.85850  0.89580  1.0000 0.1196446587
H   H164      1.0  0.82660  0.35850  0.60420  1.0000 0.1196446587
H   H165      1.0  0.07820  0.10390  0.12280  1.0000 0.1196446587
H   H166      1.0  0.92180  0.60390  0.37720  1.0000 0.1196446587
H   H167      1.0  0.92180  0.89610  0.87720  1.0000 0.1196446587
H   H168      1.0  0.07820  0.39610  0.62280  1.0000 0.1196446587
H   H169      1.0  0.02900  0.09420  0.01850  1.0000 0.1376017047
H   H170      1.0  0.97100  0.59420  0.48150  1.0000 0.1376017047
H   H171      1.0  0.97100  0.90580  0.98150  1.0000 0.1376017047
H   H172      1.0  0.02900  0.40580  0.51850  1.0000 0.1376017047
H   H173      1.0  0.78440  0.13200  0.00050  1.0000 0.1376017047
H   H174      1.0  0.21560  0.63200  0.49950  1.0000 0.1376017047
H   H175      1.0  0.21560  0.86800  0.99950  1.0000 0.1376017047
H   H176      1.0  0.78440  0.36800  0.50050  1.0000 0.1287103001
H   H177      1.0  0.80970  0.03740  0.96630  1.0000 0.1287103001
H   H178      1.0  0.19030  0.53740  0.53370  1.0000 0.1287103001
H   H179      1.0  0.19030  0.96260  0.03370  1.0000 0.1287103001
H   H180      1.0  0.80970  0.46260  0.46630  1.0000 0.1287103001
H   H181      1.0  0.88880  0.09310  0.84050  1.0000 0.1376017047
H   H182      1.0  0.11120  0.59310  0.65950  1.0000 0.1376017047
H   H183      1.0  0.11120  0.90690  0.15950  1.0000 0.1376017047
H   H184      1.0  0.88880  0.40690  0.34050  1.0000 0.1376017047
H   H185      1.0  0.85190  0.02340  0.78730  1.0000 0.1196446587
H   H186      1.0  0.14810  0.52340  0.71270  1.0000 0.1196446587
H   H187      1.0  0.14810  0.97660  0.21270  1.0000 0.1196446587
H   H188      1.0  0.85190  0.47660  0.28730  1.0000 0.1196446587
H   H189      1.0  0.75520  0.97210  0.90620  1.0000 0.1287103001
H   H190      1.0  0.24480  0.47210  0.59380  1.0000 0.1287103001
H   H191      1.0  0.24480  0.02790  0.09380  1.0000 0.1287103001
H   H192      1.0  0.75520  0.52790  0.40620  1.0000 0.1287103001
C   C1        1.0  0.56280  0.03100  0.23100  1.0000 0.6076185946
C   C2        1.0  0.43720  0.53100  0.26900  1.0000 0.6076185946
C   C3        1.0  0.43720  0.96900  0.76900  1.0000 0.6076185946
C   C4        1.0  0.56280  0.46900  0.73100  1.0000 0.6076185946
C   C5        1.0  0.62930  0.99270  0.26010  1.0000 -0.0249841492
C   C6        1.0  0.37070  0.49270  0.23990  1.0000 -0.0249841492
C   C7        1.0  0.37070  0.00730  0.73990  1.0000 -0.0249841492
C   C8        1.0  0.62930  0.50730  0.76010  1.0000 -0.0249841492
C   C9        1.0  0.61730  0.94670  0.23690  1.0000 -0.0793599637
C   C10       1.0  0.38270  0.44670  0.26310  1.0000 -0.0793599637
C   C11       1.0  0.38270  0.05330  0.76310  1.0000 -0.0793599637
C   C12       1.0  0.61730  0.55330  0.73690  1.0000 -0.0793599637
C   C13       1.0  0.69980  0.00100  0.31070  1.0000 -0.0793599637
C   C14       1.0  0.30020  0.50100  0.18930  1.0000 -0.0793599637
C   C15       1.0  0.30020  0.99900  0.68930  1.0000 -0.0793599637
C   C16       1.0  0.69980  0.49900  0.81070  1.0000 -0.0793599637
C   C17       1.0  0.67460  0.91110  0.26620  1.0000 -0.2099027526
C   C18       1.0  0.32540  0.41110  0.23380  1.0000 -0.2099027526
C   C19       1.0  0.32540  0.08890  0.73380  1.0000 -0.2099027526
C   C20       1.0  0.67460  0.58890  0.76620  1.0000 -0.2099027526
C   C21       1.0  0.75730  0.96550  0.34150  1.0000 -0.1993243691
C   C22       1.0  0.24270  0.46550  0.15850  1.0000 -0.1993243691
C   C23       1.0  0.24270  0.03450  0.65850  1.0000 -0.1993243691
C   C24       1.0  0.75730  0.53450  0.84150  1.0000 -0.1993243691
C   C25       1.0  0.74170  0.92070  0.31960  1.0000 0.2298898483
C   C26       1.0  0.25830  0.42070  0.18040  1.0000 0.2298898483
C   C27       1.0  0.25830  0.07930  0.68040  1.0000 0.2298898483
C   C28       1.0  0.74170  0.57930  0.81960  1.0000 0.2298898483
C   C29       1.0  0.77810  0.83810  0.34150  1.0000 0.2384589035
C   C30       1.0  0.22190  0.33810  0.15850  1.0000 0.2384589035
C   C31       1.0  0.22190  0.16190  0.65850  1.0000 0.2384589035
C   C32       1.0  0.77810  0.66190  0.84150  1.0000 0.2384589035
C   C33       1.0  0.70290  0.82000  0.34820  1.0000 -0.1993243691
C   C34       1.0  0.29710  0.32000  0.15180  1.0000 -0.1993243691
C   C35       1.0  0.29710  0.18000  0.65180  1.0000 -0.1993243691
C   C36       1.0  0.70290  0.68000  0.84820  1.0000 -0.1993243691
C   C37       1.0  0.83420  0.80920  0.32510  1.0000 -0.1919195484
C   C38       1.0  0.16580  0.30920  0.17490  1.0000 -0.1919195484
C   C39       1.0  0.16580  0.19080  0.67490  1.0000 -0.1919195484
C   C40       1.0  0.83420  0.69080  0.82510  1.0000 -0.1919195484
C   C41       1.0  0.68350  0.77300  0.33670  1.0000 -0.0793599637
C   C42       1.0  0.31650  0.27300  0.16330  1.0000 -0.0793599637
C   C43       1.0  0.31650  0.22700  0.66330  1.0000 -0.0793599637
C   C44       1.0  0.68350  0.72700  0.83670  1.0000 -0.0793599637
C   C45       1.0  0.81330  0.76210  0.31400  1.0000 -0.0793599637
C   C46       1.0  0.18670  0.26210  0.18600  1.0000 -0.0793599637
C   C47       1.0  0.18670  0.23790  0.68600  1.0000 -0.0793599637
C   C48       1.0  0.81330  0.73790  0.81400  1.0000 -0.0793599637
C   C49       1.0  0.73730  0.74390  0.31850  1.0000 -0.0508793974
C   C50       1.0  0.26270  0.24390  0.18150  1.0000 -0.0508793974
C   C51       1.0  0.26270  0.25610  0.68150  1.0000 -0.0508793974
C   C52       1.0  0.73730  0.75610  0.81850  1.0000 -0.0508793974
C   C53       1.0  0.71020  0.69340  0.30140  1.0000 0.6604720149
C   C54       1.0  0.28980  0.19340  0.19860  1.0000 0.6604720149
C   C55       1.0  0.28980  0.30660  0.69860  1.0000 0.6604720149
C   C56       1.0  0.71020  0.80660  0.80140  1.0000 0.6604720149
C   C57       1.0  0.55730  0.20630  0.26120  1.0000 0.6076185946
C   C58       1.0  0.44270  0.70630  0.23880  1.0000 0.6076185946
C   C59       1.0  0.44270  0.79370  0.73880  1.0000 0.6076185946
C   C60       1.0  0.55730  0.29370  0.76120  1.0000 0.6076185946
C   C61       1.0  0.51880  0.24300  0.28930  1.0000 -0.0619231753
C   C62       1.0  0.48120  0.74300  0.21070  1.0000 -0.0619231753
C   C63       1.0  0.48120  0.75700  0.71070  1.0000 -0.0619231753
C   C64       1.0  0.51880  0.25700  0.78930  1.0000 -0.0619231753
C   C65       1.0  0.54120  0.29010  0.28520  1.0000 -0.0793599637
C   C66       1.0  0.45880  0.79010  0.21480  1.0000 -0.0793599637
C   C67       1.0  0.45880  0.70990  0.71480  1.0000 -0.0793599637
C   C68       1.0  0.54120  0.20990  0.78520  1.0000 -0.0793599637
C   C69       1.0  0.46230  0.23110  0.31940  1.0000 -0.0793599637
C   C70       1.0  0.53770  0.73110  0.18060  1.0000 -0.0793599637
C   C71       1.0  0.53770  0.76890  0.68060  1.0000 -0.0793599637
C   C72       1.0  0.46230  0.26890  0.81940  1.0000 -0.0793599637
C   C73       1.0  0.50520  0.32590  0.31040  1.0000 -0.2099027526
C   C74       1.0  0.49480  0.82590  0.18960  1.0000 -0.2099027526
C   C75       1.0  0.49480  0.67410  0.68960  1.0000 -0.2099027526
C   C76       1.0  0.50520  0.17410  0.81040  1.0000 -0.2099027526
C   C77       1.0  0.42780  0.26600  0.34500  1.0000 -0.1993243691
C   C78       1.0  0.57220  0.76600  0.15500  1.0000 -0.1993243691
C   C79       1.0  0.57220  0.73400  0.65500  1.0000 -0.1993243691
C   C80       1.0  0.42780  0.23400  0.84500  1.0000 -0.1993243691
C   C81       1.0  0.44850  0.31190  0.33960  1.0000 0.2298898483
C   C82       1.0  0.55150  0.81190  0.16040  1.0000 0.2298898483
C   C83       1.0  0.55150  0.68810  0.66040  1.0000 0.2298898483
C   C84       1.0  0.44850  0.18810  0.83960  1.0000 0.2298898483
C   C85       1.0  0.42660  0.35500  0.41910  1.0000 0.2615287695
C   C86       1.0  0.57340  0.85500  0.08090  1.0000 0.2615287695
C   C87       1.0  0.57340  0.64500  0.58090  1.0000 0.2615287695
C   C88       1.0  0.42660  0.14500  0.91910  1.0000 0.2615287695
C   C89       1.0  0.37130  0.38760  0.43180  1.0000 -0.2099027526
C   C90       1.0  0.62870  0.88760  0.06820  1.0000 -0.2099027526
C   C91       1.0  0.62870  0.61240  0.56820  1.0000 -0.2099027526
C   C92       1.0  0.37130  0.11240  0.93180  1.0000 -0.2099027526
C   C93       1.0  0.49620  0.33340  0.46470  1.0000 -0.2196289857
C   C94       1.0  0.50380  0.83340  0.03530  1.0000 -0.2196289857
C   C95       1.0  0.50380  0.66667  0.53530  1.0000 -0.2196289857
C   C96       1.0  0.49620  0.16660  0.96470  1.0000 -0.2196289857
C   C97       1.0  0.38190  0.39510  0.49000  1.0000 -0.0793599637
C   C98       1.0  0.61810  0.89510  0.01000  1.0000 -0.0793599637
C   C99       1.0  0.61810  0.60490  0.51000  1.0000 -0.0793599637
C   C100      1.0  0.38190  0.10490  0.99000  1.0000 -0.0793599637
C   C101      1.0  0.50700  0.34270  0.52320  1.0000 -0.0698869493
C   C102      1.0  0.49300  0.84270  0.97680  1.0000 -0.0698869493
C   C103      1.0  0.49300  0.65730  0.47680  1.0000 -0.0698869493
C   C104      1.0  0.50700  0.15730  0.02320  1.0000 -0.0698869493
C   C105      1.0  0.45030  0.37250  0.53640  1.0000 -0.0410899478
C   C106      1.0  0.54970  0.87250  0.96360  1.0000 -0.0410899478
C   C107      1.0  0.54970  0.62750  0.46360  1.0000 -0.0410899478
C   C108      1.0  0.45030  0.12750  0.03640  1.0000 -0.0410899478
C   C109      1.0  0.45260  0.37960  0.59830  1.0000 0.617288723
C   C110      1.0  0.54740  0.87960  0.90170  1.0000 0.617288723
C   C111      1.0  0.54740  0.62040  0.40170  1.0000 0.617288723
C   C112      1.0  0.45260  0.12040  0.09830  1.0000 0.617288723
C   C113      1.0  0.77780  0.11670  0.36430  1.0000 0.617288723
C   C114      1.0  0.22220  0.61670  0.13570  1.0000 0.617288723
C   C115      1.0  0.22220  0.88330  0.63570  1.0000 0.617288723
C   C116      1.0  0.77780  0.38330  0.86430  1.0000 0.617288723
C   C117      1.0  0.73550  0.10610  0.40910  1.0000 -0.0619231753
C   C118      1.0  0.26450  0.60610  0.09090  1.0000 -0.0619231753
C   C119      1.0  0.26450  0.89390  0.59090  1.0000 -0.0619231753
C   C120      1.0  0.73550  0.39390  0.90910  1.0000 -0.0619231753
C   C121      1.0  0.64990  0.12190  0.39940  1.0000 -0.0619231753
C   C122      1.0  0.35010  0.62190  0.10060  1.0000 -0.0619231753
C   C123      1.0  0.35010  0.87810  0.60060  1.0000 -0.0619231753
C   C124      1.0  0.64990  0.37810  0.89940  1.0000 -0.0619231753
C   C125      1.0  0.77990  0.08140  0.46050  1.0000 -0.0793599637
C   C126      1.0  0.22010  0.58140  0.03950  1.0000 -0.0793599637
C   C127      1.0  0.22010  0.91860  0.53950  1.0000 -0.0793599637
C   C128      1.0  0.77990  0.41860  0.96050  1.0000 -0.0793599637
C   C129      1.0  0.60900  0.11400  0.44110  1.0000 -0.1993243691
C   C130      1.0  0.39100  0.61400  0.05890  1.0000 -0.1993243691
C   C131      1.0  0.39100  0.88600  0.55890  1.0000 -0.1993243691
C   C132      1.0  0.60900  0.38600  0.94110  1.0000 -0.1993243691
C   C133      1.0  0.74020  0.07260  0.50230  1.0000 -0.2196289857
C   C134      1.0  0.25980  0.57260  0.99770  1.0000 -0.2196289857
C   C135      1.0  0.25980  0.92740  0.49770  1.0000 -0.2196289857
C   C136      1.0  0.74020  0.42740  0.00230  1.0000 -0.2196289857
C   C137      1.0  0.65530  0.08910  0.49270  1.0000 0.2501594915
C   C138      1.0  0.34470  0.58910  0.00730  1.0000 0.2501594915
C   C139      1.0  0.34470  0.91090  0.50730  1.0000 0.2501594915
C   C140      1.0  0.65530  0.41090  0.99270  1.0000 0.2501594915
C   C141      1.0  0.61220  0.04480  0.56360  1.0000 0.2501594915
C   C142      1.0  0.38780  0.54480  0.93640  1.0000 0.2501594915
C   C143      1.0  0.38780  0.95520  0.43640  1.0000 0.2501594915
C   C144      1.0  0.61220  0.45520  0.06360  1.0000 0.2501594915
C   C145      1.0  0.59520  0.05140  0.61590  1.0000 -0.1993243691
C   C146      1.0  0.40480  0.55140  0.88410  1.0000 -0.1993243691
C   C147      1.0  0.40480  0.94860  0.38410  1.0000 -0.1993243691
C   C148      1.0  0.59520  0.44860  0.11590  1.0000 -0.1993243691
C   C149      1.0  0.62490  0.00110  0.54520  1.0000 -0.2196289857
C   C150      1.0  0.37510  0.50110  0.95480  1.0000 -0.2196289857
C   C151      1.0  0.37510  0.99890  0.45480  1.0000 -0.2196289857
C   C152      1.0  0.62490  0.49890  0.04520  1.0000 -0.2196289857
C   C153      1.0  0.58700  0.01180  0.64750  1.0000 -0.0698869493
C   C154      1.0  0.41300  0.51180  0.85250  1.0000 -0.0698869493
C   C155      1.0  0.41300  0.98820  0.35250  1.0000 -0.0698869493
C   C156      1.0  0.58700  0.48820  0.14750  1.0000 -0.0698869493
C   C157      1.0  0.62030  0.96160  0.58030  1.0000 -0.0793599637
C   C158      1.0  0.37970  0.46160  0.91970  1.0000 -0.0793599637
C   C159      1.0  0.37970  0.03840  0.41970  1.0000 -0.0793599637
C   C160      1.0  0.62030  0.53840  0.08030  1.0000 -0.0793599637
C   C161      1.0  0.60000  0.96660  0.63030  1.0000 -0.0793599637
C   C162      1.0  0.40000  0.46660  0.86970  1.0000 -0.0793599637
C   C163      1.0  0.40000  0.03340  0.36970  1.0000 -0.0793599637
C   C164      1.0  0.60000  0.53340  0.13030  1.0000 -0.0793599637
C   C165      1.0  0.59710  0.92570  0.66760  1.0000 0.6281481479
C   C166      1.0  0.40290  0.42570  0.83240  1.0000 0.6281481479
C   C167      1.0  0.40290  0.07430  0.33240  1.0000 0.6281481479
C   C168      1.0  0.59710  0.57430  0.16760  1.0000 0.6281481479
C   C169      1.0  0.08820  0.21980  0.31590  1.0000 0.652724402
C   C170      1.0  0.91180  0.71980  0.18410  1.0000 0.652724402
C   C171      1.0  0.91180  0.78020  0.68410  1.0000 0.652724402
C   C172      1.0  0.08820  0.28020  0.81590  1.0000 0.652724402
C   C173      1.0  0.08970  0.27110  0.33210  1.0000 -0.0619231753
C   C174      1.0  0.91030  0.77110  0.16790  1.0000 -0.0619231753
C   C175      1.0  0.91030  0.72890  0.66790  1.0000 -0.0619231753
C   C176      1.0  0.08970  0.22890  0.83210  1.0000 -0.0619231753
C   C177      1.0  0.03340  0.28790  0.36070  1.0000 -0.0793599637
C   C178      1.0  0.96660  0.78790  0.13930  1.0000 -0.0793599637
C   C179      1.0  0.96660  0.71210  0.63930  1.0000 -0.0793599637
C   C180      1.0  0.03340  0.21210  0.86070  1.0000 -0.0793599637
C   C181      1.0  0.14800  0.30270  0.32130  1.0000 -0.0793599637
C   C182      1.0  0.85200  0.80270  0.17870  1.0000 -0.0793599637
C   C183      1.0  0.85200  0.69730  0.67870  1.0000 -0.0793599637
C   C184      1.0  0.14800  0.19730  0.82130  1.0000 -0.0793599637
C   C185      1.0  0.03390  0.33480  0.37620  1.0000 -0.2099027526
C   C186      1.0  0.96610  0.83480  0.12380  1.0000 -0.2099027526
C   C187      1.0  0.96610  0.66520  0.62380  1.0000 -0.2099027526
C   C188      1.0  0.03390  0.16520  0.87620  1.0000 -0.2099027526
C   C189      1.0  0.14700  0.35010  0.33480  1.0000 -0.2196289857
C   C190      1.0  0.85300  0.85010  0.16520  1.0000 -0.2196289857
C   C191      1.0  0.85300  0.64990  0.66520  1.0000 -0.2196289857
C   C192      1.0  0.14700  0.14990  0.83480  1.0000 -0.2196289857
C   C193      1.0  0.09020  0.36690  0.36250  1.0000 0.2615287695
C   C194      1.0  0.90980  0.86690  0.13750  1.0000 0.2615287695
C   C195      1.0  0.90980  0.63310  0.63750  1.0000 0.2615287695
C   C196      1.0  0.09020  0.13310  0.86250  1.0000 0.2615287695
C   C197      1.0  0.12500  0.44940  0.36170  1.0000 0.2298898483
C   C198      1.0  0.87500  0.94940  0.13830  1.0000 0.2298898483
C   C199      1.0  0.87500  0.55060  0.63830  1.0000 0.2298898483
C   C200      1.0  0.12500  0.05060  0.86170  1.0000 0.2298898483
C   C201      1.0  0.18030  0.47860  0.40460  1.0000 -0.2099027526
C   C202      1.0  0.81970  0.97860  0.09540  1.0000 -0.2099027526
C   C203      1.0  0.81970  0.52140  0.59540  1.0000 -0.2099027526
C   C204      1.0  0.18030  0.02140  0.90460  1.0000 -0.2099027526
C   C205      1.0  0.10070  0.45980  0.30260  1.0000 -0.2099027526
C   C206      1.0  0.89930  0.95980  0.19740  1.0000 -0.2099027526
C   C207      1.0  0.89930  0.54020  0.69740  1.0000 -0.2099027526
C   C208      1.0  0.10070  0.04020  0.80260  1.0000 -0.2099027526
C   C209      1.0  0.21710  0.51810  0.38770  1.0000 -0.0793599637
C   C210      1.0  0.78290  0.01810  0.11230  1.0000 -0.0793599637
C   C211      1.0  0.78290  0.48190  0.61230  1.0000 -0.0793599637
C   C212      1.0  0.21710  0.98190  0.88770  1.0000 -0.0793599637
C   C213      1.0  0.13680  0.49950  0.28560  1.0000 -0.0698869493
C   C214      1.0  0.86320  0.99950  0.21440  1.0000 -0.0698869493
C   C215      1.0  0.86320  0.50050  0.71440  1.0000 -0.0698869493
C   C216      1.0  0.13680  0.00050  0.78560  1.0000 -0.0698869493
C   C217      1.0  0.19590  0.52930  0.32810  1.0000 -0.0279433075
C   C218      1.0  0.80410  0.02930  0.17190  1.0000 -0.0279433075
C   C219      1.0  0.80410  0.47070  0.67190  1.0000 -0.0279433075
C   C220      1.0  0.19590  0.97070  0.82810  1.0000 -0.0279433075
C   C221      1.0  0.23990  0.57090  0.31110  1.0000 0.5939600561
C   C222      1.0  0.76010  0.07090  0.18890  1.0000 0.5939600561
C   C223      1.0  0.76010  0.42910  0.68890  1.0000 0.5939600561
C   C224      1.0  0.23990  0.92910  0.81110  1.0000 0.5939600561
C   C225      1.0  0.07630  0.05780  0.33670  1.0000 0.6604720149
C   C226      1.0  0.92370  0.55780  0.16330  1.0000 0.6604720149
C   C227      1.0  0.92370  0.94220  0.66330  1.0000 0.6604720149
C   C228      1.0  0.07630  0.44220  0.83670  1.0000 0.6604720149
C   C229      1.0  0.07440  0.00580  0.34590  1.0000 -0.0619231753
C   C230      1.0  0.92560  0.50580  0.15410  1.0000 -0.0619231753
C   C231      1.0  0.92560  0.99420  0.65410  1.0000 -0.0619231753
C   C232      1.0  0.07440  0.49420  0.84590  1.0000 -0.0619231753
C   C233      1.0  0.00820  0.98660  0.36350  1.0000 -0.0857861023
C   C234      1.0  0.99180  0.48660  0.13650  1.0000 -0.0857861023
C   C235      1.0  0.99180  0.01340  0.63650  1.0000 -0.0793599637
C   C236      1.0  0.00820  0.51340  0.86350  1.0000 -0.0857861023
C   C237      1.0  0.13750  0.97610  0.33640  1.0000 -0.0793599637
C   C238      1.0  0.86250  0.47610  0.16360  1.0000 -0.0793599637
C   C239      1.0  0.86250  0.02390  0.66360  1.0000 -0.0793599637
C   C240      1.0  0.13750  0.52390  0.83640  1.0000 -0.0793599637
C   C241      1.0  0.00660  0.93860  0.37230  1.0000 -0.2099027526
C   C242      1.0  0.99340  0.43860  0.12770  1.0000 -0.2099027526
C   C243      1.0  0.99340  0.06140  0.62770  1.0000 -0.2099027526
C   C244      1.0  0.00660  0.56140  0.87230  1.0000 -0.2099027526
C   C245      1.0  0.13400  0.92800  0.34310  1.0000 -0.2196289857
C   C246      1.0  0.86600  0.42800  0.15690  1.0000 -0.2196289857
C   C247      1.0  0.86600  0.07200  0.65690  1.0000 -0.2196289857
C   C248      1.0  0.13400  0.57200  0.84310  1.0000 -0.2196289857
C   C249      1.0  0.06820  0.90920  0.36220  1.0000 0.2501594915
C   C250      1.0  0.93180  0.40920  0.13780  1.0000 0.2501594915
C   C251      1.0  0.93180  0.09080  0.63780  1.0000 0.2501594915
C   C252      1.0  0.06820  0.59080  0.86220  1.0000 0.2501594915
C   C253      1.0  0.11210  0.82690  0.35950  1.0000 0.2203981076
C   C254      1.0  0.88790  0.32690  0.14050  1.0000 0.2203981076
C   C255      1.0  0.88790  0.17310  0.64050  1.0000 0.2203981076
C   C256      1.0  0.11210  0.67310  0.85950  1.0000 0.2203981076
C   C257      1.0  0.08320  0.81270  0.30220  1.0000 -0.1993243691
C   C258      1.0  0.91680  0.31270  0.19780  1.0000 -0.1993243691
C   C259      1.0  0.91680  0.18730  0.69780  1.0000 -0.1993243691
C   C260      1.0  0.08320  0.68730  0.80220  1.0000 -0.1993243691
C   C261      1.0  0.18290  0.80680  0.40180  1.0000 -0.1919195484
C   C262      1.0  0.81710  0.30680  0.09820  1.0000 -0.1919195484
C   C263      1.0  0.81710  0.19320  0.59820  1.0000 -0.1919195484
C   C264      1.0  0.18290  0.69320  0.90180  1.0000 -0.1919195484
C   C265      1.0  0.12470  0.77290  0.28790  1.0000 -0.0793599637
C   C266      1.0  0.87530  0.27290  0.21210  1.0000 -0.0793599637
C   C267      1.0  0.87530  0.22710  0.71210  1.0000 -0.0793599637
C   C268      1.0  0.12470  0.72710  0.78790  1.0000 -0.0793599637
C   C269      1.0  0.22350  0.76820  0.38670  1.0000 -0.0793599637
C   C270      1.0  0.77650  0.26820  0.11330  1.0000 -0.0793599637
C   C271      1.0  0.77650  0.23180  0.61330  1.0000 -0.0793599637
C   C272      1.0  0.22350  0.73180  0.88670  1.0000 -0.0793599637
C   C273      1.0  0.19360  0.75010  0.33010  1.0000 -0.0410899478
C   C274      1.0  0.80640  0.25010  0.16990  1.0000 -0.0410899478
C   C275      1.0  0.80640  0.24990  0.66990  1.0000 -0.0410899478
C   C276      1.0  0.19360  0.74990  0.83010  1.0000 -0.0410899478
C   C277      1.0  0.23770  0.70850  0.31450  1.0000 0.617288723
C   C278      1.0  0.76230  0.20850  0.18550  1.0000 0.617288723
C   C279      1.0  0.76230  0.29150  0.68550  1.0000 0.617288723
C   C280      1.0  0.23770  0.79150  0.81450  1.0000 0.617288723
C   C281      1.0  0.98770  0.12960  0.19150  1.0000 0.652724402
C   C282      1.0  0.01230  0.62960  0.30850  1.0000 0.652724402
C   C283      1.0  0.01230  0.87040  0.80850  1.0000 0.652724402
C   C284      1.0  0.98770  0.37040  0.69150  1.0000 0.652724402
C   C285      1.0  0.95940  0.12420  0.12480  1.0000 -0.0508793974
C   C286      1.0  0.04060  0.62420  0.37520  1.0000 -0.0508793974
C   C287      1.0  0.04060  0.87580  0.87520  1.0000 -0.0508793974
C   C288      1.0  0.95940  0.37580  0.62480  1.0000 -0.0508793974
C   C289      1.0  0.86870  0.13260  0.08770  1.0000 -0.0619231753
C   C290      1.0  0.13130  0.63260  0.41230  1.0000 -0.0619231753
C   C291      1.0  0.13130  0.86740  0.91230  1.0000 -0.0619231753
C   C292      1.0  0.86870  0.36740  0.58770  1.0000 -0.0619231753
C   C293      1.0  0.01870  0.11010  0.09920  1.0000 -0.0698869493
C   C294      1.0  0.98130  0.61010  0.40080  1.0000 -0.0698869493
C   C295      1.0  0.98130  0.88990  0.90080  1.0000 -0.0698869493
C   C296      1.0  0.01870  0.38990  0.59920  1.0000 -0.0698869493
C   C297      1.0  0.98890  0.10480  0.03580  1.0000 -0.2196289857
C   C298      1.0  0.01110  0.60480  0.46420  1.0000 -0.2196289857
C   C299      1.0  0.01110  0.89520  0.96420  1.0000 -0.2196289857
C   C300      1.0  0.98890  0.39520  0.53580  1.0000 -0.2196289857
C   C301      1.0  0.84360  0.12710  0.02530  1.0000 -0.2293797899
C   C302      1.0  0.15640  0.62710  0.47470  1.0000 -0.2293797899
C   C303      1.0  0.15640  0.87290  0.97470  1.0000 -0.2293797899
C   C304      1.0  0.84360  0.37290  0.52530  1.0000 -0.2293797899
C   C305      1.0  0.90580  0.11480  0.00170  1.0000 0.2298898483
C   C306      1.0  0.09420  0.61480  0.49830  1.0000 0.2298898483
C   C307      1.0  0.09420  0.88520  0.99830  1.0000 0.2298898483
C   C308      1.0  0.90580  0.38520  0.50170  1.0000 0.2298898483
C   C309      1.0  0.85690  0.07070  0.90940  1.0000 0.2384589035
C   C310      1.0  0.14310  0.57070  0.59060  1.0000 0.2384589035
C   C311      1.0  0.14310  0.92930  0.09060  1.0000 0.2384589035
C   C312      1.0  0.85690  0.42930  0.40940  1.0000 0.2384589035
C   C313      1.0  0.81610  0.03500  0.92940  1.0000 -0.2099027526
C   C314      1.0  0.18390  0.53500  0.57060  1.0000 -0.2099027526
C   C315      1.0  0.18390  0.96500  0.07060  1.0000 -0.2099027526
C   C316      1.0  0.81610  0.46500  0.42940  1.0000 -0.2099027526
C   C317      1.0  0.86570  0.06770  0.85510  1.0000 -0.1993243691
C   C318      1.0  0.13430  0.56770  0.64490  1.0000 -0.1993243691
C   C319      1.0  0.13430  0.93230  0.14490  1.0000 -0.1993243691
C   C320      1.0  0.86570  0.43230  0.35510  1.0000 -0.1993243691
C   C321      1.0  0.84020  0.02690  0.82230  1.0000 -0.0793599637
C   C322      1.0  0.15980  0.52690  0.67770  1.0000 -0.0793599637
C   C323      1.0  0.15980  0.97310  0.17770  1.0000 -0.0793599637
C   C324      1.0  0.84020  0.47310  0.32230  1.0000 -0.0793599637
C   C325      1.0  0.78510  0.99590  0.89390  1.0000 -0.0698869493
C   C326      1.0  0.21490  0.49590  0.60610  1.0000 -0.0698869493
C   C327      1.0  0.21490  0.00410  0.10610  1.0000 -0.0698869493
C   C328      1.0  0.78510  0.50410  0.39390  1.0000 -0.0698869493
C   C329      1.0  0.79770  0.99130  0.84070  1.0000 -0.0508793974
C   C330      1.0  0.20230  0.49130  0.65930  1.0000 -0.0508793974
C   C331      1.0  0.20230  0.00870  0.15930  1.0000 -0.0508793974
C   C332      1.0  0.79770  0.50870  0.34070  1.0000 -0.0508793974
C   C333      1.0  0.76170  0.94950  0.80140  1.0000 0.6433301661
C   C334      1.0  0.23830  0.44950  0.69860  1.0000 0.6433301661
C   C335      1.0  0.23830  0.05050  0.19860  1.0000 0.6433301661
C   C336      1.0  0.76170  0.55050  0.30140  1.0000 0.6433301661
O   O1        1.0  0.48300  0.02235  0.20040  1.0000 -0.5828985528
O   O2        1.0  0.51700  0.52235  0.29960  1.0000 -0.5828985528
O   O3        1.0  0.51700  0.97765  0.79960  1.0000 -0.5828985528
O   O4        1.0  0.48300  0.47765  0.70040  1.0000 -0.5828985528
O   O5        1.0  0.58930  0.07418  0.24190  1.0000 -0.7469056975
O   O6        1.0  0.41070  0.57418  0.25810  1.0000 -0.7469056975
O   O7        1.0  0.41070  0.92582  0.75810  1.0000 -0.7469056975
O   O8        1.0  0.58930  0.42582  0.74190  1.0000 -0.7469056975
O   O9        1.0  0.80080  0.88562  0.35270  1.0000 -0.2293797899
O   O10       1.0  0.19920  0.38562  0.14730  1.0000 -0.2293797899
O   O11       1.0  0.19920  0.11438  0.64730  1.0000 -0.2293797899
O   O12       1.0  0.80080  0.61438  0.85270  1.0000 -0.2293797899
O   O13       1.0  0.74970  0.67167  0.27300  1.0000 -0.6913979177
O   O14       1.0  0.25030  0.17167  0.22700  1.0000 -0.6913979177
O   O15       1.0  0.25030  0.32833  0.72700  1.0000 -0.6913979177
O   O16       1.0  0.74970  0.82833  0.77300  1.0000 -0.6913979177
O   O17       1.0  0.64700  0.67560  0.31480  1.0000 -0.6591771226
O   O18       1.0  0.35300  0.17560  0.18520  1.0000 -0.6591771226
O   O19       1.0  0.35300  0.32440  0.68520  1.0000 -0.6591771226
O   O20       1.0  0.64700  0.82440  0.81480  1.0000 -0.6591771226
O   O21       1.0  0.53710  0.16224  0.26220  1.0000 -0.7403026502
O   O22       1.0  0.46290  0.66224  0.23780  1.0000 -0.7403026502
O   O23       1.0  0.46290  0.83776  0.73780  1.0000 -0.7403026502
O   O24       1.0  0.53710  0.33776  0.76220  1.0000 -0.7403026502
O   O25       1.0  0.61410  0.21765  0.23900  1.0000 -0.5828985528
O   O26       1.0  0.38590  0.71765  0.26100  1.0000 -0.5828985528
O   O27       1.0  0.38590  0.78235  0.76100  1.0000 -0.5828985528
O   O28       1.0  0.61410  0.28235  0.73900  1.0000 -0.5828985528
O   O29       1.0  0.41040  0.34940  0.36000  1.0000 -0.2293797899
O   O30       1.0  0.58960  0.84940  0.14000  1.0000 -0.2293797899
O   O31       1.0  0.58960  0.65060  0.64000  1.0000 -0.2293797899
O   O32       1.0  0.41040  0.15060  0.86000  1.0000 -0.2293797899
O   O33       1.0  0.51520  0.36181  0.64300  1.0000 -0.7283957358
O   O34       1.0  0.48480  0.86181  0.85700  1.0000 -0.7283957358
O   O35       1.0  0.48480  0.63819  0.35700  1.0000 -0.7283957358
O   O36       1.0  0.51520  0.13819  0.14300  1.0000 -0.7283957358
O   O37       1.0  0.39190  0.40427  0.60650  1.0000 -0.6161553766
O   O38       1.0  0.60810  0.90427  0.89350  1.0000 -0.6161553766
O   O39       1.0  0.60810  0.59573  0.39350  1.0000 -0.6161553766
O   O40       1.0  0.39190  0.09573  0.10650  1.0000 -0.6161553766
O   O41       1.0  0.73430  0.14127  0.31890  1.0000 -0.7030677503
O   O42       1.0  0.26570  0.64127  0.18110  1.0000 -0.7030677503
O   O43       1.0  0.26570  0.85873  0.68110  1.0000 -0.7030677503
O   O44       1.0  0.73430  0.35873  0.81890  1.0000 -0.7030677503
O   O45       1.0  0.85680  0.10283  0.37360  1.0000 -0.6484050359
O   O46       1.0  0.14320  0.60283  0.12640  1.0000 -0.6484050359
O   O47       1.0  0.14320  0.89717  0.62640  1.0000 -0.6484050359
O   O48       1.0  0.85680  0.39717  0.87360  1.0000 -0.6484050359
O   O49       1.0  0.61270  0.08640  0.53310  1.0000 -0.2196289857
O   O50       1.0  0.38730  0.58640  0.96690  1.0000 -0.2196289857
O   O51       1.0  0.38730  0.91360  0.46690  1.0000 -0.2196289857
O   O52       1.0  0.61270  0.41360  0.03310  1.0000 -0.2196289857
O   O53       1.0  0.64200  0.88970  0.66600  1.0000 -0.6913979177
O   O54       1.0  0.35800  0.38970  0.83400  1.0000 -0.6913979177
O   O55       1.0  0.35800  0.11030  0.33400  1.0000 -0.7030677503
O   O56       1.0  0.64200  0.61030  0.16600  1.0000 -0.6913979177
O   O57       1.0  0.55060  0.92850  0.69980  1.0000 -0.6365839746
O   O58       1.0  0.44940  0.42850  0.80020  1.0000 -0.6365839746
O   O59       1.0  0.44940  0.07150  0.30020  1.0000 -0.6365839746
O   O60       1.0  0.55060  0.57150  0.19980  1.0000 -0.6365839746
O   O61       1.0  0.02540  0.19470  0.31930  1.0000 -0.7221765276
O   O62       1.0  0.97460  0.69470  0.18070  1.0000 -0.7221765276
O   O63       1.0  0.97460  0.80530  0.68070  1.0000 -0.7221765276
O   O64       1.0  0.02540  0.30530  0.81930  1.0000 -0.7221765276
O   O65       1.0  0.15050  0.20454  0.30030  1.0000 -0.6802442651
O   O66       1.0  0.84950  0.70454  0.19970  1.0000 -0.6802442651
O   O67       1.0  0.84950  0.79546  0.69970  1.0000 -0.6802442651
O   O68       1.0  0.15050  0.29546  0.80030  1.0000 -0.6802442651
O   O69       1.0  0.08810  0.41215  0.38260  1.0000 -0.2196289857
O   O70       1.0  0.91190  0.91215  0.11740  1.0000 -0.2196289857
O   O71       1.0  0.91190  0.58785  0.61740  1.0000 -0.2196289857
O   O72       1.0  0.08810  0.08785  0.88260  1.0000 -0.2196289857
O   O73       1.0  0.20640  0.58809  0.25840  1.0000 -0.7403026502
O   O74       1.0  0.79360  0.08809  0.24160  1.0000 -0.7403026502
O   O75       1.0  0.79360  0.41191  0.74160  1.0000 -0.7403026502
O   O76       1.0  0.20640  0.91191  0.75840  1.0000 -0.7403026502
O   O77       1.0  0.31000  0.58662  0.34850  1.0000 -0.586957803
O   O78       1.0  0.69000  0.08662  0.15150  1.0000 -0.586957803
O   O79       1.0  0.69000  0.41338  0.65150  1.0000 -0.586957803
O   O80       1.0  0.31000  0.91338  0.84850  1.0000 -0.586957803
O   O81       1.0  0.00360  0.07979  0.32680  1.0000 -0.7030677503
O   O82       1.0  0.99640  0.57979  0.17320  1.0000 -0.7030677503
O   O83       1.0  0.99640  0.92021  0.67320  1.0000 -0.7030677503
O   O84       1.0  0.00360  0.42021  0.82680  1.0000 -0.7030677503
O   O85       1.0  0.14830  0.07741  0.33980  1.0000 -0.6913979177
O   O86       1.0  0.85170  0.57741  0.16020  1.0000 -0.6913979177
O   O87       1.0  0.85170  0.92259  0.66020  1.0000 -0.6913979177
O   O88       1.0  0.14830  0.42259  0.83980  1.0000 -0.6913979177
O   O89       1.0  0.06390  0.86223  0.37620  1.0000 -0.2196289857
O   O90       1.0  0.93610  0.36223  0.12380  1.0000 -0.2196289857
O   O91       1.0  0.93610  0.13777  0.62380  1.0000 -0.2196289857
O   O92       1.0  0.06390  0.63777  0.87620  1.0000 -0.2196289857
O   O93       1.0  0.20547  0.69098  0.26237  1.0000 -0.7469056975
O   O94       1.0  0.79453  0.19098  0.23763  1.0000 -0.7469056975
O   O95       1.0  0.79453  0.30902  0.73763  1.0000 -0.7469056975
O   O96       1.0  0.20547  0.80902  0.76237  1.0000 -0.7469056975
O   O97       1.0  0.30900  0.69285  0.35160  1.0000 -0.5828985528
O   O98       1.0  0.69100  0.19285  0.14840  1.0000 -0.5828985528
O   O99       1.0  0.69100  0.30715  0.64840  1.0000 -0.5828985528
O   O100      1.0  0.30900  0.80715  0.85160  1.0000 -0.5828985528
O   O101      1.0  0.06870  0.12690  0.22050  1.0000 -0.6591771226
O   O102      1.0  0.93130  0.62690  0.27950  1.0000 -0.6591771226
O   O103      1.0  0.93130  0.87310  0.77950  1.0000 -0.6591771226
O   O104      1.0  0.06870  0.37310  0.72050  1.0000 -0.6591771226
O   O105      1.0  0.92770  0.13739  0.21170  1.0000 -0.6365839746
O   O106      1.0  0.07230  0.63739  0.28830  1.0000 -0.6365839746
O   O107      1.0  0.07230  0.86261  0.78830  1.0000 -0.6365839746
O   O108      1.0  0.92770  0.36261  0.71170  1.0000 -0.6365839746
O   O109      1.0  0.88560  0.11330  0.94130  1.0000 -0.2293797899
O   O110      1.0  0.11440  0.61330  0.55870  1.0000 -0.2293797899
O   O111      1.0  0.11440  0.88670  0.05870  1.0000 -0.2293797899
O   O112      1.0  0.88560  0.38670  0.44130  1.0000 -0.2293797899
O   O113      1.0  0.70510  0.92464  0.81320  1.0000 -0.6802442651
O   O114      1.0  0.29490  0.42464  0.68680  1.0000 -0.6802442651
O   O115      1.0  0.29490  0.07536  0.18680  1.0000 -0.6802442651
O   O116      1.0  0.70510  0.57536  0.31320  1.0000 -0.6802442651
O   O117      1.0  0.78770  0.94085  0.75930  1.0000 -0.6484050359
O   O118      1.0  0.21230  0.44085  0.74070  1.0000 -0.6484050359
O   O119      1.0  0.21230  0.05915  0.24070  1.0000 -0.6484050359
O   O120      1.0  0.78770  0.55915  0.25930  1.0000 -0.6484050359
