# DDEC6 charges by PACMAN v1.1 (https://github.com/mtap-research/PACMAN-charge/)
data_2015[Cu][nan]3[ASR]15
_chemical_formula_sum              "Cu10 H40 C80 N24 O32"
_cell_length_a       12.0262
_cell_length_b       12.0262
_cell_length_c       20.8881
_cell_angle_alpha    105.46
_cell_angle_beta     105.46
_cell_angle_gamma    94.2457

_symmetry_space_group_name_H-M    "P 1"
_symmetry_Int_Tables_number       1

loop_
  _symmetry_equiv_pos_as_xyz
  'x, y, z'

loop_
  _atom_site_type_symbol
  _atom_site_label
  _atom_site_symmetry_multiplicity
  _atom_site_fract_x
  _atom_site_fract_y
  _atom_site_fract_z
  _atom_site_occupancy
  _atom_site_charge
Cu  Cu1       1.0  0.20076  0.80076  0.00944  1.0000 0.6475665048
Cu  Cu2       1.0  0.79924  0.19924  0.99056  1.0000 0.6475665048
Cu  Cu3       1.0  0.69924  0.29924  0.49056  1.0000 0.6475665048
Cu  Cu4       1.0  0.30076  0.70076  0.50944  1.0000 0.6475665048
Cu  Cu5       1.0  0.30867  0.20868  0.00944  1.0000 0.6475665048
Cu  Cu6       1.0  0.69133  0.79132  0.99056  1.0000 0.6475665048
Cu  Cu7       1.0  0.29132  0.19133  0.49056  1.0000 0.6475665048
Cu  Cu8       1.0  0.70868  0.80867  0.50944  1.0000 0.6475665048
Cu  Cu9       1.0  0.37500  0.12500  0.25000  1.0000 0.3397757933
Cu  Cu10      1.0  0.62500  0.87500  0.75000  1.0000 0.3397757933
H   H1        1.0  0.31053  0.55039  0.82816  1.0000 0.3615841195
H   H2        1.0  0.68947  0.44961  0.17184  1.0000 0.3615841195
H   H3        1.0  0.94961  0.18947  0.67184  1.0000 0.3615841195
H   H4        1.0  0.05039  0.81053  0.32816  1.0000 0.3615841195
H   H5        1.0  0.01763  0.27777  0.82816  1.0000 0.3615841195
H   H6        1.0  0.98237  0.72223  0.17184  1.0000 0.3615841195
H   H7        1.0  0.22223  0.48237  0.67184  1.0000 0.3615841195
H   H8        1.0  0.77777  0.51763  0.32816  1.0000 0.3615841195
H   H9        1.0  0.34515  0.95007  0.11218  1.0000 0.0682781563
H   H10       1.0  0.65485  0.04993  0.88782  1.0000 0.0682781563
H   H11       1.0  0.54993  0.15485  0.38782  1.0000 0.0682781563
H   H12       1.0  0.45007  0.84515  0.61218  1.0000 0.0682781563
H   H13       1.0  0.26703  0.16211  0.11218  1.0000 0.0682781563
H   H14       1.0  0.73297  0.83789  0.88782  1.0000 0.0682781563
H   H15       1.0  0.33789  0.23297  0.38782  1.0000 0.0682781563
H   H16       1.0  0.66211  0.76703  0.61218  1.0000 0.0682781563
H   H17       1.0  0.68107  0.98233  0.07302  1.0000 0.079900086
H   H18       1.0  0.31893  0.01767  0.92698  1.0000 0.079900086
H   H19       1.0  0.51767  0.81893  0.42698  1.0000 0.079900086
H   H20       1.0  0.48233  0.18107  0.57302  1.0000 0.079900086
H   H21       1.0  0.89194  0.09069  0.07302  1.0000 0.079900086
H   H22       1.0  0.10806  0.90931  0.92698  1.0000 0.079900086
H   H23       1.0  0.40931  0.60806  0.42698  1.0000 0.079900086
H   H24       1.0  0.59069  0.39194  0.57302  1.0000 0.079900086
H   H25       1.0  0.75378  0.14640  0.18606  1.0000 0.1283126399
H   H26       1.0  0.24622  0.85360  0.81394  1.0000 0.1283126399
H   H27       1.0  0.35360  0.74622  0.31394  1.0000 0.1283126399
H   H28       1.0  0.64640  0.25378  0.68606  1.0000 0.1283126399
H   H29       1.0  0.93228  0.03965  0.18606  1.0000 0.1283126399
H   H30       1.0  0.06772  0.96035  0.81394  1.0000 0.1283126399
H   H31       1.0  0.46035  0.56772  0.31394  1.0000 0.1283126399
H   H32       1.0  0.53965  0.43228  0.68606  1.0000 0.1283126399
H   H33       1.0  0.61890  0.20366  0.25631  1.0000 0.1039983649
H   H34       1.0  0.38110  0.79634  0.74369  1.0000 0.1039983649
H   H35       1.0  0.29634  0.88110  0.24369  1.0000 0.1039983649
H   H36       1.0  0.70366  0.11890  0.75631  1.0000 0.1039983649
H   H37       1.0  0.13741  0.05265  0.25631  1.0000 0.1039983649
H   H38       1.0  0.86259  0.94735  0.74369  1.0000 0.1039983649
H   H39       1.0  0.44735  0.36259  0.24369  1.0000 0.1039983649
H   H40       1.0  0.55265  0.63741  0.75631  1.0000 0.1039983649
C   C1        1.0  0.46208  0.85621  0.02020  1.0000 0.3174275384
C   C2        1.0  0.53792  0.14379  0.97980  1.0000 0.3174275384
C   C3        1.0  0.64379  0.03792  0.47980  1.0000 0.3174275384
C   C4        1.0  0.35621  0.96208  0.52020  1.0000 0.3174275384
C   C5        1.0  0.05812  0.16398  0.02020  1.0000 0.3174275384
C   C6        1.0  0.94188  0.83602  0.97980  1.0000 0.3174275384
C   C7        1.0  0.33602  0.44188  0.47980  1.0000 0.3174275384
C   C8        1.0  0.66398  0.55812  0.52020  1.0000 0.3174275384
C   C9        1.0  0.34566  0.71546  0.93157  1.0000 -0.0341947059
C   C10       1.0  0.65434  0.28454  0.06843  1.0000 -0.0341947059
C   C11       1.0  0.78454  0.15434  0.56843  1.0000 -0.0341947059
C   C12       1.0  0.21546  0.84566  0.43157  1.0000 -0.0341947059
C   C13       1.0  0.08592  0.21612  0.93157  1.0000 -0.0341947059
C   C14       1.0  0.91408  0.78388  0.06843  1.0000 -0.0341947059
C   C15       1.0  0.28388  0.41408  0.56843  1.0000 -0.0341947059
C   C16       1.0  0.71612  0.58592  0.43157  1.0000 -0.0341947059
C   C17       1.0  0.45862  0.71670  0.92637  1.0000 0.000856409
C   C18       1.0  0.54138  0.28330  0.07363  1.0000 0.000856409
C   C19       1.0  0.78330  0.04138  0.57363  1.0000 0.000856409
C   C20       1.0  0.21670  0.95862  0.42637  1.0000 0.000856409
C   C21       1.0  0.96775  0.20967  0.92637  1.0000 0.000856409
C   C22       1.0  0.03225  0.79033  0.07363  1.0000 0.000856409
C   C23       1.0  0.29033  0.53225  0.57363  1.0000 0.000856409
C   C24       1.0  0.70967  0.46775  0.42637  1.0000 0.000856409
C   C25       1.0  0.43582  0.99291  0.12582  1.0000 0.0563166244
C   C26       1.0  0.56418  0.00709  0.87418  1.0000 0.0563166244
C   C27       1.0  0.50709  0.06418  0.37418  1.0000 0.0563166244
C   C28       1.0  0.49291  0.93582  0.62582  1.0000 0.0563166244
C   C29       1.0  0.19000  0.13291  0.12582  1.0000 0.0563166244
C   C30       1.0  0.81000  0.86709  0.87418  1.0000 0.0563166244
C   C31       1.0  0.36709  0.31000  0.37418  1.0000 0.0563166244
C   C32       1.0  0.63291  0.69000  0.62582  1.0000 0.0563166244
C   C33       1.0  0.50705  0.95385  0.08357  1.0000 -0.0188451518
C   C34       1.0  0.49295  0.04615  0.91643  1.0000 -0.0188451518
C   C35       1.0  0.54615  0.99295  0.41643  1.0000 -0.0188451518
C   C36       1.0  0.45385  0.00705  0.58357  1.0000 -0.0188451518
C   C37       1.0  0.07651  0.12972  0.08357  1.0000 -0.0188451518
C   C38       1.0  0.92349  0.87028  0.91643  1.0000 -0.0188451518
C   C39       1.0  0.37028  0.42349  0.41643  1.0000 -0.0188451518
C   C40       1.0  0.62972  0.57651  0.58357  1.0000 -0.0188451518
C   C41       1.0  0.62363  0.01032  0.10512  1.0000 -0.0549480132
C   C42       1.0  0.37637  0.98968  0.89488  1.0000 -0.0559078167
C   C43       1.0  0.48968  0.87637  0.39488  1.0000 -0.0559078167
C   C44       1.0  0.51032  0.12363  0.60512  1.0000 -0.0559078167
C   C45       1.0  0.98149  0.09480  0.10512  1.0000 -0.0559078167
C   C46       1.0  0.01851  0.90520  0.89488  1.0000 -0.0559078167
C   C47       1.0  0.40520  0.51851  0.39488  1.0000 -0.0559078167
C   C48       1.0  0.59480  0.48149  0.60512  1.0000 -0.0559078167
C   C49       1.0  0.66394  0.10065  0.16718  1.0000 -0.1031241305
C   C50       1.0  0.33606  0.89935  0.83282  1.0000 -0.1031241305
C   C51       1.0  0.39935  0.83606  0.33282  1.0000 -0.1031241305
C   C52       1.0  0.60065  0.16394  0.66718  1.0000 -0.1031241305
C   C53       1.0  0.00324  0.06653  0.16718  1.0000 -0.1031241305
C   C54       1.0  0.99676  0.93347  0.83282  1.0000 -0.1031241305
C   C55       1.0  0.43347  0.49676  0.33282  1.0000 -0.1031241305
C   C56       1.0  0.56653  0.50324  0.66718  1.0000 -0.1031241305
C   C57       1.0  0.58832  0.13387  0.20679  1.0000 0.0936676488
C   C58       1.0  0.41168  0.86613  0.79321  1.0000 0.0936676488
C   C59       1.0  0.36613  0.91168  0.29321  1.0000 0.0936676488
C   C60       1.0  0.63387  0.08832  0.70679  1.0000 0.0936676488
C   C61       1.0  0.11848  0.07293  0.20679  1.0000 0.0936676488
C   C62       1.0  0.88152  0.92707  0.79321  1.0000 0.0936676488
C   C63       1.0  0.42707  0.38152  0.29321  1.0000 0.0936676488
C   C64       1.0  0.57293  0.61848  0.70679  1.0000 0.0936676488
C   C65       1.0  0.23332  0.64385  0.88950  1.0000 0.5706486032
C   C66       1.0  0.76668  0.35615  0.11050  1.0000 0.5706486032
C   C67       1.0  0.85615  0.26668  0.61050  1.0000 0.5706486032
C   C68       1.0  0.14385  0.73332  0.38950  1.0000 0.5706486032
C   C69       1.0  0.15618  0.24565  0.88950  1.0000 0.5706486032
C   C70       1.0  0.84382  0.75435  0.11050  1.0000 0.5706486032
C   C71       1.0  0.25435  0.34382  0.61050  1.0000 0.5706486032
C   C72       1.0  0.74565  0.65618  0.38950  1.0000 0.5706486032
C   C73       1.0  0.50999  0.64525  0.87587  1.0000 0.5486327112
C   C74       1.0  0.49001  0.35475  0.12413  1.0000 0.5486327112
C   C75       1.0  0.85475  0.99001  0.62413  1.0000 0.5486327112
C   C76       1.0  0.14525  0.00999  0.37587  1.0000 0.5486327112
C   C77       1.0  0.86588  0.23062  0.87587  1.0000 0.5486327112
C   C78       1.0  0.13412  0.76938  0.12413  1.0000 0.5486327112
C   C79       1.0  0.26938  0.63412  0.62413  1.0000 0.5486327112
C   C80       1.0  0.73062  0.36588  0.37587  1.0000 0.5486327112
N   N1        1.0  0.34801  0.80386  0.99069  1.0000 -0.3595595918
N   N2        1.0  0.65199  0.19614  0.00931  1.0000 -0.3595595918
N   N3        1.0  0.69614  0.15199  0.50931  1.0000 -0.3595595918
N   N4        1.0  0.30386  0.84801  0.49069  1.0000 -0.3595595918
N   N5        1.0  0.14268  0.18683  0.99069  1.0000 -0.3595595918
N   N6        1.0  0.85732  0.81317  0.00931  1.0000 -0.3595595918
N   N7        1.0  0.31317  0.35732  0.50931  1.0000 -0.3595595918
N   N8        1.0  0.68683  0.64268  0.49069  1.0000 -0.3595595918
N   N9        1.0  0.53095  0.80531  0.98155  1.0000 -0.3501032813
N   N10       1.0  0.46905  0.19469  0.01845  1.0000 -0.3501032813
N   N11       1.0  0.69469  0.96905  0.51845  1.0000 -0.3501032813
N   N12       1.0  0.30531  0.03095  0.48155  1.0000 -0.3501032813
N   N13       1.0  0.95061  0.17624  0.98155  1.0000 -0.3501032813
N   N14       1.0  0.04939  0.82376  0.01845  1.0000 -0.3501032813
N   N15       1.0  0.32376  0.54939  0.51845  1.0000 -0.3501032813
N   N16       1.0  0.67624  0.45061  0.48155  1.0000 -0.3501032813
N   N17       1.0  0.47497  0.08109  0.18630  1.0000 -0.2098765019
N   N18       1.0  0.52503  0.91891  0.81370  1.0000 -0.2098765019
N   N19       1.0  0.41891  0.02503  0.31370  1.0000 -0.2098765019
N   N20       1.0  0.58109  0.97497  0.68630  1.0000 -0.2098765019
N   N21       1.0  0.21132  0.10521  0.18630  1.0000 -0.2098765019
N   N22       1.0  0.78868  0.89479  0.81370  1.0000 -0.2098765019
N   N23       1.0  0.39479  0.28868  0.31370  1.0000 -0.2098765019
N   N24       1.0  0.60521  0.71132  0.68630  1.0000 -0.2098765019
O   O1        1.0  0.14359  0.66972  0.90699  1.0000 -0.4838388785
O   O2        1.0  0.85641  0.33028  0.09301  1.0000 -0.4838388785
O   O3        1.0  0.83028  0.35641  0.59301  1.0000 -0.4838388785
O   O4        1.0  0.16972  0.64359  0.40699  1.0000 -0.4838388785
O   O5        1.0  0.26339  0.23727  0.90699  1.0000 -0.4838388785
O   O6        1.0  0.73661  0.76273  0.09301  1.0000 -0.4838388785
O   O7        1.0  0.26273  0.23661  0.59301  1.0000 -0.4838388785
O   O8        1.0  0.73727  0.76339  0.40699  1.0000 -0.4838388785
O   O9        1.0  0.22888  0.55469  0.83534  1.0000 -0.4192417785
O   O10       1.0  0.77112  0.44531  0.16466  1.0000 -0.4192417785
O   O11       1.0  0.94531  0.27112  0.66466  1.0000 -0.4192417785
O   O12       1.0  0.05469  0.72888  0.33534  1.0000 -0.4192417785
O   O13       1.0  0.10646  0.28065  0.83534  1.0000 -0.4192417785
O   O14       1.0  0.89354  0.71935  0.16466  1.0000 -0.4192417785
O   O15       1.0  0.21935  0.39354  0.66466  1.0000 -0.4192417785
O   O16       1.0  0.78065  0.60646  0.33534  1.0000 -0.4192417785
O   O17       1.0  0.62221  0.67332  0.88990  1.0000 -0.52842924
O   O18       1.0  0.37779  0.32668  0.11010  1.0000 -0.52842924
O   O19       1.0  0.82668  0.87779  0.61010  1.0000 -0.52842924
O   O20       1.0  0.17332  0.12221  0.38990  1.0000 -0.52842924
O   O21       1.0  0.76769  0.21658  0.88990  1.0000 -0.52842924
O   O22       1.0  0.23231  0.78342  0.11010  1.0000 -0.52842924
O   O23       1.0  0.28342  0.73231  0.61010  1.0000 -0.52842924
O   O24       1.0  0.71658  0.26769  0.38990  1.0000 -0.52842924
O   O25       1.0  0.44373  0.56575  0.82364  1.0000 -0.4991322531
O   O26       1.0  0.55627  0.43425  0.17636  1.0000 -0.4991322531
O   O27       1.0  0.93425  0.05627  0.67636  1.0000 -0.4991322531
O   O28       1.0  0.06575  0.94373  0.32364  1.0000 -0.4991322531
O   O29       1.0  0.87990  0.25789  0.82364  1.0000 -0.4991322531
O   O30       1.0  0.12010  0.74211  0.17636  1.0000 -0.4991322531
O   O31       1.0  0.24211  0.62010  0.67636  1.0000 -0.4991322531
O   O32       1.0  0.75789  0.37990  0.32364  1.0000 -0.4991322531
