# DDEC6 charges by PACMAN v1.1 (https://github.com/mtap-research/PACMAN-charge/)
data_2015[Cu][pcu]3[ASR]2
_chemical_formula_sum              "Cu2 H16 C22 N6"
_cell_length_a       9.489
_cell_length_b       12.76
_cell_length_c       13.117
_cell_angle_alpha    75.88
_cell_angle_beta     72.93
_cell_angle_gamma    69.65

_symmetry_space_group_name_H-M    "P 1"
_symmetry_Int_Tables_number       1

loop_
  _symmetry_equiv_pos_as_xyz
  'x, y, z'

loop_
  _atom_site_type_symbol
  _atom_site_label
  _atom_site_symmetry_multiplicity
  _atom_site_fract_x
  _atom_site_fract_y
  _atom_site_fract_z
  _atom_site_occupancy
  _atom_site_charge
Cu  Cu1       1.0  0.74626  0.46285  0.05426  1.0000 0.2492908782
Cu  Cu2       1.0  0.25374  0.53715  0.94574  1.0000 0.2438007987
H   H1        1.0  0.14910  0.59760  0.72960  1.0000 0.1016329753
H   H2        1.0  0.85090  0.40240  0.27040  1.0000 0.1016329753
H   H3        1.0  0.24580  0.58210  0.54980  1.0000 0.1261727135
H   H4        1.0  0.75420  0.41790  0.45020  1.0000 0.1261727135
H   H5        1.0  0.66100  0.42990  0.60970  1.0000 0.1261727135
H   H6        1.0  0.33900  0.57010  0.39030  1.0000 0.1261727135
H   H7        1.0  0.55300  0.44630  0.78710  1.0000 0.1198866152
H   H8        1.0  0.44700  0.55370  0.21290  1.0000 0.1198866152
H   H9        1.0  0.86940  0.93530  0.92360  1.0000 0.1261727135
H   H10       1.0  0.13060  0.06470  0.07640  1.0000 0.1261727135
H   H11       1.0  0.98300  0.75220  0.89160  1.0000 0.1016329753
H   H12       1.0  0.01700  0.24780  0.10840  1.0000 0.1016329753
H   H13       1.0  0.33460  0.72440  0.99930  1.0000 0.1198866152
H   H14       1.0  0.66540  0.27560  0.00070  1.0000 0.1198866152
H   H15       1.0  0.22710  0.90390  0.04080  1.0000 0.1198866152
H   H16       1.0  0.77290  0.09610  0.95920  1.0000 0.1198866152
C   C1        1.0  0.25410  0.56280  0.70570  1.0000 0.0612152463
C   C2        1.0  0.74590  0.43720  0.29430  1.0000 0.0612152463
C   C3        1.0  0.31190  0.55390  0.59690  1.0000 -0.1974926831
C   C4        1.0  0.68810  0.44610  0.40310  1.0000 -0.1974926831
C   C5        1.0  0.46550  0.50390  0.55890  1.0000 0.0919022376
C   C6        1.0  0.53450  0.49610  0.44110  1.0000 0.0919022376
C   C7        1.0  0.55540  0.46430  0.63170  1.0000 -0.1974926831
C   C8        1.0  0.44460  0.53570  0.36830  1.0000 -0.1974926831
C   C9        1.0  0.48900  0.47540  0.73870  1.0000 0.06849275
C   C10       1.0  0.51100  0.52460  0.26130  1.0000 0.06849275
C   C11       1.0  0.96450  0.05730  0.01480  1.0000 0.0919022376
C   C12       1.0  0.03550  0.94270  0.98520  1.0000 0.0919022376
C   C13       1.0  0.03590  0.10580  0.05940  1.0000 -0.1974926831
C   C14       1.0  0.96410  0.89420  0.94060  1.0000 -0.1974926831
C   C15       1.0  0.96580  0.21660  0.07880  1.0000 0.06849275
C   C16       1.0  0.03420  0.78340  0.92120  1.0000 0.06849275
C   C17       1.0  0.23870  0.76660  0.98480  1.0000 0.0764969311
C   C18       1.0  0.76130  0.23340  0.01520  1.0000 0.0764969311
C   C19       1.0  0.17540  0.87570  0.00880  1.0000 -0.1974926831
C   C20       1.0  0.82460  0.12430  0.99120  1.0000 -0.1974926831
C   C21       1.0  0.55650  0.49690  0.00910  1.0000 -0.4034200364
C   C22       1.0  0.44350  0.50310  0.99090  1.0000 -0.4034200364
N   N1        1.0  0.34160  0.52410  0.77730  1.0000 -0.1901909427
N   N2        1.0  0.65840  0.47590  0.22270  1.0000 -0.1901909427
N   N3        1.0  0.83000  0.28100  0.05790  1.0000 -0.1901909427
N   N4        1.0  0.17000  0.71900  0.94210  1.0000 -0.1901909427
N   N5        1.0  0.06120  0.50370  0.98760  1.0000 -0.075071519
N   N6        1.0  0.93880  0.49630  0.01240  1.0000 -0.0703670287
