# DDEC6 charges by PACMAN v1.1 (https://github.com/mtap-research/PACMAN-charge/)
data_2015[Co][ths]3[ASR]1
_chemical_formula_sum              "Co8 H236 C272 N32 O48"
_cell_length_a       20.2626
_cell_length_b       20.2626
_cell_length_c       33.945
_cell_angle_alpha    71.0552
_cell_angle_beta     108.945
_cell_angle_gamma    141.215

_symmetry_space_group_name_H-M    "P 1"
_symmetry_Int_Tables_number       1

loop_
  _symmetry_equiv_pos_as_xyz
  'x, y, z'

loop_
  _atom_site_type_symbol
  _atom_site_label
  _atom_site_symmetry_multiplicity
  _atom_site_fract_x
  _atom_site_fract_y
  _atom_site_fract_z
  _atom_site_occupancy
  _atom_site_charge
Co  Co1       1.0  0.69416  0.67494  0.54214  1.0000 0.7897005631
Co  Co2       1.0  0.32506  0.30584  0.04214  1.0000 0.7897005631
Co  Co3       1.0  0.90773  0.32823  0.96733  1.0000 0.7703461899
Co  Co4       1.0  0.67177  0.09227  0.46733  1.0000 0.7703461899
Co  Co5       1.0  0.67494  0.69416  0.95786  1.0000 0.7897005631
Co  Co6       1.0  0.30584  0.32506  0.45786  1.0000 0.7897005631
Co  Co7       1.0  0.32823  0.90773  0.53267  1.0000 0.7703461899
Co  Co8       1.0  0.09227  0.67177  0.03267  1.0000 0.7703461899
H   H1        1.0  0.79940  0.60300  0.54400  1.0000 0.342979054
H   H2        1.0  0.39700  0.20060  0.04400  1.0000 0.342979054
H   H3        1.0  0.84710  0.36610  0.84320  1.0000 0.3490623785
H   H4        1.0  0.63390  0.15290  0.34320  1.0000 0.3490623785
H   H5        1.0  0.55770  0.61590  0.45480  1.0000 0.2872716142
H   H6        1.0  0.38410  0.44230  0.95480  1.0000 0.2872716142
H   H7        1.0  0.87450  0.65990  0.64930  1.0000 0.342979054
H   H8        1.0  0.34010  0.12550  0.14930  1.0000 0.342979054
H   H9        1.0  0.00850  0.61370  0.51870  1.0000 0.1297545585
H   H10       1.0  0.38630  0.99150  0.01870  1.0000 0.1297545585
H   H11       1.0  0.97830  0.62590  0.55060  1.0000 0.0987314312
H   H12       1.0  0.37410  0.02170  0.05060  1.0000 0.0987314312
H   H13       1.0  0.90670  0.56530  0.73290  1.0000 0.1203951031
H   H14       1.0  0.43470  0.09330  0.23290  1.0000 0.1203951031
H   H15       1.0  0.81920  0.44780  0.75330  1.0000 0.1203951031
H   H16       1.0  0.55220  0.18080  0.25330  1.0000 0.1203951031
H   H17       1.0  0.01530  0.12930  0.47880  1.0000 0.1203951031
H   H18       1.0  0.87070  0.98470  0.97880  1.0000 0.1203951031
H   H19       1.0  0.03490  0.16850  0.51840  1.0000 0.1120109773
H   H20       1.0  0.83150  0.96510  0.01840  1.0000 0.1120109773
H   H21       1.0  0.87700  0.85400  0.59890  1.0000 0.2843477829
H   H22       1.0  0.14600  0.12300  0.09890  1.0000 0.2843477829
H   H23       1.0  0.69890  0.18190  0.58280  1.0000 0.1203951031
H   H24       1.0  0.81810  0.30110  0.08280  1.0000 0.1203951031
H   H25       1.0  0.91030  0.55770  0.60500  1.0000 0.1120109773
H   H26       1.0  0.44230  0.08970  0.10500  1.0000 0.1120109773
H   H27       1.0  0.02680  0.64120  0.45770  1.0000 0.1203951031
H   H28       1.0  0.35880  0.97320  0.95770  1.0000 0.1203951031
H   H29       1.0  0.45470  0.61190  0.39270  1.0000 0.1571552968
H   H30       1.0  0.38810  0.54530  0.89270  1.0000 0.1571552968
H   H31       1.0  0.35100  0.55860  0.40440  1.0000 0.1571552968
H   H32       1.0  0.44140  0.64900  0.90440  1.0000 0.1571552968
H   H33       1.0  0.44700  0.68220  0.39420  1.0000 0.1571552968
H   H34       1.0  0.31780  0.55300  0.89420  1.0000 0.1571552968
H   H35       1.0  0.83440  0.67660  0.35260  1.0000 0.1120109773
H   H36       1.0  0.32340  0.16560  0.85260  1.0000 0.1120109773
H   H37       1.0  0.75270  0.64290  0.40720  1.0000 0.1203951031
H   H38       1.0  0.35710  0.24730  0.90720  1.0000 0.1203951031
H   H39       1.0  0.07570  0.80110  0.87450  1.0000 0.1297545585
H   H40       1.0  0.19890  0.92430  0.37450  1.0000 0.1297545585
H   H41       1.0  0.73780  0.81220  0.46290  1.0000 0.1420715097
H   H42       1.0  0.18780  0.26220  0.96290  1.0000 0.1420715097
H   H43       1.0  0.76030  0.90890  0.45480  1.0000 0.1491446331
H   H44       1.0  0.09110  0.23970  0.95480  1.0000 0.1491446331
H   H45       1.0  0.84460  0.92520  0.44680  1.0000 0.1491446331
H   H46       1.0  0.07480  0.15540  0.94680  1.0000 0.1491446331
H   H47       1.0  0.68890  0.19890  0.64710  1.0000 0.1203951031
H   H48       1.0  0.80110  0.31110  0.14710  1.0000 0.1203951031
H   H49       1.0  0.95010  0.69270  0.33700  1.0000 0.1120109773
H   H50       1.0  0.30730  0.04990  0.83700  1.0000 0.1120109773
H   H51       1.0  0.94340  0.70960  0.73870  1.0000 0.1203951031
H   H52       1.0  0.29040  0.05660  0.23870  1.0000 0.1203951031
H   H53       1.0  0.84270  0.47890  0.66800  1.0000 0.1203951031
H   H54       1.0  0.52110  0.15730  0.16800  1.0000 0.1203951031
H   H55       1.0  0.00510  0.63370  0.90080  1.0000 0.1297545585
H   H56       1.0  0.36630  0.99490  0.40080  1.0000 0.1297545585
H   H57       1.0  0.04880  0.68180  0.38920  1.0000 0.1203951031
H   H58       1.0  0.31820  0.95120  0.88920  1.0000 0.1203951031
H   H59       1.0  0.02750  0.86710  0.75070  1.0000 0.1120109773
H   H60       1.0  0.13290  0.97250  0.25070  1.0000 0.1120109773
H   H61       1.0  0.57610  0.65910  0.58100  1.0000 0.1491446331
H   H62       1.0  0.34090  0.42390  0.08100  1.0000 0.1491446331
H   H63       1.0  0.55490  0.72370  0.56290  1.0000 0.1491446331
H   H64       1.0  0.27630  0.44510  0.06290  1.0000 0.1491446331
H   H65       1.0  0.45990  0.60010  0.57340  1.0000 0.1491446331
H   H66       1.0  0.39990  0.54010  0.07340  1.0000 0.1491446331
H   H67       1.0  0.56650  0.49330  0.66480  1.0000 0.1297545585
H   H68       1.0  0.50670  0.43350  0.16480  1.0000 0.1297545585
H   H69       1.0  0.73700  0.30320  0.69020  1.0000 0.1203951031
H   H70       1.0  0.69680  0.26300  0.19020  1.0000 0.1203951031
H   H71       1.0  0.45610  0.37390  0.72390  1.0000 0.1297545585
H   H72       1.0  0.62610  0.54390  0.22390  1.0000 0.1297545585
H   H73       1.0  0.01260  0.01640  0.62680  1.0000 0.1491446331
H   H74       1.0  0.98360  0.98740  0.12680  1.0000 0.1491446331
H   H75       1.0  0.09220  0.11240  0.59450  1.0000 0.1571552968
H   H76       1.0  0.88760  0.90780  0.09450  1.0000 0.1571552968
H   H77       1.0  0.00540  0.09160  0.60320  1.0000 0.1491446331
H   H78       1.0  0.90840  0.99460  0.10320  1.0000 0.1491446331
H   H79       1.0  0.09400  0.91540  0.81770  1.0000 0.1120109773
H   H80       1.0  0.08460  0.90600  0.31770  1.0000 0.1120109773
H   H81       1.0  0.69350  0.37750  0.79910  1.0000 0.1203951031
H   H82       1.0  0.62250  0.30650  0.29910  1.0000 0.1203951031
H   H83       1.0  0.54060  0.27680  0.82370  1.0000 0.1297545585
H   H84       1.0  0.72320  0.45940  0.32370  1.0000 0.1297545585
H   H85       1.0  0.42150  0.27110  0.78600  1.0000 0.1203951031
H   H86       1.0  0.72890  0.57850  0.28600  1.0000 0.1203951031
H   H87       1.0  0.81210  0.17030  0.40570  1.0000 0.2872716142
H   H88       1.0  0.82970  0.18790  0.90570  1.0000 0.2872716142
H   H89       1.0  0.77150  0.06630  0.54060  1.0000 0.1491446331
H   H90       1.0  0.93370  0.22850  0.04060  1.0000 0.1491446331
H   H91       1.0  0.78970  0.00110  0.54700  1.0000 0.1491446331
H   H92       1.0  0.99890  0.21030  0.04700  1.0000 0.1491446331
H   H93       1.0  0.88490  0.11910  0.55670  1.0000 0.1491446331
H   H94       1.0  0.88090  0.11510  0.05670  1.0000 0.1491446331
H   H95       1.0  0.92640  0.20260  0.37490  1.0000 0.1491446331
H   H96       1.0  0.79740  0.07360  0.87490  1.0000 0.1491446331
H   H97       1.0  0.02840  0.24900  0.40590  1.0000 0.1571552968
H   H98       1.0  0.75100  0.97160  0.90590  1.0000 0.1571552968
H   H99       1.0  0.93780  0.13040  0.39740  1.0000 0.1571552968
H   H100      1.0  0.86960  0.06220  0.89740  1.0000 0.1571552968
H   H101      1.0  0.33440  0.59660  0.50120  1.0000 0.1120109773
H   H102      1.0  0.40340  0.66560  0.00120  1.0000 0.1120109773
H   H103      1.0  0.34840  0.64020  0.45360  1.0000 0.1120109773
H   H104      1.0  0.35980  0.65160  0.95360  1.0000 0.1120109773
H   H105      1.0  0.52550  0.91710  0.53540  1.0000 0.2843477829
H   H106      1.0  0.08290  0.47450  0.03540  1.0000 0.2843477829
H   H107      1.0  0.33570  0.63550  0.55830  1.0000 0.1491446331
H   H108      1.0  0.36450  0.66430  0.05830  1.0000 0.1491446331
H   H109      1.0  0.42850  0.72950  0.58560  1.0000 0.1420715097
H   H110      1.0  0.27050  0.57150  0.08560  1.0000 0.1420715097
H   H111      1.0  0.33830  0.71410  0.55950  1.0000 0.1670770897
H   H112      1.0  0.28590  0.66170  0.05950  1.0000 0.1670770897
H   H113      1.0  0.61060  0.95140  0.41760  1.0000 0.1420715097
H   H114      1.0  0.04860  0.38940  0.91760  1.0000 0.1420715097
H   H115      1.0  0.59120  0.85600  0.43300  1.0000 0.1420715097
H   H116      1.0  0.14400  0.40880  0.93300  1.0000 0.1420715097
H   H117      1.0  0.49960  0.83760  0.40620  1.0000 0.1491446331
H   H118      1.0  0.16240  0.50040  0.90620  1.0000 0.1491446331
H   H119      1.0  0.60300  0.79940  0.95600  1.0000 0.342979054
H   H120      1.0  0.20060  0.39700  0.45600  1.0000 0.342979054
H   H121      1.0  0.36610  0.84710  0.65680  1.0000 0.3490623785
H   H122      1.0  0.15290  0.63390  0.15680  1.0000 0.3490623785
H   H123      1.0  0.61590  0.55770  0.04520  1.0000 0.2872716142
H   H124      1.0  0.44230  0.38410  0.54520  1.0000 0.2872716142
H   H125      1.0  0.65990  0.87450  0.85070  1.0000 0.342979054
H   H126      1.0  0.12550  0.34010  0.35070  1.0000 0.342979054
H   H127      1.0  0.61370  0.00850  0.98130  1.0000 0.1297545585
H   H128      1.0  0.99150  0.38630  0.48130  1.0000 0.1297545585
H   H129      1.0  0.62590  0.97830  0.94940  1.0000 0.0987314312
H   H130      1.0  0.02170  0.37410  0.44940  1.0000 0.0987314312
H   H131      1.0  0.56530  0.90670  0.76710  1.0000 0.1203951031
H   H132      1.0  0.09330  0.43470  0.26710  1.0000 0.1203951031
H   H133      1.0  0.44780  0.81920  0.74670  1.0000 0.1203951031
H   H134      1.0  0.18080  0.55220  0.24670  1.0000 0.1203951031
H   H135      1.0  0.12930  0.01530  0.02120  1.0000 0.1203951031
H   H136      1.0  0.98470  0.87070  0.52120  1.0000 0.1203951031
H   H137      1.0  0.16850  0.03490  0.98160  1.0000 0.1120109773
H   H138      1.0  0.96510  0.83150  0.48160  1.0000 0.1120109773
H   H139      1.0  0.85400  0.87700  0.90110  1.0000 0.2843477829
H   H140      1.0  0.12300  0.14600  0.40110  1.0000 0.2843477829
H   H141      1.0  0.18190  0.69890  0.91720  1.0000 0.1203951031
H   H142      1.0  0.30110  0.81810  0.41720  1.0000 0.1203951031
H   H143      1.0  0.55770  0.91030  0.89500  1.0000 0.1120109773
H   H144      1.0  0.08970  0.44230  0.39500  1.0000 0.1120109773
H   H145      1.0  0.64120  0.02680  0.04230  1.0000 0.1203951031
H   H146      1.0  0.97320  0.35880  0.54230  1.0000 0.1203951031
H   H147      1.0  0.61190  0.45470  0.10730  1.0000 0.1571552968
H   H148      1.0  0.54530  0.38810  0.60730  1.0000 0.1571552968
H   H149      1.0  0.55860  0.35100  0.09560  1.0000 0.1571552968
H   H150      1.0  0.64900  0.44140  0.59560  1.0000 0.1571552968
H   H151      1.0  0.68220  0.44700  0.10580  1.0000 0.1571552968
H   H152      1.0  0.55300  0.31780  0.60580  1.0000 0.1571552968
H   H153      1.0  0.67660  0.83440  0.14740  1.0000 0.1120109773
H   H154      1.0  0.16560  0.32340  0.64740  1.0000 0.1120109773
H   H155      1.0  0.64290  0.75270  0.09280  1.0000 0.1203951031
H   H156      1.0  0.24730  0.35710  0.59280  1.0000 0.1203951031
H   H157      1.0  0.80110  0.07570  0.62550  1.0000 0.1297545585
H   H158      1.0  0.92430  0.19890  0.12550  1.0000 0.1297545585
H   H159      1.0  0.81220  0.73780  0.03710  1.0000 0.1420715097
H   H160      1.0  0.26220  0.18780  0.53710  1.0000 0.1420715097
H   H161      1.0  0.90890  0.76030  0.04520  1.0000 0.1491446331
H   H162      1.0  0.23970  0.09110  0.54520  1.0000 0.1491446331
H   H163      1.0  0.92520  0.84460  0.05320  1.0000 0.1491446331
H   H164      1.0  0.15540  0.07480  0.55320  1.0000 0.1491446331
H   H165      1.0  0.19890  0.68890  0.85290  1.0000 0.1203951031
H   H166      1.0  0.31110  0.80110  0.35290  1.0000 0.1203951031
H   H167      1.0  0.69270  0.95010  0.16300  1.0000 0.1120109773
H   H168      1.0  0.04990  0.30730  0.66300  1.0000 0.1120109773
H   H169      1.0  0.70960  0.94340  0.76130  1.0000 0.1203951031
H   H170      1.0  0.05660  0.29040  0.26130  1.0000 0.1203951031
H   H171      1.0  0.47890  0.84270  0.83200  1.0000 0.1203951031
H   H172      1.0  0.15730  0.52110  0.33200  1.0000 0.1203951031
H   H173      1.0  0.63370  0.00510  0.59920  1.0000 0.1297545585
H   H174      1.0  0.99490  0.36630  0.09920  1.0000 0.1297545585
H   H175      1.0  0.68180  0.04880  0.11080  1.0000 0.1203951031
H   H176      1.0  0.95120  0.31820  0.61080  1.0000 0.1203951031
H   H177      1.0  0.86710  0.02750  0.74930  1.0000 0.1120109773
H   H178      1.0  0.97250  0.13290  0.24930  1.0000 0.1120109773
H   H179      1.0  0.65910  0.57610  0.91900  1.0000 0.1491446331
H   H180      1.0  0.42390  0.34090  0.41900  1.0000 0.1491446331
H   H181      1.0  0.72370  0.55490  0.93710  1.0000 0.1491446331
H   H182      1.0  0.44510  0.27630  0.43710  1.0000 0.1491446331
H   H183      1.0  0.60010  0.45990  0.92660  1.0000 0.1491446331
H   H184      1.0  0.54010  0.39990  0.42660  1.0000 0.1491446331
H   H185      1.0  0.49330  0.56650  0.83520  1.0000 0.1297545585
H   H186      1.0  0.43350  0.50670  0.33520  1.0000 0.1297545585
H   H187      1.0  0.30320  0.73700  0.80980  1.0000 0.1203951031
H   H188      1.0  0.26300  0.69680  0.30980  1.0000 0.1203951031
H   H189      1.0  0.37390  0.45610  0.77610  1.0000 0.1297545585
H   H190      1.0  0.54390  0.62610  0.27610  1.0000 0.1297545585
H   H191      1.0  0.01640  0.01260  0.87320  1.0000 0.1491446331
H   H192      1.0  0.98740  0.98360  0.37320  1.0000 0.1491446331
H   H193      1.0  0.11240  0.09220  0.90550  1.0000 0.1571552968
H   H194      1.0  0.90780  0.88760  0.40550  1.0000 0.1571552968
H   H195      1.0  0.09160  0.00540  0.89680  1.0000 0.1491446331
H   H196      1.0  0.99460  0.90840  0.39680  1.0000 0.1491446331
H   H197      1.0  0.91540  0.09400  0.68230  1.0000 0.1120109773
H   H198      1.0  0.90600  0.08460  0.18230  1.0000 0.1120109773
H   H199      1.0  0.37750  0.69350  0.70090  1.0000 0.1203951031
H   H200      1.0  0.30650  0.62250  0.20090  1.0000 0.1203951031
H   H201      1.0  0.27680  0.54060  0.67630  1.0000 0.1297545585
H   H202      1.0  0.45940  0.72320  0.17630  1.0000 0.1297545585
H   H203      1.0  0.27110  0.42150  0.71400  1.0000 0.1203951031
H   H204      1.0  0.57850  0.72890  0.21400  1.0000 0.1203951031
H   H205      1.0  0.17030  0.81210  0.09430  1.0000 0.2872716142
H   H206      1.0  0.18790  0.82970  0.59430  1.0000 0.2872716142
H   H207      1.0  0.06630  0.77150  0.95940  1.0000 0.1491446331
H   H208      1.0  0.22850  0.93370  0.45940  1.0000 0.1491446331
H   H209      1.0  0.00110  0.78970  0.95300  1.0000 0.1491446331
H   H210      1.0  0.21030  0.99890  0.45300  1.0000 0.1491446331
H   H211      1.0  0.11910  0.88490  0.94330  1.0000 0.1491446331
H   H212      1.0  0.11510  0.88090  0.44330  1.0000 0.1491446331
H   H213      1.0  0.20260  0.92640  0.12510  1.0000 0.1491446331
H   H214      1.0  0.07360  0.79740  0.62510  1.0000 0.1491446331
H   H215      1.0  0.24900  0.02840  0.09410  1.0000 0.1571552968
H   H216      1.0  0.97160  0.75100  0.59410  1.0000 0.1571552968
H   H217      1.0  0.13040  0.93780  0.10260  1.0000 0.1571552968
H   H218      1.0  0.06220  0.86960  0.60260  1.0000 0.1571552968
H   H219      1.0  0.59660  0.33440  0.99880  1.0000 0.1120109773
H   H220      1.0  0.66560  0.40340  0.49880  1.0000 0.1120109773
H   H221      1.0  0.64020  0.34840  0.04640  1.0000 0.1120109773
H   H222      1.0  0.65160  0.35980  0.54640  1.0000 0.1120109773
H   H223      1.0  0.91710  0.52550  0.96460  1.0000 0.2843477829
H   H224      1.0  0.47450  0.08290  0.46460  1.0000 0.2843477829
H   H225      1.0  0.63550  0.33570  0.94170  1.0000 0.1491446331
H   H226      1.0  0.66430  0.36450  0.44170  1.0000 0.1491446331
H   H227      1.0  0.72950  0.42850  0.91440  1.0000 0.1420715097
H   H228      1.0  0.57150  0.27050  0.41440  1.0000 0.1420715097
H   H229      1.0  0.71410  0.33830  0.94050  1.0000 0.1670770897
H   H230      1.0  0.66170  0.28590  0.44050  1.0000 0.1670770897
H   H231      1.0  0.95140  0.61060  0.08240  1.0000 0.1420715097
H   H232      1.0  0.38940  0.04860  0.58240  1.0000 0.1420715097
H   H233      1.0  0.85600  0.59120  0.06700  1.0000 0.1420715097
H   H234      1.0  0.40880  0.14400  0.56700  1.0000 0.1420715097
H   H235      1.0  0.83760  0.49960  0.09380  1.0000 0.1491446331
H   H236      1.0  0.50040  0.16240  0.59380  1.0000 0.1491446331
C   C1        1.0  0.93259  0.51901  0.86923  1.0000 -0.1642119633
C   C2        1.0  0.48099  0.06741  0.36923  1.0000 -0.1642119633
C   C3        1.0  0.51628  0.64572  0.51960  1.0000 0.19933402
C   C4        1.0  0.35428  0.48372  0.01960  1.0000 0.19933402
C   C5        1.0  0.94953  0.58627  0.52820  1.0000 -0.2404636228
C   C6        1.0  0.41373  0.05047  0.02820  1.0000 -0.2404636228
C   C7        1.0  0.84692  0.40528  0.52170  1.0000 0.2376022293
C   C8        1.0  0.59472  0.15308  0.02170  1.0000 0.2376022293
C   C9        1.0  0.91947  0.44593  0.90486  1.0000 0.5513093723
C   C10       1.0  0.55407  0.08053  0.40486  1.0000 0.5513093723
C   C11       1.0  0.85017  0.51683  0.75040  1.0000 -0.2585342275
C   C12       1.0  0.48317  0.14983  0.25040  1.0000 -0.2585342275
C   C13       1.0  0.89780  0.60720  0.49210  1.0000 -0.0243149521
C   C14       1.0  0.39280  0.10220  0.99210  1.0000 -0.0243149521
C   C15       1.0  0.72168  0.63032  0.47860  1.0000 0.5663511409
C   C16       1.0  0.36968  0.27832  0.97860  1.0000 0.5663511409
C   C17       1.0  0.78344  0.62396  0.46900  1.0000 -0.1503278337
C   C18       1.0  0.37604  0.21656  0.96900  1.0000 -0.1503278337
C   C19       1.0  0.83793  0.60867  0.50120  1.0000 0.19933402
C   C20       1.0  0.39133  0.16207  0.00120  1.0000 0.19933402
C   C21       1.0  0.72250  0.61870  0.62150  1.0000 0.5392676024
C   C22       1.0  0.38130  0.27750  0.12150  1.0000 0.5392676024
C   C23       1.0  0.98022  0.11438  0.49950  1.0000 -0.2156191812
C   C24       1.0  0.88562  0.01978  0.99950  1.0000 -0.2156191812
C   C25       1.0  0.92458  0.00802  0.52430  1.0000 -0.1116339927
C   C26       1.0  0.99198  0.07542  0.02430  1.0000 -0.1116339927
C   C27       1.0  0.89301  0.48979  0.82730  1.0000 0.2180578513
C   C28       1.0  0.51021  0.10699  0.32730  1.0000 0.2180578513
C   C29       1.0  0.91414  0.63146  0.44990  1.0000 0.0494732552
C   C30       1.0  0.36854  0.08586  0.94990  1.0000 0.0494732552
C   C31       1.0  0.87677  0.46963  0.54630  1.0000 -0.013033594
C   C32       1.0  0.53037  0.12323  0.04630  1.0000 -0.013033594
C   C33       1.0  0.77006  0.31594  0.59900  1.0000 0.0494732552
C   C34       1.0  0.68406  0.22994  0.09900  1.0000 0.0494732552
C   C35       1.0  0.95550  0.65530  0.79930  1.0000 0.0494732552
C   C36       1.0  0.34470  0.04450  0.29930  1.0000 0.0494732552
C   C37       1.0  0.84297  0.90963  0.50950  1.0000 0.19933402
C   C38       1.0  0.09037  0.15703  0.00950  1.0000 0.19933402
C   C39       1.0  0.83928  0.42492  0.58620  1.0000 0.0320533617
C   C40       1.0  0.57508  0.16072  0.08620  1.0000 0.0320533617
C   C41       1.0  0.74302  0.25338  0.57370  1.0000 -0.1503278337
C   C42       1.0  0.74662  0.25698  0.07370  1.0000 -0.1503278337
C   C43       1.0  0.70656  0.55944  0.66410  1.0000 -0.1426282106
C   C44       1.0  0.44056  0.29344  0.16410  1.0000 -0.1426282106
C   C45       1.0  0.76620  0.50780  0.72740  1.0000 -0.028878931
C   C46       1.0  0.49220  0.23380  0.22740  1.0000 -0.028878931
C   C47       1.0  0.89941  0.55399  0.79326  1.0000 -0.028878931
C   C48       1.0  0.44601  0.10059  0.29326  1.0000 -0.028878931
C   C49       1.0  0.85760  0.64400  0.41620  1.0000 0.0565217743
C   C50       1.0  0.35600  0.14240  0.91620  1.0000 0.0565217743
C   C51       1.0  0.47100  0.62820  0.45200  1.0000 0.19933402
C   C52       1.0  0.37180  0.52900  0.95200  1.0000 0.19933402
C   C53       1.0  0.86581  0.48579  0.61310  1.0000 -0.1205798583
C   C54       1.0  0.51421  0.13419  0.11310  1.0000 -0.1205798583
C   C55       1.0  0.98750  0.64730  0.43730  1.0000 -0.0902447157
C   C56       1.0  0.35270  0.01250  0.93730  1.0000 -0.0902447157
C   C57       1.0  0.78173  0.56547  0.68830  1.0000 0.19933402
C   C58       1.0  0.43453  0.21827  0.18830  1.0000 0.19933402
C   C59       1.0  0.91022  0.12338  0.47740  1.0000 -0.0902447157
C   C60       1.0  0.87662  0.08978  0.97740  1.0000 -0.0902447157
C   C61       1.0  0.78041  0.29579  0.53590  1.0000 -0.0996186166
C   C62       1.0  0.70421  0.21959  0.03590  1.0000 -0.0996186166
C   C63       1.0  0.42700  0.61940  0.40680  1.0000 -0.4991728077
C   C64       1.0  0.38060  0.57300  0.90680  1.0000 -0.4991728077
C   C65       1.0  0.87110  0.66830  0.37380  1.0000 -0.1678934442
C   C66       1.0  0.33170  0.12890  0.87380  1.0000 -0.1678934442
C   C67       1.0  0.79197  0.63763  0.42810  1.0000 -0.1503278337
C   C68       1.0  0.36237  0.20803  0.92810  1.0000 -0.1503278337
C   C69       1.0  0.99690  0.68550  0.83980  1.0000 0.0565217743
C   C70       1.0  0.31450  0.00310  0.33980  1.0000 0.0565217743
C   C71       1.0  0.04900  0.78260  0.84740  1.0000 -0.1426282106
C   C72       1.0  0.21740  0.95100  0.34740  1.0000 -0.1426282106
C   C73       1.0  0.45396  0.64044  0.48440  1.0000 -0.0996186166
C   C74       1.0  0.35956  0.54604  0.98440  1.0000 -0.0996186166
C   C75       1.0  0.79170  0.88690  0.46430  1.0000 -0.4888430692
C   C76       1.0  0.11310  0.20830  0.96430  1.0000 -0.4888430692
C   C77       1.0  0.73270  0.27050  0.63830  1.0000 -0.1304283905
C   C78       1.0  0.72950  0.26730  0.13830  1.0000 -0.1304283905
C   C79       1.0  0.94480  0.98860  0.56600  1.0000 0.1782531195
C   C80       1.0  0.01140  0.05520  0.06600  1.0000 0.1782531195
C   C81       1.0  0.94150  0.67930  0.36490  1.0000 -0.1116339927
C   C82       1.0  0.32070  0.05850  0.86490  1.0000 -0.1116339927
C   C83       1.0  0.96920  0.72680  0.76600  1.0000 -0.1304283905
C   C84       1.0  0.27320  0.03080  0.26600  1.0000 -0.1304283905
C   C85       1.0  0.82580  0.43840  0.65100  1.0000 -0.0902447157
C   C86       1.0  0.56160  0.17420  0.15100  1.0000 -0.0902447157
C   C87       1.0  0.98150  0.61510  0.87390  1.0000 -0.1304283905
C   C88       1.0  0.38490  0.01850  0.37390  1.0000 -0.1304283905
C   C89       1.0  0.00030  0.67090  0.39650  1.0000 -0.0902447157
C   C90       1.0  0.32910  0.99970  0.89650  1.0000 -0.0902447157
C   C91       1.0  0.01970  0.82110  0.77320  1.0000 -0.0902447157
C   C92       1.0  0.17890  0.98030  0.27320  1.0000 -0.0902447157
C   C93       1.0  0.52780  0.65820  0.56310  1.0000 -0.4735629307
C   C94       1.0  0.34180  0.47220  0.06310  1.0000 -0.4735629307
C   C95       1.0  0.59830  0.43950  0.72160  1.0000 0.0706183342
C   C96       1.0  0.56050  0.40170  0.22160  1.0000 0.0706183342
C   C97       1.0  0.61690  0.49790  0.68050  1.0000 -0.1426282106
C   C98       1.0  0.50210  0.38310  0.18050  1.0000 -0.1426282106
C   C99       1.0  0.76140  0.33300  0.66410  1.0000 -0.0996186166
C   C100      1.0  0.66700  0.23860  0.16410  1.0000 -0.0996186166
C   C101      1.0  0.67170  0.44150  0.74370  1.0000 0.0380231617
C   C102      1.0  0.55850  0.32830  0.24370  1.0000 0.0380231617
C   C103      1.0  0.50420  0.37480  0.73860  1.0000 -0.1426282106
C   C104      1.0  0.62520  0.49580  0.23860  1.0000 -0.1426282106
C   C105      1.0  0.02060  0.05860  0.60080  1.0000 -0.4828933662
C   C106      1.0  0.94140  0.97940  0.10080  1.0000 -0.4828933662
C   C107      1.0  0.06000  0.85080  0.81350  1.0000 -0.0996186166
C   C108      1.0  0.14920  0.94000  0.31350  1.0000 -0.0996186166
C   C109      1.0  0.64690  0.37790  0.78310  1.0000 -0.1304283905
C   C110      1.0  0.62210  0.35310  0.28310  1.0000 -0.1304283905
C   C111      1.0  0.55510  0.31750  0.79760  1.0000 -0.0996186166
C   C112      1.0  0.68250  0.44490  0.29760  1.0000 -0.0996186166
C   C113      1.0  0.48430  0.31490  0.77550  1.0000 -0.0996186166
C   C114      1.0  0.68510  0.51570  0.27550  1.0000 -0.0996186166
C   C115      1.0  0.84409  0.10591  0.49550  1.0000 0.1907825349
C   C116      1.0  0.89409  0.15591  0.99550  1.0000 0.1907825349
C   C117      1.0  0.90061  0.15399  0.43610  1.0000 0.1782531195
C   C118      1.0  0.84601  0.09939  0.93610  1.0000 0.1782531195
C   C119      1.0  0.82056  0.07004  0.53860  1.0000 -0.4828933662
C   C120      1.0  0.92996  0.17944  0.03860  1.0000 -0.4828933662
C   C121      1.0  0.95300  0.18700  0.40040  1.0000 -0.4991728077
C   C122      1.0  0.81300  0.04700  0.90040  1.0000 -0.4991728077
C   C123      1.0  0.74784  0.22496  0.50900  1.0000 0.5392676024
C   C124      1.0  0.77504  0.25216  0.00900  1.0000 0.5392676024
C   C125      1.0  0.38651  0.65149  0.48160  1.0000 -0.2271900372
C   C126      1.0  0.34851  0.61349  0.98160  1.0000 -0.2271900372
C   C127      1.0  0.44906  0.75614  0.49070  1.0000 -0.0902447157
C   C128      1.0  0.24386  0.55094  0.99070  1.0000 -0.0902447157
C   C129      1.0  0.44358  0.77722  0.52350  1.0000 0.1782531195
C   C130      1.0  0.22278  0.55642  0.02350  1.0000 0.1782531195
C   C131      1.0  0.52357  0.85483  0.46670  1.0000 0.1907825349
C   C132      1.0  0.14517  0.47643  0.96670  1.0000 0.1907825349
C   C133      1.0  0.38092  0.70788  0.56000  1.0000 -0.4828933662
C   C134      1.0  0.29212  0.61908  0.06000  1.0000 -0.4828933662
C   C135      1.0  0.55940  0.87700  0.42730  1.0000 -0.4888430692
C   C136      1.0  0.12300  0.44060  0.92730  1.0000 -0.4888430692
C   C137      1.0  0.51901  0.93259  0.63077  1.0000 -0.1642119633
C   C138      1.0  0.06741  0.48099  0.13077  1.0000 -0.1642119633
C   C139      1.0  0.64572  0.51628  0.98040  1.0000 0.19933402
C   C140      1.0  0.48372  0.35428  0.48040  1.0000 0.19933402
C   C141      1.0  0.58627  0.94953  0.97180  1.0000 -0.2404636228
C   C142      1.0  0.05047  0.41373  0.47180  1.0000 -0.2404636228
C   C143      1.0  0.40528  0.84692  0.97830  1.0000 0.2376022293
C   C144      1.0  0.15308  0.59472  0.47830  1.0000 0.2376022293
C   C145      1.0  0.44593  0.91947  0.59514  1.0000 0.5513093723
C   C146      1.0  0.08053  0.55407  0.09514  1.0000 0.5513093723
C   C147      1.0  0.51683  0.85017  0.74960  1.0000 -0.2585342275
C   C148      1.0  0.14983  0.48317  0.24960  1.0000 -0.2585342275
C   C149      1.0  0.60720  0.89780  0.00790  1.0000 -0.0243149521
C   C150      1.0  0.10220  0.39280  0.50790  1.0000 -0.0243149521
C   C151      1.0  0.63032  0.72168  0.02140  1.0000 0.5663511409
C   C152      1.0  0.27832  0.36968  0.52140  1.0000 0.5663511409
C   C153      1.0  0.62396  0.78344  0.03100  1.0000 -0.1503278337
C   C154      1.0  0.21656  0.37604  0.53100  1.0000 -0.1503278337
C   C155      1.0  0.60867  0.83793  0.99880  1.0000 0.19933402
C   C156      1.0  0.16207  0.39133  0.49880  1.0000 0.19933402
C   C157      1.0  0.61870  0.72250  0.87850  1.0000 0.5392676024
C   C158      1.0  0.27750  0.38130  0.37850  1.0000 0.5392676024
C   C159      1.0  0.11438  0.98022  0.00050  1.0000 -0.2156191812
C   C160      1.0  0.01978  0.88562  0.50050  1.0000 -0.2156191812
C   C161      1.0  0.00802  0.92458  0.97570  1.0000 -0.1116339927
C   C162      1.0  0.07542  0.99198  0.47570  1.0000 -0.1116339927
C   C163      1.0  0.48979  0.89301  0.67270  1.0000 0.2180578513
C   C164      1.0  0.10699  0.51021  0.17270  1.0000 0.2180578513
C   C165      1.0  0.63146  0.91414  0.05010  1.0000 0.0494732552
C   C166      1.0  0.08586  0.36854  0.55010  1.0000 0.0494732552
C   C167      1.0  0.46963  0.87677  0.95370  1.0000 -0.013033594
C   C168      1.0  0.12323  0.53037  0.45370  1.0000 -0.013033594
C   C169      1.0  0.31594  0.77006  0.90100  1.0000 0.0494732552
C   C170      1.0  0.22994  0.68406  0.40100  1.0000 0.0494732552
C   C171      1.0  0.65530  0.95550  0.70070  1.0000 0.0494732552
C   C172      1.0  0.04450  0.34470  0.20070  1.0000 0.0494732552
C   C173      1.0  0.90963  0.84297  0.99050  1.0000 0.19933402
C   C174      1.0  0.15703  0.09037  0.49050  1.0000 0.19933402
C   C175      1.0  0.42492  0.83928  0.91380  1.0000 0.0320533617
C   C176      1.0  0.16072  0.57508  0.41380  1.0000 0.0320533617
C   C177      1.0  0.25338  0.74302  0.92630  1.0000 -0.1503278337
C   C178      1.0  0.25698  0.74662  0.42630  1.0000 -0.1503278337
C   C179      1.0  0.55944  0.70656  0.83590  1.0000 -0.1426282106
C   C180      1.0  0.29344  0.44056  0.33590  1.0000 -0.1426282106
C   C181      1.0  0.50780  0.76620  0.77260  1.0000 -0.028878931
C   C182      1.0  0.23380  0.49220  0.27260  1.0000 -0.028878931
C   C183      1.0  0.55399  0.89941  0.70674  1.0000 -0.028878931
C   C184      1.0  0.10059  0.44601  0.20674  1.0000 -0.028878931
C   C185      1.0  0.64400  0.85760  0.08380  1.0000 0.0565217743
C   C186      1.0  0.14240  0.35600  0.58380  1.0000 0.0565217743
C   C187      1.0  0.62820  0.47100  0.04800  1.0000 0.19933402
C   C188      1.0  0.52900  0.37180  0.54800  1.0000 0.19933402
C   C189      1.0  0.48579  0.86581  0.88690  1.0000 -0.1205798583
C   C190      1.0  0.13419  0.51421  0.38690  1.0000 -0.1205798583
C   C191      1.0  0.64730  0.98750  0.06270  1.0000 -0.0902447157
C   C192      1.0  0.01250  0.35270  0.56270  1.0000 -0.0902447157
C   C193      1.0  0.56547  0.78173  0.81170  1.0000 0.19933402
C   C194      1.0  0.21827  0.43453  0.31170  1.0000 0.19933402
C   C195      1.0  0.12338  0.91022  0.02260  1.0000 -0.0902447157
C   C196      1.0  0.08978  0.87662  0.52260  1.0000 -0.0902447157
C   C197      1.0  0.29579  0.78041  0.96410  1.0000 -0.0996186166
C   C198      1.0  0.21959  0.70421  0.46410  1.0000 -0.0996186166
C   C199      1.0  0.61940  0.42700  0.09320  1.0000 -0.4991728077
C   C200      1.0  0.57300  0.38060  0.59320  1.0000 -0.4991728077
C   C201      1.0  0.66830  0.87110  0.12620  1.0000 -0.1678934442
C   C202      1.0  0.12890  0.33170  0.62620  1.0000 -0.1678934442
C   C203      1.0  0.63763  0.79197  0.07190  1.0000 -0.1503278337
C   C204      1.0  0.20803  0.36237  0.57190  1.0000 -0.1503278337
C   C205      1.0  0.68550  0.99690  0.66020  1.0000 0.0565217743
C   C206      1.0  0.00310  0.31450  0.16020  1.0000 0.0565217743
C   C207      1.0  0.78260  0.04900  0.65260  1.0000 -0.1426282106
C   C208      1.0  0.95100  0.21740  0.15260  1.0000 -0.1426282106
C   C209      1.0  0.64044  0.45396  0.01560  1.0000 -0.0996186166
C   C210      1.0  0.54604  0.35956  0.51560  1.0000 -0.0996186166
C   C211      1.0  0.88690  0.79170  0.03570  1.0000 -0.4888430692
C   C212      1.0  0.20830  0.11310  0.53570  1.0000 -0.4888430692
C   C213      1.0  0.27050  0.73270  0.86170  1.0000 -0.1304283905
C   C214      1.0  0.26730  0.72950  0.36170  1.0000 -0.1304283905
C   C215      1.0  0.98860  0.94480  0.93400  1.0000 0.1782531195
C   C216      1.0  0.05520  0.01140  0.43400  1.0000 0.1782531195
C   C217      1.0  0.67930  0.94150  0.13510  1.0000 -0.1116339927
C   C218      1.0  0.05850  0.32070  0.63510  1.0000 -0.1116339927
C   C219      1.0  0.72680  0.96920  0.73400  1.0000 -0.1304283905
C   C220      1.0  0.03080  0.27320  0.23400  1.0000 -0.1304283905
C   C221      1.0  0.43840  0.82580  0.84900  1.0000 -0.0902447157
C   C222      1.0  0.17420  0.56160  0.34900  1.0000 -0.0996186166
C   C223      1.0  0.61510  0.98150  0.62610  1.0000 -0.1304283905
C   C224      1.0  0.01850  0.38490  0.12610  1.0000 -0.1304283905
C   C225      1.0  0.67090  0.00030  0.10350  1.0000 -0.0902447157
C   C226      1.0  0.99970  0.32910  0.60350  1.0000 -0.0902447157
C   C227      1.0  0.82110  0.01970  0.72680  1.0000 -0.0902447157
C   C228      1.0  0.98030  0.17890  0.22680  1.0000 -0.0902447157
C   C229      1.0  0.65820  0.52780  0.93690  1.0000 -0.4735629307
C   C230      1.0  0.47220  0.34180  0.43690  1.0000 -0.4735629307
C   C231      1.0  0.43950  0.59830  0.77840  1.0000 0.0706183342
C   C232      1.0  0.40170  0.56050  0.27840  1.0000 0.0706183342
C   C233      1.0  0.49790  0.61690  0.81950  1.0000 -0.1426282106
C   C234      1.0  0.38310  0.50210  0.31950  1.0000 -0.1426282106
C   C235      1.0  0.33300  0.76140  0.83590  1.0000 -0.0996186166
C   C236      1.0  0.23860  0.66700  0.33590  1.0000 -0.0996186166
C   C237      1.0  0.44150  0.67170  0.75630  1.0000 0.0380231617
C   C238      1.0  0.32830  0.55850  0.25630  1.0000 0.0380231617
C   C239      1.0  0.37480  0.50420  0.76140  1.0000 -0.1426282106
C   C240      1.0  0.49580  0.62520  0.26140  1.0000 -0.1426282106
C   C241      1.0  0.05860  0.02060  0.89920  1.0000 -0.4828933662
C   C242      1.0  0.97940  0.94140  0.39920  1.0000 -0.4828933662
C   C243      1.0  0.85080  0.06000  0.68650  1.0000 -0.0996186166
C   C244      1.0  0.94000  0.14920  0.18650  1.0000 -0.0996186166
C   C245      1.0  0.37790  0.64690  0.71690  1.0000 -0.1304283905
C   C246      1.0  0.35310  0.62210  0.21690  1.0000 -0.1304283905
C   C247      1.0  0.31750  0.55510  0.70240  1.0000 -0.0996186166
C   C248      1.0  0.44490  0.68250  0.20240  1.0000 -0.0996186166
C   C249      1.0  0.31490  0.48430  0.72450  1.0000 -0.0996186166
C   C250      1.0  0.51570  0.68510  0.22450  1.0000 -0.0996186166
C   C251      1.0  0.10591  0.84409  0.00450  1.0000 0.1907825349
C   C252      1.0  0.15591  0.89409  0.50450  1.0000 0.1907825349
C   C253      1.0  0.15399  0.90061  0.06390  1.0000 0.1782531195
C   C254      1.0  0.09939  0.84601  0.56390  1.0000 0.1782531195
C   C255      1.0  0.07004  0.82056  0.96140  1.0000 -0.4828933662
C   C256      1.0  0.17944  0.92996  0.46140  1.0000 -0.4828933662
C   C257      1.0  0.18700  0.95300  0.09960  1.0000 -0.4991728077
C   C258      1.0  0.04700  0.81300  0.59960  1.0000 -0.4991728077
C   C259      1.0  0.22496  0.74784  0.99100  1.0000 0.5392676024
C   C260      1.0  0.25216  0.77504  0.49100  1.0000 0.5392676024
C   C261      1.0  0.65149  0.38651  0.01840  1.0000 -0.2271900372
C   C262      1.0  0.61349  0.34851  0.51840  1.0000 -0.2271900372
C   C263      1.0  0.75614  0.44906  0.00930  1.0000 -0.0902447157
C   C264      1.0  0.55094  0.24386  0.50930  1.0000 -0.0902447157
C   C265      1.0  0.77722  0.44358  0.97650  1.0000 0.1782531195
C   C266      1.0  0.55642  0.22278  0.47650  1.0000 0.1782531195
C   C267      1.0  0.85483  0.52357  0.03330  1.0000 0.1907825349
C   C268      1.0  0.47643  0.14517  0.53330  1.0000 0.1907825349
C   C269      1.0  0.70788  0.38092  0.94000  1.0000 -0.4828933662
C   C270      1.0  0.61908  0.29212  0.44000  1.0000 -0.4828933662
C   C271      1.0  0.87700  0.55940  0.07270  1.0000 -0.4888430692
C   C272      1.0  0.44060  0.12300  0.57270  1.0000 -0.4888430692
N   N1        1.0  0.53660  0.62460  0.46868  1.0000 -0.1205798583
N   N2        1.0  0.37540  0.46340  0.96868  1.0000 -0.1205798583
N   N3        1.0  0.56741  0.63599  0.50986  1.0000 -0.2768827127
N   N4        1.0  0.36401  0.43259  0.00986  1.0000 -0.2768827127
N   N5        1.0  0.81290  0.83350  0.54049  1.0000 -0.2708587321
N   N6        1.0  0.16650  0.18710  0.04049  1.0000 -0.2708587321
N   N7        1.0  0.87821  0.88499  0.57430  1.0000 -0.1205798583
N   N8        1.0  0.11501  0.12179  0.07430  1.0000 -0.1304283905
N   N9        1.0  0.83099  0.15401  0.42972  1.0000 -0.1304283905
N   N10       1.0  0.84599  0.16901  0.92972  1.0000 -0.1304283905
N   N11       1.0  0.79490  0.12490  0.46607  1.0000 -0.2708587321
N   N12       1.0  0.87510  0.20510  0.96607  1.0000 -0.2708587321
N   N13       1.0  0.51403  0.88437  0.51855  1.0000 -0.1116339927
N   N14       1.0  0.11563  0.48597  0.01855  1.0000 -0.1116339927
N   N15       1.0  0.56311  0.93249  0.48428  1.0000 -0.2585342275
N   N16       1.0  0.06751  0.43689  0.98428  1.0000 -0.2585342275
N   N17       1.0  0.62460  0.53660  0.03132  1.0000 -0.1205798583
N   N18       1.0  0.46340  0.37540  0.53132  1.0000 -0.1205798583
N   N19       1.0  0.63599  0.56741  0.99014  1.0000 -0.2768827127
N   N20       1.0  0.43259  0.36401  0.49014  1.0000 -0.2768827127
N   N21       1.0  0.83350  0.81290  0.95951  1.0000 -0.2708587321
N   N22       1.0  0.18710  0.16650  0.45951  1.0000 -0.2708587321
N   N23       1.0  0.88499  0.87821  0.92570  1.0000 -0.1304283905
N   N24       1.0  0.12179  0.11501  0.42570  1.0000 -0.1304283905
N   N25       1.0  0.15401  0.83099  0.07028  1.0000 -0.1304283905
N   N26       1.0  0.16901  0.84599  0.57028  1.0000 -0.1304283905
N   N27       1.0  0.12490  0.79490  0.03393  1.0000 -0.2708587321
N   N28       1.0  0.20510  0.87510  0.53393  1.0000 -0.2708587321
N   N29       1.0  0.88437  0.51403  0.98145  1.0000 -0.1116339927
N   N30       1.0  0.48597  0.11563  0.48145  1.0000 -0.1116339927
N   N31       1.0  0.93249  0.56311  0.01572  1.0000 -0.2585342275
N   N32       1.0  0.43689  0.06751  0.51572  1.0000 -0.2585342275
O   O1        1.0  0.89323  0.36897  0.90031  1.0000 -0.5171285616
O   O2        1.0  0.63103  0.10677  0.40031  1.0000 -0.5171285616
O   O3        1.0  0.88259  0.44601  0.48424  1.0000 -0.4159513043
O   O4        1.0  0.55399  0.11741  0.98424  1.0000 -0.4159513043
O   O5        1.0  0.83260  0.59560  0.54194  1.0000 -0.4009697782
O   O6        1.0  0.40440  0.16740  0.04194  1.0000 -0.4009697782
O   O7        1.0  0.84342  0.39558  0.82096  1.0000 -0.4143405007
O   O8        1.0  0.60442  0.15658  0.32096  1.0000 -0.4143405007
O   O9        1.0  0.64813  0.59967  0.59889  1.0000 -0.4888430692
O   O10       1.0  0.40033  0.35187  0.09889  1.0000 -0.4828933662
O   O11       1.0  0.72717  0.62983  0.51738  1.0000 -0.5550666796
O   O12       1.0  0.37017  0.27283  0.01738  1.0000 -0.5472168194
O   O13       1.0  0.67102  0.63838  0.44995  1.0000 -0.5359972463
O   O14       1.0  0.36162  0.32898  0.94995  1.0000 -0.5359972463
O   O15       1.0  0.80514  0.67826  0.60729  1.0000 -0.5171285616
O   O16       1.0  0.32174  0.19486  0.10729  1.0000 -0.5171285616
O   O17       1.0  0.93919  0.46441  0.94170  1.0000 -0.4888430692
O   O18       1.0  0.53559  0.06081  0.44170  1.0000 -0.4888430692
O   O19       1.0  0.87468  0.63072  0.67259  1.0000 -0.4300733553
O   O20       1.0  0.36928  0.12532  0.17259  1.0000 -0.4300733553
O   O21       1.0  0.69236  0.12944  0.52358  1.0000 -0.5472168194
O   O22       1.0  0.87056  0.30764  0.02358  1.0000 -0.5472168194
O   O23       1.0  0.77796  0.26344  0.47330  1.0000 -0.4888430692
O   O24       1.0  0.73656  0.22204  0.97330  1.0000 -0.4888430692
O   O25       1.0  0.36897  0.89323  0.59969  1.0000 -0.5171285616
O   O26       1.0  0.10677  0.63103  0.09969  1.0000 -0.5171285616
O   O27       1.0  0.44601  0.88259  0.01576  1.0000 -0.4143405007
O   O28       1.0  0.11741  0.55399  0.51576  1.0000 -0.4159513043
O   O29       1.0  0.59560  0.83260  0.95806  1.0000 -0.4009697782
O   O30       1.0  0.16740  0.40440  0.45806  1.0000 -0.4009697782
O   O31       1.0  0.39558  0.84342  0.67904  1.0000 -0.4159513043
O   O32       1.0  0.15658  0.60442  0.17904  1.0000 -0.4159513043
O   O33       1.0  0.59967  0.64813  0.90111  1.0000 -0.4888430692
O   O34       1.0  0.35187  0.40033  0.40111  1.0000 -0.4888430692
O   O35       1.0  0.62983  0.72717  0.98262  1.0000 -0.5550666796
O   O36       1.0  0.27283  0.37017  0.48262  1.0000 -0.5550666796
O   O37       1.0  0.63838  0.67102  0.05005  1.0000 -0.5359972463
O   O38       1.0  0.32898  0.36162  0.55005  1.0000 -0.5359972463
O   O39       1.0  0.67826  0.80514  0.89271  1.0000 -0.5171285616
O   O40       1.0  0.19486  0.32174  0.39271  1.0000 -0.5171285616
O   O41       1.0  0.46441  0.93919  0.55830  1.0000 -0.4888430692
O   O42       1.0  0.06081  0.53559  0.05830  1.0000 -0.4888430692
O   O43       1.0  0.63072  0.87468  0.82741  1.0000 -0.4300733553
O   O44       1.0  0.12532  0.36928  0.32741  1.0000 -0.4300733553
O   O45       1.0  0.12944  0.69236  0.97642  1.0000 -0.5472168194
O   O46       1.0  0.30764  0.87056  0.47642  1.0000 -0.5472168194
O   O47       1.0  0.26344  0.77796  0.02670  1.0000 -0.4888430692
O   O48       1.0  0.22204  0.73656  0.52670  1.0000 -0.4888430692
