# DDEC6 charges by PACMAN v1.1 (https://github.com/mtap-research/PACMAN-charge/)
data_2015[Eu][lvt]3[ASR]1
_chemical_formula_sum              "Eu4 H28 C56 N4 O28"
_cell_length_a       18.4499
_cell_length_b       18.4499
_cell_length_c       10.1532
_cell_angle_alpha    86.9512
_cell_angle_beta     93.0488
_cell_angle_gamma    124.341

_symmetry_space_group_name_H-M    "P 1"
_symmetry_Int_Tables_number       1

loop_
  _symmetry_equiv_pos_as_xyz
  'x, y, z'

loop_
  _atom_site_type_symbol
  _atom_site_label
  _atom_site_symmetry_multiplicity
  _atom_site_fract_x
  _atom_site_fract_y
  _atom_site_fract_z
  _atom_site_occupancy
  _atom_site_charge
Eu  Eu1       1.0  0.48218  0.09870  0.99829  1.0000 2.056376254
Eu  Eu2       1.0  0.09870  0.48218  0.50171  1.0000 2.056376254
Eu  Eu3       1.0  0.51782  0.90130  0.00171  1.0000 2.056376254
Eu  Eu4       1.0  0.90130  0.51782  0.49829  1.0000 2.056376254
H   H1        1.0  0.74600  0.26820  0.74220  1.0000 0.1302274371
H   H2        1.0  0.26820  0.74600  0.75780  1.0000 0.1302274371
H   H3        1.0  0.25400  0.73180  0.25780  1.0000 0.1302274371
H   H4        1.0  0.73180  0.25400  0.24220  1.0000 0.1302274371
H   H5        1.0  0.95530  0.25690  0.76580  1.0000 0.1302274371
H   H6        1.0  0.25690  0.95530  0.73420  1.0000 0.1302274371
H   H7        1.0  0.04470  0.74310  0.23420  1.0000 0.1302274371
H   H8        1.0  0.74310  0.04470  0.26580  1.0000 0.1302274371
H   H9        1.0  0.72830  0.06210  0.91990  1.0000 0.1198862225
H   H10       1.0  0.06210  0.72830  0.58010  1.0000 0.1198862225
H   H11       1.0  0.27170  0.93790  0.08010  1.0000 0.1198862225
H   H12       1.0  0.93790  0.27170  0.41990  1.0000 0.1198862225
H   H13       1.0  0.99370  0.16950  0.78240  1.0000 0.112126274
H   H14       1.0  0.16950  0.99370  0.71760  1.0000 0.112126274
H   H15       1.0  0.00630  0.83050  0.21760  1.0000 0.112126274
H   H16       1.0  0.83050  0.00630  0.28240  1.0000 0.112126274
H   H17       1.0  0.05870  0.09830  0.85320  1.0000 0.112126274
H   H18       1.0  0.09830  0.05870  0.64680  1.0000 0.112126274
H   H19       1.0  0.94130  0.90170  0.14680  1.0000 0.112126274
H   H20       1.0  0.90170  0.94130  0.35320  1.0000 0.112126274
H   H21       1.0  0.86000  0.93920  0.04380  1.0000 0.1198862225
H   H22       1.0  0.93920  0.86000  0.45620  1.0000 0.1198862225
H   H23       1.0  0.14000  0.06080  0.95620  1.0000 0.1198862225
H   H24       1.0  0.06080  0.14000  0.54380  1.0000 0.1198862225
H   H25       1.0  0.79900  0.01020  0.98700  1.0000 0.1198862225
H   H26       1.0  0.01020  0.79900  0.51300  1.0000 0.1198862225
H   H27       1.0  0.20100  0.98980  0.01300  1.0000 0.1198862225
H   H28       1.0  0.98980  0.20100  0.48700  1.0000 0.1198862225
C   C1        1.0  0.62920  0.12020  0.86310  1.0000 0.6291249747
C   C2        1.0  0.12020  0.62920  0.63690  1.0000 0.6291249747
C   C3        1.0  0.37080  0.87980  0.13690  1.0000 0.6291249747
C   C4        1.0  0.87980  0.37080  0.36310  1.0000 0.6291249747
C   C5        1.0  0.72180  0.15700  0.83150  1.0000 -0.0220323989
C   C6        1.0  0.15700  0.72180  0.66850  1.0000 -0.0220323989
C   C7        1.0  0.27820  0.84300  0.16850  1.0000 -0.0220323989
C   C8        1.0  0.84300  0.27820  0.33150  1.0000 -0.0220323989
C   C9        1.0  0.77130  0.23790  0.76830  1.0000 -0.1126532462
C   C10       1.0  0.23790  0.77130  0.73170  1.0000 -0.1126532462
C   C11       1.0  0.22870  0.76210  0.23170  1.0000 -0.1126532462
C   C12       1.0  0.76210  0.22870  0.26830  1.0000 -0.1126532462
C   C13       1.0  0.85810  0.27410  0.74360  1.0000 -0.0220323989
C   C14       1.0  0.27410  0.85810  0.75640  1.0000 -0.0220323989
C   C15       1.0  0.14190  0.72590  0.25640  1.0000 -0.0220323989
C   C16       1.0  0.72590  0.14190  0.24360  1.0000 -0.0220323989
C   C17       1.0  0.91170  0.36350  0.67660  1.0000 0.647242939
C   C18       1.0  0.36350  0.91170  0.82340  1.0000 0.647242939
C   C19       1.0  0.08830  0.63650  0.32340  1.0000 0.647242939
C   C20       1.0  0.63650  0.08830  0.17660  1.0000 0.647242939
C   C21       1.0  0.89640  0.23100  0.78260  1.0000 -0.1282213288
C   C22       1.0  0.23100  0.89640  0.71740  1.0000 -0.1282213288
C   C23       1.0  0.10360  0.76900  0.21740  1.0000 -0.1282213288
C   C24       1.0  0.76900  0.10360  0.28260  1.0000 -0.1282213288
C   C25       1.0  0.85040  0.15020  0.84610  1.0000 0.0860526393
C   C26       1.0  0.15020  0.85040  0.65390  1.0000 0.0860526393
C   C27       1.0  0.14960  0.84980  0.15390  1.0000 0.0860526393
C   C28       1.0  0.84980  0.14960  0.34610  1.0000 0.0860526393
C   C29       1.0  0.76090  0.11510  0.87280  1.0000 -0.1538241749
C   C30       1.0  0.11510  0.76090  0.62720  1.0000 -0.1538241749
C   C31       1.0  0.23910  0.88490  0.12720  1.0000 -0.1538241749
C   C32       1.0  0.88490  0.23910  0.37280  1.0000 -0.1538241749
C   C33       1.0  0.88930  0.10110  0.88930  1.0000 0.0619000418
C   C34       1.0  0.10110  0.88930  0.61070  1.0000 0.0619000418
C   C35       1.0  0.11070  0.89890  0.11070  1.0000 0.0619000418
C   C36       1.0  0.89890  0.11070  0.38930  1.0000 0.0619000418
C   C37       1.0  0.96570  0.12390  0.84500  1.0000 -0.141557241
C   C38       1.0  0.12390  0.96570  0.65500  1.0000 -0.141557241
C   C39       1.0  0.03430  0.87610  0.15500  1.0000 -0.141557241
C   C40       1.0  0.87610  0.03430  0.34500  1.0000 -0.141557241
C   C41       1.0  0.00570  0.08070  0.89000  1.0000 -0.1282213288
C   C42       1.0  0.08070  0.00570  0.61000  1.0000 -0.1282213288
C   C43       1.0  0.99430  0.91930  0.11000  1.0000 -0.1282213288
C   C44       1.0  0.91930  0.99430  0.39000  1.0000 -0.1282213288
C   C45       1.0  0.97480  0.01960  0.97680  1.0000 0.0619000418
C   C46       1.0  0.01960  0.97480  0.52320  1.0000 0.0619000418
C   C47       1.0  0.02520  0.98040  0.02320  1.0000 0.0619000418
C   C48       1.0  0.98040  0.02520  0.47680  1.0000 0.0619000418
C   C49       1.0  0.89410  0.99250  0.99800  1.0000 -0.1282213288
C   C50       1.0  0.99250  0.89410  0.50200  1.0000 -0.1282213288
C   C51       1.0  0.10590  0.00750  0.00200  1.0000 -0.1282213288
C   C52       1.0  0.00750  0.10590  0.49800  1.0000 -0.1282213288
C   C53       1.0  0.85550  0.03410  0.95890  1.0000 -0.1014241819
C   C54       1.0  0.03410  0.85550  0.54110  1.0000 -0.1014241819
C   C55       1.0  0.14450  0.96590  0.04110  1.0000 -0.1014241819
C   C56       1.0  0.96590  0.14450  0.45890  1.0000 -0.1014241819
N   N1        1.0  0.36720  0.14060  0.85410  1.0000 0.7086311187
N   N2        1.0  0.14060  0.36720  0.64590  1.0000 0.7086311187
N   N3        1.0  0.63280  0.85940  0.14590  1.0000 0.7086311187
N   N4        1.0  0.85940  0.63280  0.35410  1.0000 0.7086311187
O   O1        1.0  0.60218  0.17002  0.84870  1.0000 -0.6104350929
O   O2        1.0  0.17002  0.60218  0.65130  1.0000 -0.6104350929
O   O3        1.0  0.39782  0.82998  0.15130  1.0000 -0.6104350929
O   O4        1.0  0.82998  0.39782  0.34870  1.0000 -0.6104350929
O   O5        1.0  0.57792  0.04208  0.90620  1.0000 -0.7528293972
O   O6        1.0  0.04208  0.57792  0.59380  1.0000 -0.7528293972
O   O7        1.0  0.42208  0.95792  0.09380  1.0000 -0.7528293972
O   O8        1.0  0.95792  0.42208  0.40620  1.0000 -0.7528293972
O   O9        1.0  0.87584  0.40256  0.64500  1.0000 -0.6660786514
O   O10       1.0  0.40256  0.87584  0.85500  1.0000 -0.6660786514
O   O11       1.0  0.12416  0.59744  0.35500  1.0000 -0.6660786514
O   O12       1.0  0.59744  0.12416  0.14500  1.0000 -0.6660786514
O   O13       1.0  0.99210  0.39470  0.66320  1.0000 -0.645175839
O   O14       1.0  0.39470  0.99210  0.83680  1.0000 -0.645175839
O   O15       1.0  0.00790  0.60530  0.33680  1.0000 -0.645175839
O   O16       1.0  0.60530  0.00790  0.16320  1.0000 -0.645175839
O   O17       1.0  0.35019  0.10221  0.96670  1.0000 -0.5997593795
O   O18       1.0  0.10221  0.35019  0.53330  1.0000 -0.5997593795
O   O19       1.0  0.64981  0.89779  0.03330  1.0000 -0.5997593795
O   O20       1.0  0.89779  0.64981  0.46670  1.0000 -0.5997593795
O   O21       1.0  0.44148  0.16892  0.81050  1.0000 -0.5164051001
O   O22       1.0  0.16892  0.44148  0.68950  1.0000 -0.5164051001
O   O23       1.0  0.55852  0.83108  0.18950  1.0000 -0.5164051001
O   O24       1.0  0.83108  0.55852  0.31050  1.0000 -0.5164051001
O   O25       1.0  0.31310  0.14630  0.78850  1.0000 -0.3667230104
O   O26       1.0  0.14630  0.31310  0.71150  1.0000 -0.3667230104
O   O27       1.0  0.68690  0.85370  0.21150  1.0000 -0.3667230104
O   O28       1.0  0.85370  0.68690  0.28850  1.0000 -0.3667230104
