# DDEC6 charges by PACMAN v1.1 (https://github.com/mtap-research/PACMAN-charge/)
data_2015[Tb][nan]3[ASR]6
_chemical_formula_sum              "Tb8 H64 C128 N8 O56"
_cell_length_a       33.4306
_cell_length_b       26.0785
_cell_length_c       23.2924
_cell_angle_alpha    85.0408
_cell_angle_beta     51.0012
_cell_angle_gamma    43.958

_symmetry_space_group_name_H-M    "P 1"
_symmetry_Int_Tables_number       1

loop_
  _symmetry_equiv_pos_as_xyz
  'x, y, z'

loop_
  _atom_site_type_symbol
  _atom_site_label
  _atom_site_symmetry_multiplicity
  _atom_site_fract_x
  _atom_site_fract_y
  _atom_site_fract_z
  _atom_site_occupancy
  _atom_site_charge
Tb  Tb1       1.0  0.54481  0.54481  0.95519  1.0000 2.0194239232
Tb  Tb2       1.0  0.95519  0.95519  0.54481  1.0000 2.0194239232
Tb  Tb3       1.0  0.70519  0.70519  0.29481  1.0000 2.0194239232
Tb  Tb4       1.0  0.29481  0.29481  0.70519  1.0000 2.0194239232
Tb  Tb5       1.0  0.79629  0.20371  0.79629  1.0000 2.1026795122
Tb  Tb6       1.0  0.20371  0.79629  0.20371  1.0000 2.1026795122
Tb  Tb7       1.0  0.45371  0.04629  0.45371  1.0000 2.1026795122
Tb  Tb8       1.0  0.04629  0.45371  0.04629  1.0000 2.1026795122
H   H1        1.0  0.86340  0.16620  0.60240  1.0000 0.1126950744
H   H2        1.0  0.16620  0.86340  0.36800  1.0000 0.1126950744
H   H3        1.0  0.60240  0.36800  0.86340  1.0000 0.1126950744
H   H4        1.0  0.36800  0.60240  0.16620  1.0000 0.1126950744
H   H5        1.0  0.38660  0.08380  0.64760  1.0000 0.1126950744
H   H6        1.0  0.08380  0.38660  0.88200  1.0000 0.1126950744
H   H7        1.0  0.64760  0.88200  0.38660  1.0000 0.1126950744
H   H8        1.0  0.88200  0.64760  0.08380  1.0000 0.1126950744
H   H9        1.0  0.99070  0.12230  0.35330  1.0000 0.1288767686
H   H10       1.0  0.12230  0.99070  0.53370  1.0000 0.1288767686
H   H11       1.0  0.35330  0.53370  0.99070  1.0000 0.1288767686
H   H12       1.0  0.53370  0.35330  0.12230  1.0000 0.1288767686
H   H13       1.0  0.25930  0.12770  0.89670  1.0000 0.1288767686
H   H14       1.0  0.12770  0.25930  0.71630  1.0000 0.1288767686
H   H15       1.0  0.89670  0.71630  0.25930  1.0000 0.1288767686
H   H16       1.0  0.71630  0.89670  0.12770  1.0000 0.1288767686
H   H17       1.0  0.76980  0.38560  0.61200  1.0000 0.1205328681
H   H18       1.0  0.38560  0.76980  0.23260  1.0000 0.1288767686
H   H19       1.0  0.61200  0.23260  0.76980  1.0000 0.1205328681
H   H20       1.0  0.23260  0.61200  0.38560  1.0000 0.1205328681
H   H21       1.0  0.48020  0.86440  0.63800  1.0000 0.1288767686
H   H22       1.0  0.86440  0.48020  0.01740  1.0000 0.1205328681
H   H23       1.0  0.63800  0.01740  0.48020  1.0000 0.1205328681
H   H24       1.0  0.01740  0.63800  0.86440  1.0000 0.1205328681
H   H25       1.0  0.07910  0.20830  0.17810  1.0000 0.1205328681
H   H26       1.0  0.20830  0.07910  0.53450  1.0000 0.1205328681
H   H27       1.0  0.17810  0.53450  0.07910  1.0000 0.1205328681
H   H28       1.0  0.53450  0.17810  0.20830  1.0000 0.1205328681
H   H29       1.0  0.17090  0.04170  0.07190  1.0000 0.1205328681
H   H30       1.0  0.04170  0.17090  0.71550  1.0000 0.1205328681
H   H31       1.0  0.07190  0.71550  0.17090  1.0000 0.1205328681
H   H32       1.0  0.71550  0.07190  0.04170  1.0000 0.1205328681
H   H33       1.0  0.05580  0.30300  0.13680  1.0000 0.1205328681
H   H34       1.0  0.30300  0.05580  0.50440  1.0000 0.1205328681
H   H35       1.0  0.13680  0.50440  0.05580  1.0000 0.1205328681
H   H36       1.0  0.50440  0.13680  0.30300  1.0000 0.1205328681
H   H37       1.0  0.19420  0.94700  0.11320  1.0000 0.1205328681
H   H38       1.0  0.94700  0.19420  0.74560  1.0000 0.1205328681
H   H39       1.0  0.11320  0.74560  0.19420  1.0000 0.1205328681
H   H40       1.0  0.74560  0.11320  0.94700  1.0000 0.1205328681
H   H41       1.0  0.75590  0.54350  0.39750  1.0000 0.1288767686
H   H42       1.0  0.54350  0.75590  0.30310  1.0000 0.1288767686
H   H43       1.0  0.39750  0.30310  0.75590  1.0000 0.1288767686
H   H44       1.0  0.30310  0.39750  0.54350  1.0000 0.1288767686
H   H45       1.0  0.49410  0.70650  0.85250  1.0000 0.1288767686
H   H46       1.0  0.70650  0.49410  0.94690  1.0000 0.1288767686
H   H47       1.0  0.85250  0.94690  0.49410  1.0000 0.1205328681
H   H48       1.0  0.94690  0.85250  0.70650  1.0000 0.1288767686
H   H49       1.0  0.77930  0.44890  0.43850  1.0000 0.0973032599
H   H50       1.0  0.44890  0.77930  0.33333  1.0000 0.0973032599
H   H51       1.0  0.43850  0.33333  0.77930  1.0000 0.0973032599
H   H52       1.0  0.33333  0.43850  0.44890  1.0000 0.0973032599
H   H53       1.0  0.47070  0.80110  0.81150  1.0000 0.0973032599
H   H54       1.0  0.80110  0.47070  0.91670  1.0000 0.0973032599
H   H55       1.0  0.81150  0.91670  0.47070  1.0000 0.0973032599
H   H56       1.0  0.91670  0.81150  0.80110  1.0000 0.0973032599
H   H57       1.0  0.83000  0.37040  0.47640  1.0000 0.2657875295
H   H58       1.0  0.37040  0.83000  0.32320  1.0000 0.2657875295
H   H59       1.0  0.47640  0.32320  0.83000  1.0000 0.2657875295
H   H60       1.0  0.32320  0.47640  0.37040  1.0000 0.2657875295
H   H61       1.0  0.42000  0.87960  0.77360  1.0000 0.2657875295
H   H62       1.0  0.87960  0.42000  0.92680  1.0000 0.2657875295
H   H63       1.0  0.77360  0.92680  0.42000  1.0000 0.2657875295
H   H64       1.0  0.92680  0.77360  0.87960  1.0000 0.2657875295
C   C1        1.0  0.73029  0.35059  0.73281  1.0000 0.6005157891
C   C2        1.0  0.35059  0.73029  0.18631  1.0000 0.6005157891
C   C3        1.0  0.73281  0.18631  0.73029  1.0000 0.6005157891
C   C4        1.0  0.18631  0.73281  0.35059  1.0000 0.6005157891
C   C5        1.0  0.51971  0.89941  0.51719  1.0000 0.6005157891
C   C6        1.0  0.89941  0.51971  0.06369  1.0000 0.6005157891
C   C7        1.0  0.51719  0.06369  0.51971  1.0000 0.6005157891
C   C8        1.0  0.06369  0.51719  0.89941  1.0000 0.6005157891
C   C9        1.0  0.80508  0.28610  0.62400  1.0000 -0.0134803541
C   C10       1.0  0.28610  0.80508  0.28482  1.0000 -0.0134803541
C   C11       1.0  0.62400  0.28482  0.80508  1.0000 -0.0134803541
C   C12       1.0  0.28482  0.62400  0.28610  1.0000 -0.0134803541
C   C13       1.0  0.44492  0.96390  0.62600  1.0000 -0.0134803541
C   C14       1.0  0.96390  0.44492  0.96518  1.0000 -0.0134803541
C   C15       1.0  0.62600  0.96518  0.44492  1.0000 -0.0134803541
C   C16       1.0  0.96518  0.62600  0.96390  1.0000 -0.0134803541
C   C17       1.0  0.86790  0.18968  0.57042  1.0000 -0.1375493549
C   C18       1.0  0.18968  0.86790  0.37200  1.0000 -0.1375493549
C   C19       1.0  0.57042  0.37200  0.86790  1.0000 -0.1375493549
C   C20       1.0  0.37200  0.57042  0.18968  1.0000 -0.1375493549
C   C21       1.0  0.38210  0.06032  0.67958  1.0000 -0.1375493549
C   C22       1.0  0.06032  0.38210  0.87800  1.0000 -0.1375493549
C   C23       1.0  0.67958  0.87800  0.38210  1.0000 -0.1375493549
C   C24       1.0  0.87800  0.67958  0.06032  1.0000 -0.1375493549
C   C25       1.0  0.93744  0.12830  0.46898  1.0000 -0.0295293949
C   C26       1.0  0.12830  0.93744  0.46528  1.0000 -0.0295293949
C   C27       1.0  0.46898  0.46528  0.93744  1.0000 -0.0295293949
C   C28       1.0  0.46528  0.46898  0.12830  1.0000 -0.0295293949
C   C29       1.0  0.31256  0.12170  0.78102  1.0000 -0.0295293949
C   C30       1.0  0.12170  0.31256  0.78472  1.0000 -0.0295293949
C   C31       1.0  0.78102  0.78472  0.31256  1.0000 -0.0295293949
C   C32       1.0  0.78472  0.78102  0.12170  1.0000 -0.0295293949
C   C33       1.0  0.94416  0.16334  0.42114  1.0000 -0.1767986168
C   C34       1.0  0.16334  0.94416  0.47136  1.0000 -0.1767986168
C   C35       1.0  0.42114  0.47136  0.94416  1.0000 -0.1767986168
C   C36       1.0  0.47136  0.42114  0.16334  1.0000 -0.1767986168
C   C37       1.0  0.30584  0.08666  0.82886  1.0000 -0.1767986168
C   C38       1.0  0.08666  0.30584  0.77864  1.0000 -0.1767986168
C   C39       1.0  0.82886  0.77864  0.30584  1.0000 -0.1767986168
C   C40       1.0  0.77864  0.82886  0.08666  1.0000 -0.1767986168
C   C41       1.0  0.88134  0.25976  0.47472  1.0000 0.2167206916
C   C42       1.0  0.25976  0.88134  0.38418  1.0000 0.2167206916
C   C43       1.0  0.47472  0.38418  0.88134  1.0000 0.2167206916
C   C44       1.0  0.38418  0.47472  0.25976  1.0000 0.2167206916
C   C45       1.0  0.36866  0.99024  0.77528  1.0000 0.2167206916
C   C46       1.0  0.99024  0.36866  0.86582  1.0000 0.2167206916
C   C47       1.0  0.77528  0.86582  0.36866  1.0000 0.2167206916
C   C48       1.0  0.86582  0.77528  0.99024  1.0000 0.2167206916
C   C49       1.0  0.81179  0.32115  0.57615  1.0000 -0.1986737375
C   C50       1.0  0.32115  0.81179  0.29091  1.0000 -0.1986737375
C   C51       1.0  0.57615  0.29091  0.81179  1.0000 -0.1986737375
C   C52       1.0  0.29091  0.57615  0.32115  1.0000 -0.1986737375
C   C53       1.0  0.43821  0.92885  0.67385  1.0000 -0.1986737375
C   C54       1.0  0.92885  0.43821  0.95909  1.0000 -0.1986737375
C   C55       1.0  0.67385  0.95909  0.43821  1.0000 -0.1986737375
C   C56       1.0  0.95909  0.67385  0.92885  1.0000 -0.1986737375
C   C57       1.0  0.00084  0.02784  0.41576  1.0000 0.6264099889
C   C58       1.0  0.02784  0.00084  0.55556  1.0000 0.6264099889
C   C59       1.0  0.41576  0.55556  0.00084  1.0000 0.6247451517
C   C60       1.0  0.55556  0.41576  0.02784  1.0000 0.6264099889
C   C61       1.0  0.24916  0.22216  0.83424  1.0000 0.6264099889
C   C62       1.0  0.22216  0.24916  0.69444  1.0000 0.6264099889
C   C63       1.0  0.83424  0.69444  0.24916  1.0000 0.6264099889
C   C64       1.0  0.69444  0.83424  0.22216  1.0000 0.6264099889
C   C65       1.0  0.94855  0.25529  0.33731  1.0000 0.4525284867
C   C66       1.0  0.25529  0.94855  0.45885  1.0000 0.4525284867
C   C67       1.0  0.33731  0.45885  0.94855  1.0000 0.4525284867
C   C68       1.0  0.45885  0.33731  0.25529  1.0000 0.4525284867
C   C69       1.0  0.30145  0.99471  0.91269  1.0000 0.4525284867
C   C70       1.0  0.99471  0.30145  0.79115  1.0000 0.4525284867
C   C71       1.0  0.91269  0.79115  0.30145  1.0000 0.4525284867
C   C72       1.0  0.79115  0.91269  0.99471  1.0000 0.4525284867
C   C73       1.0  0.93151  0.31919  0.31239  1.0000 -0.0295293949
C   C74       1.0  0.31919  0.93151  0.43691  1.0000 -0.0295293949
C   C75       1.0  0.31239  0.43691  0.93151  1.0000 -0.0295293949
C   C76       1.0  0.43691  0.31239  0.31919  1.0000 -0.0295293949
C   C77       1.0  0.31849  0.93081  0.93761  1.0000 -0.0295293949
C   C78       1.0  0.93081  0.31849  0.81309  1.0000 -0.0295293949
C   C79       1.0  0.93761  0.81309  0.31849  1.0000 -0.0295293949
C   C80       1.0  0.81309  0.93761  0.93081  1.0000 -0.0295293949
C   C81       1.0  0.01434  0.27548  0.22202  1.0000 -0.1098338601
C   C82       1.0  0.27548  0.01434  0.48816  1.0000 -0.1098338601
C   C83       1.0  0.22202  0.48816  0.01434  1.0000 -0.1098338601
C   C84       1.0  0.48816  0.22202  0.27548  1.0000 -0.1098338601
C   C85       1.0  0.23566  0.97452  0.02798  1.0000 -0.1098338601
C   C86       1.0  0.97452  0.23566  0.76184  1.0000 -0.1098338601
C   C87       1.0  0.02798  0.76184  0.23566  1.0000 -0.1098338601
C   C88       1.0  0.76184  0.02798  0.97452  1.0000 -0.1098338601
C   C89       1.0  0.00034  0.33222  0.19736  1.0000 -0.0888117079
C   C90       1.0  0.33222  0.00034  0.47008  1.0000 -0.0888117079
C   C91       1.0  0.19736  0.47008  0.00034  1.0000 -0.0888117079
C   C92       1.0  0.47008  0.19736  0.33222  1.0000 -0.0888117079
C   C93       1.0  0.24966  0.91778  0.05264  1.0000 -0.0888117079
C   C94       1.0  0.91778  0.24966  0.77992  1.0000 -0.0888117079
C   C95       1.0  0.05264  0.77992  0.24966  1.0000 -0.0888117079
C   C96       1.0  0.77992  0.05264  0.91778  1.0000 -0.0888117079
C   C97       1.0  0.90353  0.43265  0.26307  1.0000 -0.044720867
C   C98       1.0  0.43265  0.90353  0.40075  1.0000 -0.044720867
C   C99       1.0  0.26307  0.40075  0.90353  1.0000 -0.044720867
C   C100      1.0  0.40075  0.26307  0.43265  1.0000 -0.044720867
C   C101      1.0  0.34647  0.81735  0.98693  1.0000 -0.044720867
C   C102      1.0  0.81735  0.34647  0.84925  1.0000 -0.044720867
C   C103      1.0  0.98693  0.84925  0.34647  1.0000 -0.044720867
C   C104      1.0  0.84925  0.98693  0.81735  1.0000 -0.044720867
C   C105      1.0  0.82069  0.47637  0.35343  1.0000 -0.0888117079
C   C106      1.0  0.47637  0.82069  0.34951  1.0000 -0.0888117079
C   C107      1.0  0.35343  0.34951  0.82069  1.0000 -0.0888117079
C   C108      1.0  0.34951  0.35343  0.47637  1.0000 -0.0888117079
C   C109      1.0  0.42931  0.77363  0.89657  1.0000 -0.0888117079
C   C110      1.0  0.77363  0.42931  0.90049  1.0000 -0.0888117079
C   C111      1.0  0.89657  0.90049  0.42931  1.0000 -0.0888117079
C   C112      1.0  0.90049  0.89657  0.77363  1.0000 -0.0888117079
C   C113      1.0  0.83469  0.41963  0.37809  1.0000 -0.1623219636
C   C114      1.0  0.41963  0.83469  0.36759  1.0000 -0.1623219636
C   C115      1.0  0.37809  0.36759  0.83469  1.0000 -0.1623219636
C   C116      1.0  0.36759  0.37809  0.41963  1.0000 -0.1623219636
C   C117      1.0  0.41531  0.83037  0.87191  1.0000 -0.1623219636
C   C118      1.0  0.83037  0.41531  0.88241  1.0000 -0.1623219636
C   C119      1.0  0.87191  0.88241  0.41531  1.0000 -0.1623219636
C   C120      1.0  0.88241  0.87191  0.83037  1.0000 -0.1623219636
C   C121      1.0  0.88924  0.49292  0.23508  1.0000 0.6264099889
C   C122      1.0  0.49292  0.88924  0.38276  1.0000 0.6264099889
C   C123      1.0  0.23508  0.38276  0.88924  1.0000 0.6264099889
C   C124      1.0  0.38276  0.23508  0.49292  1.0000 0.6264099889
C   C125      1.0  0.36076  0.75708  0.01492  1.0000 0.6264099889
C   C126      1.0  0.75708  0.36076  0.86724  1.0000 0.6264099889
C   C127      1.0  0.01492  0.86724  0.36076  1.0000 0.6264099889
C   C128      1.0  0.86724  0.01492  0.75708  1.0000 0.6264099889
N   N1        1.0  0.88082  0.30408  0.43312  1.0000 -0.3777593945
N   N2        1.0  0.30408  0.88082  0.38198  1.0000 -0.3777593945
N   N3        1.0  0.43312  0.38198  0.88082  1.0000 -0.3777593945
N   N4        1.0  0.38198  0.43312  0.30408  1.0000 -0.3777593945
N   N5        1.0  0.36918  0.94592  0.81688  1.0000 -0.3777593945
N   N6        1.0  0.94592  0.36918  0.86802  1.0000 -0.3777593945
N   N7        1.0  0.81688  0.86802  0.36918  1.0000 -0.3777593945
N   N8        1.0  0.86802  0.81688  0.94592  1.0000 -0.3777593945
O   O1        1.0  0.67171  0.43933  0.78067  1.0000 -0.6156768065
O   O2        1.0  0.43933  0.67171  0.10829  1.0000 -0.6156768065
O   O3        1.0  0.78067  0.10829  0.67171  1.0000 -0.6156768065
O   O4        1.0  0.10829  0.78067  0.43933  1.0000 -0.6156768065
O   O5        1.0  0.57829  0.81067  0.46933  1.0000 -0.6156768065
O   O6        1.0  0.81067  0.57829  0.14171  1.0000 -0.6156768065
O   O7        1.0  0.46933  0.14171  0.57829  1.0000 -0.6156768065
O   O8        1.0  0.14171  0.46933  0.81067  1.0000 -0.6156768065
O   O9        1.0  0.72323  0.32609  0.78091  1.0000 -0.6310450521
O   O10       1.0  0.32609  0.72323  0.16977  1.0000 -0.6310450521
O   O11       1.0  0.78091  0.16977  0.72323  1.0000 -0.6310450521
O   O12       1.0  0.16977  0.78091  0.32609  1.0000 -0.6310450521
O   O13       1.0  0.52677  0.92391  0.46909  1.0000 -0.6310450521
O   O14       1.0  0.92391  0.52677  0.08023  1.0000 -0.6310450521
O   O15       1.0  0.46909  0.08023  0.52677  1.0000 -0.6310450521
O   O16       1.0  0.08023  0.46909  0.92391  1.0000 -0.6310450521
O   O17       1.0  0.94596  0.03906  0.47594  1.0000 -0.5754867581
O   O18       1.0  0.03906  0.94596  0.53904  1.0000 -0.5754867581
O   O19       1.0  0.47594  0.53904  0.94596  1.0000 -0.5754867581
O   O20       1.0  0.53904  0.47594  0.03906  1.0000 -0.5754867581
O   O21       1.0  0.30404  0.21094  0.77406  1.0000 -0.5754867581
O   O22       1.0  0.21094  0.30404  0.71096  1.0000 -0.5754867581
O   O23       1.0  0.77406  0.71096  0.30404  1.0000 -0.5754867581
O   O24       1.0  0.71096  0.77406  0.21094  1.0000 -0.5754867581
O   O25       1.0  0.09026  0.94900  0.32900  1.0000 -0.6874207047
O   O26       1.0  0.94900  0.09026  0.63174  1.0000 -0.6874207047
O   O27       1.0  0.32900  0.63174  0.09026  1.0000 -0.6874207047
O   O28       1.0  0.63174  0.32900  0.94900  1.0000 -0.6874207047
O   O29       1.0  0.15974  0.30100  0.92100  1.0000 -0.6874207047
O   O30       1.0  0.30100  0.15974  0.61826  1.0000 -0.6874207047
O   O31       1.0  0.92100  0.61826  0.15974  1.0000 -0.6874207047
O   O32       1.0  0.61826  0.92100  0.30100  1.0000 -0.6874207047
O   O33       1.0  0.02315  0.16667  0.26873  1.0000 -0.4426392626
O   O34       1.0  0.16667  0.02315  0.54145  1.0000 -0.4426392626
O   O35       1.0  0.26873  0.54145  0.02315  1.0000 -0.4426392626
O   O36       1.0  0.54145  0.26873  0.16667  1.0000 -0.4426392626
O   O37       1.0  0.22685  0.08333  0.98127  1.0000 -0.4426392626
O   O38       1.0  0.08333  0.22685  0.70855  1.0000 -0.4426392626
O   O39       1.0  0.98127  0.70855  0.22685  1.0000 -0.4426392626
O   O40       1.0  0.70855  0.98127  0.08333  1.0000 -0.4426392626
O   O41       1.0  0.94897  0.47711  0.18609  1.0000 -0.6616437372
O   O42       1.0  0.47711  0.94897  0.38783  1.0000 -0.6616437372
O   O43       1.0  0.18609  0.38783  0.94897  1.0000 -0.6616437372
O   O44       1.0  0.38783  0.18609  0.47711  1.0000 -0.6616437372
O   O45       1.0  0.30103  0.77289  0.06391  1.0000 -0.6616437372
O   O46       1.0  0.77289  0.30103  0.86217  1.0000 -0.6616437372
O   O47       1.0  0.06391  0.86217  0.30103  1.0000 -0.6616437372
O   O48       1.0  0.86217  0.06391  0.77289  1.0000 -0.6616437372
O   O49       1.0  0.81234  0.55282  0.27038  1.0000 -0.6078768757
O   O50       1.0  0.55282  0.81234  0.36446  1.0000 -0.6078768757
O   O51       1.0  0.27038  0.36446  0.81234  1.0000 -0.6078768757
O   O52       1.0  0.36446  0.27038  0.55282  1.0000 -0.6078768757
O   O53       1.0  0.43766  0.69718  0.97962  1.0000 -0.6078768757
O   O54       1.0  0.69718  0.43766  0.88554  1.0000 -0.6078768757
O   O55       1.0  0.97962  0.88554  0.43766  1.0000 -0.6078768757
O   O56       1.0  0.88554  0.97962  0.69718  1.0000 -0.6078768757
