# DDEC6 charges by PACMAN v1.1 (https://github.com/mtap-research/PACMAN-charge/)
data_2015[Zn][sra]3[ASR]1
_chemical_formula_sum              "Zn8 H24 C64 O36"
_cell_length_a       10.289
_cell_length_b       15.763
_cell_length_c       24.796
_cell_angle_alpha    90
_cell_angle_beta     112.65
_cell_angle_gamma    90

_symmetry_space_group_name_H-M    "P 1"
_symmetry_Int_Tables_number       1

loop_
  _symmetry_equiv_pos_as_xyz
  'x, y, z'

loop_
  _atom_site_type_symbol
  _atom_site_label
  _atom_site_symmetry_multiplicity
  _atom_site_fract_x
  _atom_site_fract_y
  _atom_site_fract_z
  _atom_site_occupancy
  _atom_site_charge
Zn  Zn1       1.0  0.25785  0.14623  0.26493  1.0000 1.0566827662
Zn  Zn2       1.0  0.74215  0.64623  0.23507  1.0000 1.0566827662
Zn  Zn3       1.0  0.74215  0.85377  0.73507  1.0000 1.0547495889
Zn  Zn4       1.0  0.25785  0.35377  0.76493  1.0000 1.0566827662
Zn  Zn5       1.0  0.29160  0.01794  0.14451  1.0000 0.9411126035
Zn  Zn6       1.0  0.70840  0.51794  0.35549  1.0000 0.9411126035
Zn  Zn7       1.0  0.70840  0.98206  0.85549  1.0000 0.9411126035
Zn  Zn8       1.0  0.29160  0.48206  0.64451  1.0000 0.9411126035
H   H1        1.0  0.51940  0.20870  0.09290  1.0000 0.1455279174
H   H2        1.0  0.48060  0.70870  0.40710  1.0000 0.1455279174
H   H3        1.0  0.48060  0.79130  0.90710  1.0000 0.1455279174
H   H4        1.0  0.51940  0.29130  0.59290  1.0000 0.1455279174
H   H5        1.0  0.50530  0.31680  0.23720  1.0000 0.1378576028
H   H6        1.0  0.49470  0.81680  0.26280  1.0000 0.1378576028
H   H7        1.0  0.49470  0.68320  0.76280  1.0000 0.1378576028
H   H8        1.0  0.50530  0.18320  0.73720  1.0000 0.1378576028
H   H9        1.0  0.70010  0.43560  0.14580  1.0000 0.1378576028
H   H10       1.0  0.29990  0.93560  0.35420  1.0000 0.1378576028
H   H11       1.0  0.29990  0.56440  0.85420  1.0000 0.1378576028
H   H12       1.0  0.70010  0.06440  0.64580  1.0000 0.1378576028
H   H13       1.0  0.87200  0.24940  0.13990  1.0000 0.1378576028
H   H14       1.0  0.12800  0.74940  0.36010  1.0000 0.1378576028
H   H15       1.0  0.12800  0.75060  0.86010  1.0000 0.1378576028
H   H16       1.0  0.87200  0.25060  0.63990  1.0000 0.1378576028
H   H17       1.0  0.91390  0.07030  0.03200  1.0000 0.1378576028
H   H18       1.0  0.08610  0.57030  0.46800  1.0000 0.1378576028
H   H19       1.0  0.08610  0.92970  0.96800  1.0000 0.1378576028
H   H20       1.0  0.91390  0.42970  0.53200  1.0000 0.1378576028
H   H21       1.0  0.59930  0.24070  0.97230  1.0000 0.1378576028
H   H22       1.0  0.40070  0.74070  0.52770  1.0000 0.1378576028
H   H23       1.0  0.40070  0.75930  0.02770  1.0000 0.1378576028
H   H24       1.0  0.59930  0.25930  0.47230  1.0000 0.1378576028
C   C1        1.0  0.61710  0.32200  0.11286  1.0000 0.2226513806
C   C2        1.0  0.38290  0.82200  0.38714  1.0000 0.2226513806
C   C3        1.0  0.38290  0.67800  0.88714  1.0000 0.2226513806
C   C4        1.0  0.61710  0.17800  0.61286  1.0000 0.2226513806
C   C5        1.0  0.54220  0.25320  0.11957  1.0000 -0.2066214686
C   C6        1.0  0.45780  0.75320  0.38043  1.0000 -0.2066214686
C   C7        1.0  0.45780  0.74680  0.88043  1.0000 -0.2066214686
C   C8        1.0  0.54220  0.24680  0.61957  1.0000 -0.2066214686
C   C9        1.0  0.50130  0.25120  0.16673  1.0000 -0.0096164088
C   C10       1.0  0.49870  0.75120  0.33327  1.0000 -0.0096164088
C   C11       1.0  0.49870  0.74880  0.83327  1.0000 -0.0096164088
C   C12       1.0  0.50130  0.24880  0.66667  1.0000 -0.0096164088
C   C13       1.0  0.53390  0.31820  0.20592  1.0000 -0.1007199143
C   C14       1.0  0.46610  0.81820  0.29408  1.0000 -0.1007199143
C   C15       1.0  0.46610  0.68180  0.79408  1.0000 -0.1007199143
C   C16       1.0  0.53390  0.18180  0.70592  1.0000 -0.1007199143
C   C17       1.0  0.60890  0.38720  0.19879  1.0000 -0.0259679505
C   C18       1.0  0.39110  0.88720  0.30121  1.0000 -0.0259679505
C   C19       1.0  0.39110  0.61280  0.80121  1.0000 -0.0248386939
C   C20       1.0  0.60890  0.11280  0.69879  1.0000 -0.0248386939
C   C21       1.0  0.65050  0.38930  0.15137  1.0000 -0.1912361314
C   C22       1.0  0.34950  0.88930  0.34863  1.0000 -0.1912361314
C   C23       1.0  0.34950  0.61070  0.84863  1.0000 -0.1912361314
C   C24       1.0  0.65050  0.11070  0.65137  1.0000 -0.1912361314
C   C25       1.0  0.42100  0.17560  0.17505  1.0000 0.5844523566
C   C26       1.0  0.57900  0.67560  0.32495  1.0000 0.5844523566
C   C27       1.0  0.57900  0.82440  0.82495  1.0000 0.5844523566
C   C28       1.0  0.42100  0.32440  0.67505  1.0000 0.5844523566
C   C29       1.0  0.65240  0.45770  0.24197  1.0000 0.5942413616
C   C30       1.0  0.34760  0.95770  0.25803  1.0000 0.5942413616
C   C31       1.0  0.34760  0.54230  0.75803  1.0000 0.5962920832
C   C32       1.0  0.65240  0.04230  0.74197  1.0000 0.5942413616
C   C33       1.0  0.72760  0.25530  0.05782  1.0000 0.2296086284
C   C34       1.0  0.27240  0.75530  0.44218  1.0000 0.2296086284
C   C35       1.0  0.27240  0.74470  0.94218  1.0000 0.2296086284
C   C36       1.0  0.72760  0.24470  0.55782  1.0000 0.2296086284
C   C37       1.0  0.84230  0.22410  0.10323  1.0000 -0.2189238561
C   C38       1.0  0.15770  0.72410  0.39677  1.0000 -0.2189238561
C   C39       1.0  0.15770  0.77590  0.89677  1.0000 -0.2189238561
C   C40       1.0  0.84230  0.27590  0.60323  1.0000 -0.2189238561
C   C41       1.0  0.91400  0.15410  0.09400  1.0000 -0.0096164088
C   C42       1.0  0.08600  0.65410  0.40600  1.0000 -0.0096164088
C   C43       1.0  0.08600  0.84590  0.90600  1.0000 -0.0096164088
C   C44       1.0  0.91400  0.34590  0.59400  1.0000 -0.0096164088
C   C45       1.0  0.86600  0.11660  0.03865  1.0000 -0.1103629326
C   C46       1.0  0.13400  0.61660  0.46135  1.0000 -0.1103629326
C   C47       1.0  0.13400  0.88340  0.96135  1.0000 -0.1103629326
C   C48       1.0  0.86600  0.38340  0.53865  1.0000 -0.1103629326
C   C49       1.0  0.74710  0.14770  0.99331  1.0000 0.0039316504
C   C50       1.0  0.25290  0.64770  0.50669  1.0000 0.0039316504
C   C51       1.0  0.25290  0.85230  0.00669  1.0000 0.0039316504
C   C52       1.0  0.74710  0.35230  0.49331  1.0000 0.0039316504
C   C53       1.0  0.67750  0.21840  0.00240  1.0000 -0.199064475
C   C54       1.0  0.32250  0.71840  0.49760  1.0000 -0.199064475
C   C55       1.0  0.32250  0.78160  0.99760  1.0000 -0.199064475
C   C56       1.0  0.67750  0.28160  0.50240  1.0000 -0.199064475
C   C57       1.0  0.04230  0.12090  0.14241  1.0000 0.5962920832
C   C58       1.0  0.95770  0.62090  0.35759  1.0000 0.5962920832
C   C59       1.0  0.95770  0.87910  0.85759  1.0000 0.5962920832
C   C60       1.0  0.04230  0.37910  0.64241  1.0000 0.5962920832
C   C61       1.0  0.68760  0.10320  0.93469  1.0000 0.5430925744
C   C62       1.0  0.31240  0.60320  0.56531  1.0000 0.5430925744
C   C63       1.0  0.31240  0.89680  0.06531  1.0000 0.5430925744
C   C64       1.0  0.68760  0.39680  0.43469  1.0000 0.5430925744
O   O1        1.0  0.38160  0.17630  0.21589  1.0000 -0.5759401087
O   O2        1.0  0.61840  0.67630  0.28411  1.0000 -0.5740314317
O   O3        1.0  0.61840  0.82370  0.78411  1.0000 -0.5759401087
O   O4        1.0  0.38160  0.32370  0.71589  1.0000 -0.5759401087
O   O5        1.0  0.40270  0.11540  0.13961  1.0000 -0.5366299343
O   O6        1.0  0.59730  0.61540  0.36039  1.0000 -0.5366299343
O   O7        1.0  0.59730  0.88460  0.86039  1.0000 -0.5366299343
O   O8        1.0  0.40270  0.38460  0.63961  1.0000 -0.5366299343
O   O9        1.0  0.62000  0.44960  0.28605  1.0000 -0.5307119799
O   O10       1.0  0.38000  0.94960  0.21395  1.0000 -0.5307119799
O   O11       1.0  0.38000  0.55040  0.71395  1.0000 -0.5307119799
O   O12       1.0  0.62000  0.05040  0.78605  1.0000 -0.5307119799
O   O13       1.0  0.72040  0.51680  0.23379  1.0000 -0.5759401087
O   O14       1.0  0.27960  0.01680  0.26621  1.0000 -0.5759401087
O   O15       1.0  0.27960  0.48320  0.76621  1.0000 -0.5759401087
O   O16       1.0  0.72040  0.98320  0.73379  1.0000 -0.5759401087
O   O17       1.0  0.07940  0.15500  0.19071  1.0000 -0.5490491656
O   O18       1.0  0.92060  0.65500  0.30929  1.0000 -0.5490491656
O   O19       1.0  0.92060  0.84500  0.80929  1.0000 -0.5490491656
O   O20       1.0  0.07940  0.34500  0.69071  1.0000 -0.5490491656
O   O21       1.0  0.10230  0.05900  0.12908  1.0000 -0.5490491656
O   O22       1.0  0.89770  0.55900  0.37092  1.0000 -0.5490491656
O   O23       1.0  0.89770  0.94100  0.87092  1.0000 -0.5490491656
O   O24       1.0  0.10230  0.44100  0.62908  1.0000 -0.5490491656
O   O25       1.0  0.76750  0.04730  0.92705  1.0000 -0.5366299343
O   O26       1.0  0.23250  0.54730  0.57295  1.0000 -0.5366299343
O   O27       1.0  0.23250  0.95270  0.07295  1.0000 -0.5366299343
O   O28       1.0  0.76750  0.45270  0.42705  1.0000 -0.5307119799
O   O29       1.0  0.57000  0.12120  0.90029  1.0000 -0.4921159339
O   O30       1.0  0.43000  0.62120  0.59971  1.0000 -0.4921159339
O   O31       1.0  0.43000  0.87880  0.09971  1.0000 -0.4921159339
O   O32       1.0  0.57000  0.37880  0.40029  1.0000 -0.4921159339
O   O33       1.0  0.65760  0.32707  0.06549  1.0000 -0.1912361314
O   O34       1.0  0.34240  0.82707  0.43451  1.0000 -0.1912361314
O   O35       1.0  0.34240  0.67293  0.93451  1.0000 -0.1912361314
O   O36       1.0  0.65760  0.17293  0.56549  1.0000 -0.1912361314
