# DDEC6 charges by PACMAN v1.1 (https://github.com/mtap-research/PACMAN-charge/)
data_2015[Cu][acs]3[ASR]1
_chemical_formula_sum              "Cu3 P3 H12 C21 N3 O13"
_cell_length_a       15.3838
_cell_length_b       15.3838
_cell_length_c       4.4322
_cell_angle_alpha    81.7199
_cell_angle_beta     98.2801
_cell_angle_gamma    112.74

_symmetry_space_group_name_H-M    "P 1"
_symmetry_Int_Tables_number       1

loop_
  _symmetry_equiv_pos_as_xyz
  'x, y, z'

loop_
  _atom_site_type_symbol
  _atom_site_label
  _atom_site_symmetry_multiplicity
  _atom_site_fract_x
  _atom_site_fract_y
  _atom_site_fract_z
  _atom_site_occupancy
  _atom_site_charge
Cu  Cu1       1.0  0.13954  0.86046  0.83050  1.0000 1.0652342267
Cu  Cu2       1.0  0.13863  0.07593  0.70401  1.0000 0.9589888282
Cu  Cu3       1.0  0.92407  0.86137  0.70401  1.0000 0.9589888282
P   P1        1.0  0.24974  0.00674  0.28410  1.0000 1.2723740764
P   P2        1.0  0.99326  0.75026  0.28410  1.0000 1.2723740764
P   P3        1.0  0.98138  0.01862  0.15180  1.0000 1.2723740764
H   H1        1.0  0.39490  0.18690  0.17400  1.0000 0.1116601519
H   H2        1.0  0.81310  0.60510  0.17400  1.0000 0.1116601519
H   H3        1.0  0.55180  0.26400  0.36600  1.0000 0.1116601519
H   H4        1.0  0.73600  0.44820  0.36600  1.0000 0.1116601519
H   H5        1.0  0.53480  0.03760  0.96440  1.0000 0.1116601519
H   H6        1.0  0.96240  0.46520  0.96440  1.0000 0.1116601519
H   H7        1.0  0.38030  0.95790  0.75080  1.0000 0.1266117185
H   H8        1.0  0.04210  0.61970  0.75080  1.0000 0.1266117185
H   H9        1.0  0.71460  0.05220  0.49520  1.0000 0.1116601519
H   H10       1.0  0.94780  0.28540  0.49520  1.0000 0.1116601519
H   H11       1.0  0.78780  0.97820  0.87980  1.0000 0.1116601519
H   H12       1.0  0.02180  0.21220  0.87980  1.0000 0.1116601519
C   C1        1.0  0.37010  0.06610  0.44340  1.0000 -0.1767366849
C   C2        1.0  0.93390  0.62990  0.44340  1.0000 -0.1767366849
C   C3        1.0  0.42230  0.15610  0.33200  1.0000 -0.0803614021
C   C4        1.0  0.84390  0.57770  0.33200  1.0000 -0.0803614021
C   C5        1.0  0.51650  0.20370  0.45100  1.0000 -0.1113783926
C   C6        1.0  0.79630  0.48350  0.45100  1.0000 -0.1113783926
C   C7        1.0  0.55630  0.15930  0.69600  1.0000 0.0113246083
C   C8        1.0  0.84070  0.44370  0.69600  1.0000 0.0113246083
C   C9        1.0  0.50700  0.06800  0.80700  1.0000 -0.1113783926
C   C10       1.0  0.93200  0.49300  0.80700  1.0000 -0.1113783926
C   C11       1.0  0.41360  0.02040  0.67900  1.0000 -0.0624555223
C   C12       1.0  0.97960  0.58640  0.67900  1.0000 -0.0624555223
C   C13       1.0  0.65580  0.21260  0.83600  1.0000 0.3788027741
C   C14       1.0  0.78740  0.34420  0.83600  1.0000 0.3788027741
C   C15       1.0  0.78150  0.21850  0.18400  1.0000 0.385524077
C   C16       1.0  0.82660  0.17340  0.44600  1.0000 0.0113246083
C   C17       1.0  0.77760  0.08360  0.56600  1.0000 -0.09860489
C   C18       1.0  0.91640  0.22240  0.56600  1.0000 -0.09860489
C   C19       1.0  0.82200  0.03880  0.79400  1.0000 -0.0803614021
C   C20       1.0  0.96120  0.17800  0.79400  1.0000 -0.0803614021
C   C21       1.0  0.91650  0.08350  0.89700  1.0000 -0.166307392
N   N1        1.0  0.69920  0.30080  0.71500  1.0000 -0.414338427
N   N2        1.0  0.69190  0.16830  0.07120  1.0000 -0.4225829713
N   N3        1.0  0.83170  0.30810  0.07120  1.0000 -0.4225829713
O   O1        1.0  0.20860  0.22100  0.65100  1.0000 0.1266117185
O   O2        1.0  0.77900  0.79140  0.65100  1.0000 0.1266117185
O   O3        1.0  0.22890  0.08290  0.06130  1.0000 -0.7701261215
O   O4        1.0  0.91710  0.77110  0.06130  1.0000 -0.7701261215
O   O5        1.0  0.18500  0.97660  0.54800  1.0000 -0.8036325745
O   O6        1.0  0.02340  0.81500  0.54800  1.0000 -0.8036325745
O   O7        1.0  0.24280  0.92040  0.13690  1.0000 -0.7513053886
O   O8        1.0  0.07960  0.75720  0.13690  1.0000 -0.7513053886
O   O9        1.0  0.02150  0.97850  0.93100  1.0000 -0.8152719907
O   O10       1.0  0.91040  0.93960  0.33730  1.0000 -0.7513053886
O   O11       1.0  0.06040  0.08960  0.33730  1.0000 -0.7513053886
O   O12       1.0  0.23060  0.19820  0.50700  1.0000 0.1179450579
O   O13       1.0  0.80180  0.76940  0.50700  1.0000 0.1179450579
