# DDEC6 charges by PACMAN v1.1 (https://github.com/mtap-research/PACMAN-charge/)
data_2015[Zn][hea]3[ASR]2
_chemical_formula_sum              "Zn8 H84 C144 N12 O26"
_cell_length_a       21.2459
_cell_length_b       21.2459
_cell_length_c       21.2459
_cell_angle_alpha    102.033
_cell_angle_beta     102.033
_cell_angle_gamma    102.033

_symmetry_space_group_name_H-M    "P 1"
_symmetry_Int_Tables_number       1

loop_
  _symmetry_equiv_pos_as_xyz
  'x, y, z'

loop_
  _atom_site_type_symbol
  _atom_site_label
  _atom_site_symmetry_multiplicity
  _atom_site_fract_x
  _atom_site_fract_y
  _atom_site_fract_z
  _atom_site_occupancy
  _atom_site_charge
Zn  Zn1       1.0  0.63959  0.63959  0.63959  1.0000 0.9369132957
Zn  Zn2       1.0  0.36041  0.36041  0.36041  1.0000 0.9369132957
Zn  Zn3       1.0  0.76876  0.67017  0.76066  1.0000 0.9369132957
Zn  Zn4       1.0  0.67017  0.76066  0.76876  1.0000 0.9369132957
Zn  Zn5       1.0  0.76066  0.76876  0.67017  1.0000 0.9369132957
Zn  Zn6       1.0  0.23124  0.23934  0.32983  1.0000 0.9369132957
Zn  Zn7       1.0  0.32983  0.23124  0.23934  1.0000 0.9369132957
Zn  Zn8       1.0  0.23934  0.32983  0.23124  1.0000 0.9369132957
H   H1        1.0  0.83184  0.68049  0.32030  1.0000 0.2924916561
H   H2        1.0  0.68049  0.32030  0.83184  1.0000 0.2924916561
H   H3        1.0  0.32030  0.83184  0.68049  1.0000 0.2924916561
H   H4        1.0  0.16816  0.67970  0.31951  1.0000 0.2924916561
H   H5        1.0  0.31951  0.16816  0.67970  1.0000 0.2924916561
H   H6        1.0  0.67970  0.31951  0.16816  1.0000 0.2924916561
H   H7        1.0  0.83524  0.69349  0.14250  1.0000 0.2924916561
H   H8        1.0  0.69349  0.14250  0.83524  1.0000 0.2924916561
H   H9        1.0  0.14250  0.83524  0.69349  1.0000 0.2924916561
H   H10       1.0  0.16476  0.85750  0.30651  1.0000 0.2924916561
H   H11       1.0  0.30651  0.16476  0.85750  1.0000 0.2924916561
H   H12       1.0  0.85750  0.30651  0.16476  1.0000 0.2924916561
H   H13       1.0  0.75884  0.75709  0.48020  1.0000 0.1263685751
H   H14       1.0  0.75709  0.48020  0.75884  1.0000 0.1263685751
H   H15       1.0  0.48020  0.75884  0.75709  1.0000 0.1263685751
H   H16       1.0  0.24116  0.51980  0.24291  1.0000 0.1263685751
H   H17       1.0  0.24291  0.24116  0.51980  1.0000 0.1263685751
H   H18       1.0  0.51980  0.24291  0.24116  1.0000 0.1263685751
H   H19       1.0  0.76254  0.74539  0.36910  1.0000 0.1080864882
H   H20       1.0  0.74539  0.36910  0.76254  1.0000 0.1080864882
H   H21       1.0  0.36910  0.76254  0.74539  1.0000 0.1080864882
H   H22       1.0  0.23746  0.63090  0.25461  1.0000 0.1080864882
H   H23       1.0  0.25461  0.23746  0.63090  1.0000 0.1080864882
H   H24       1.0  0.63090  0.25461  0.23746  1.0000 0.1080864882
H   H25       1.0  0.61964  0.57009  0.31380  1.0000 0.1195358116
H   H26       1.0  0.57009  0.31380  0.61964  1.0000 0.1195358116
H   H27       1.0  0.31380  0.61964  0.57009  1.0000 0.1195358116
H   H28       1.0  0.38036  0.68620  0.42991  1.0000 0.1195358116
H   H29       1.0  0.42991  0.38036  0.68620  1.0000 0.1195358116
H   H30       1.0  0.68620  0.42991  0.38036  1.0000 0.1195358116
H   H31       1.0  0.61604  0.58189  0.42500  1.0000 0.1263685751
H   H32       1.0  0.58189  0.42500  0.61604  1.0000 0.1263685751
H   H33       1.0  0.42500  0.61604  0.58189  1.0000 0.1263685751
H   H34       1.0  0.38396  0.57500  0.41811  1.0000 0.1263685751
H   H35       1.0  0.41811  0.38396  0.57500  1.0000 0.1263685751
H   H36       1.0  0.57500  0.41811  0.38396  1.0000 0.1263685751
H   H37       1.0  0.59644  0.63099  0.11200  1.0000 0.1195358116
H   H38       1.0  0.63099  0.11200  0.59644  1.0000 0.1195358116
H   H39       1.0  0.11200  0.59644  0.63099  1.0000 0.1195358116
H   H40       1.0  0.40356  0.88800  0.36901  1.0000 0.1195358116
H   H41       1.0  0.36901  0.40356  0.88800  1.0000 0.1195358116
H   H42       1.0  0.88800  0.36901  0.40356  1.0000 0.1195358116
H   H43       1.0  0.59384  0.62859  0.22110  1.0000 0.1195358116
H   H44       1.0  0.62859  0.22110  0.59384  1.0000 0.1195358116
H   H45       1.0  0.22110  0.59384  0.62859  1.0000 0.1195358116
H   H46       1.0  0.40616  0.77890  0.37141  1.0000 0.1195358116
H   H47       1.0  0.37141  0.40616  0.77890  1.0000 0.1195358116
H   H48       1.0  0.77890  0.37141  0.40616  1.0000 0.1195358116
H   H49       1.0  0.62484  0.71239  0.04990  1.0000 0.1195358116
H   H50       1.0  0.71239  0.04990  0.62484  1.0000 0.1195358116
H   H51       1.0  0.04990  0.62484  0.71239  1.0000 0.1195358116
H   H52       1.0  0.37516  0.95010  0.28761  1.0000 0.1195358116
H   H53       1.0  0.28761  0.37516  0.95010  1.0000 0.1195358116
H   H54       1.0  0.95010  0.28761  0.37516  1.0000 0.1195358116
H   H55       1.0  0.63214  0.73129  0.94660  1.0000 0.1263685751
H   H56       1.0  0.73129  0.94660  0.63214  1.0000 0.1263685751
H   H57       1.0  0.94660  0.63214  0.73129  1.0000 0.1263685751
H   H58       1.0  0.36786  0.05340  0.26871  1.0000 0.1263685751
H   H59       1.0  0.26871  0.36786  0.05340  1.0000 0.1263685751
H   H60       1.0  0.05340  0.26871  0.36786  1.0000 0.1263685751
H   H61       1.0  0.77634  0.63319  0.94430  1.0000 0.1263685751
H   H62       1.0  0.63319  0.94430  0.77634  1.0000 0.1263685751
H   H63       1.0  0.94430  0.77634  0.63319  1.0000 0.1263685751
H   H64       1.0  0.22366  0.05570  0.36681  1.0000 0.1263685751
H   H65       1.0  0.36681  0.22366  0.05570  1.0000 0.1263685751
H   H66       1.0  0.05570  0.36681  0.22366  1.0000 0.1263685751
H   H67       1.0  0.76904  0.61409  0.04750  1.0000 0.1080864882
H   H68       1.0  0.61409  0.04750  0.76904  1.0000 0.1080864882
H   H69       1.0  0.04750  0.76904  0.61409  1.0000 0.1080864882
H   H70       1.0  0.23096  0.95250  0.38591  1.0000 0.1080864882
H   H71       1.0  0.38591  0.23096  0.95250  1.0000 0.1080864882
H   H72       1.0  0.95250  0.38591  0.23096  1.0000 0.1080864882
H   H73       1.0  0.94274  0.65219  0.32020  1.0000 0.1195358116
H   H74       1.0  0.65219  0.32020  0.94274  1.0000 0.1195358116
H   H75       1.0  0.32020  0.94274  0.65219  1.0000 0.1195358116
H   H76       1.0  0.05726  0.67980  0.34781  1.0000 0.1195358116
H   H77       1.0  0.34781  0.05726  0.67980  1.0000 0.1195358116
H   H78       1.0  0.67980  0.34781  0.05726  1.0000 0.1195358116
H   H79       1.0  0.94544  0.76559  0.19120  1.0000 0.1195358116
H   H80       1.0  0.76559  0.19120  0.94544  1.0000 0.1195358116
H   H81       1.0  0.19120  0.94544  0.76559  1.0000 0.1195358116
H   H82       1.0  0.05456  0.80880  0.23441  1.0000 0.1195358116
H   H83       1.0  0.23441  0.05456  0.80880  1.0000 0.1195358116
H   H84       1.0  0.80880  0.23441  0.05456  1.0000 0.1195358116
C   C1        1.0  0.68614  0.68189  0.53570  1.0000 0.5821546009
C   C2        1.0  0.68189  0.53570  0.68614  1.0000 0.5821546009
C   C3        1.0  0.53570  0.68614  0.68189  1.0000 0.5821546009
C   C4        1.0  0.31386  0.46430  0.31811  1.0000 0.5821546009
C   C5        1.0  0.31811  0.31386  0.46430  1.0000 0.5821546009
C   C6        1.0  0.46430  0.31811  0.31386  1.0000 0.5821546009
C   C7        1.0  0.68704  0.67059  0.46300  1.0000 -0.0291939983
C   C8        1.0  0.67059  0.46300  0.68704  1.0000 -0.0291939983
C   C9        1.0  0.46300  0.68704  0.67059  1.0000 -0.0291939983
C   C10       1.0  0.31296  0.53700  0.32941  1.0000 -0.0291939983
C   C11       1.0  0.32941  0.31296  0.53700  1.0000 -0.0291939983
C   C12       1.0  0.53700  0.32941  0.31296  1.0000 -0.0291939983
C   C13       1.0  0.73054  0.71919  0.44650  1.0000 -0.0935418882
C   C14       1.0  0.71919  0.44650  0.73054  1.0000 -0.0935418882
C   C15       1.0  0.44650  0.73054  0.71919  1.0000 -0.0935418882
C   C16       1.0  0.26946  0.55350  0.28081  1.0000 -0.0967934004
C   C17       1.0  0.28081  0.26946  0.55350  1.0000 -0.0935418882
C   C18       1.0  0.55350  0.28081  0.26946  1.0000 -0.0935418882
C   C19       1.0  0.73274  0.71219  0.38050  1.0000 -0.181147323
C   C20       1.0  0.71219  0.38050  0.73274  1.0000 -0.181147323
C   C21       1.0  0.38050  0.73274  0.71219  1.0000 -0.181147323
C   C22       1.0  0.26726  0.61950  0.28781  1.0000 -0.181147323
C   C23       1.0  0.28781  0.26726  0.61950  1.0000 -0.181147323
C   C24       1.0  0.61950  0.28781  0.26726  1.0000 -0.181147323
C   C25       1.0  0.69134  0.65669  0.33100  1.0000 0.0883869429
C   C26       1.0  0.65669  0.33100  0.69134  1.0000 0.0883869429
C   C27       1.0  0.33100  0.69134  0.65669  1.0000 0.0883869429
C   C28       1.0  0.30866  0.66900  0.34331  1.0000 0.0883869429
C   C29       1.0  0.34331  0.30866  0.66900  1.0000 0.0883869429
C   C30       1.0  0.66900  0.34331  0.30866  1.0000 0.0883869429
C   C31       1.0  0.64804  0.60809  0.34760  1.0000 -0.1708849379
C   C32       1.0  0.60809  0.34760  0.64804  1.0000 -0.1708849379
C   C33       1.0  0.34760  0.64804  0.60809  1.0000 -0.1708849379
C   C34       1.0  0.35196  0.65240  0.39191  1.0000 -0.1708849379
C   C35       1.0  0.39191  0.35196  0.65240  1.0000 -0.1708849379
C   C36       1.0  0.65240  0.39191  0.35196  1.0000 -0.1708849379
C   C37       1.0  0.64584  0.61509  0.41360  1.0000 -0.0967934004
C   C38       1.0  0.61509  0.41360  0.64584  1.0000 -0.0967934004
C   C39       1.0  0.41360  0.64584  0.61509  1.0000 -0.0967934004
C   C40       1.0  0.35416  0.58640  0.38491  1.0000 -0.0967934004
C   C41       1.0  0.38491  0.35416  0.58640  1.0000 -0.0967934004
C   C42       1.0  0.58640  0.38491  0.35416  1.0000 -0.0967934004
C   C43       1.0  0.69464  0.65479  0.26000  1.0000 -0.0096082966
C   C44       1.0  0.65479  0.26000  0.69464  1.0000 -0.0096082966
C   C45       1.0  0.26000  0.69464  0.65479  1.0000 -0.0096082966
C   C46       1.0  0.30536  0.74000  0.34521  1.0000 -0.0096082966
C   C47       1.0  0.34521  0.30536  0.74000  1.0000 -0.0096082966
C   C48       1.0  0.74000  0.34521  0.30536  1.0000 -0.0096082966
C   C49       1.0  0.75544  0.67119  0.24460  1.0000 0.070232496
C   C50       1.0  0.67119  0.24460  0.75544  1.0000 0.070232496
C   C51       1.0  0.24460  0.75544  0.67119  1.0000 0.070232496
C   C52       1.0  0.24456  0.75540  0.32881  1.0000 0.070232496
C   C53       1.0  0.32881  0.24456  0.75540  1.0000 0.070232496
C   C54       1.0  0.75540  0.32881  0.24456  1.0000 0.070232496
C   C55       1.0  0.75694  0.67269  0.17980  1.0000 0.060800559
C   C56       1.0  0.67269  0.17980  0.75694  1.0000 0.060800559
C   C57       1.0  0.17980  0.75694  0.67269  1.0000 0.060800559
C   C58       1.0  0.24306  0.82020  0.32731  1.0000 0.060800559
C   C59       1.0  0.32731  0.24306  0.82020  1.0000 0.060800559
C   C60       1.0  0.82020  0.32731  0.24306  1.0000 0.060800559
C   C61       1.0  0.69774  0.65769  0.13040  1.0000 -0.0096082966
C   C62       1.0  0.65769  0.13040  0.69774  1.0000 -0.0096082966
C   C63       1.0  0.13040  0.69774  0.65769  1.0000 -0.0096082966
C   C64       1.0  0.30226  0.86960  0.34231  1.0000 -0.0096082966
C   C65       1.0  0.34231  0.30226  0.86960  1.0000 -0.0096082966
C   C66       1.0  0.86960  0.34231  0.30226  1.0000 -0.0096082966
C   C67       1.0  0.63684  0.64119  0.14570  1.0000 -0.1573746946
C   C68       1.0  0.64119  0.14570  0.63684  1.0000 -0.1573746946
C   C69       1.0  0.14570  0.63684  0.64119  1.0000 -0.1573746946
C   C70       1.0  0.36316  0.85430  0.35881  1.0000 -0.1573746946
C   C71       1.0  0.35881  0.36316  0.85430  1.0000 -0.1573746946
C   C72       1.0  0.85430  0.35881  0.36316  1.0000 -0.1573746946
C   C73       1.0  0.63544  0.63979  0.21060  1.0000 -0.1467360416
C   C74       1.0  0.63979  0.21060  0.63544  1.0000 -0.1467360416
C   C75       1.0  0.21060  0.63544  0.63979  1.0000 -0.1467360416
C   C76       1.0  0.36456  0.78940  0.36021  1.0000 -0.1467360416
C   C77       1.0  0.36021  0.36456  0.78940  1.0000 -0.1467360416
C   C78       1.0  0.78940  0.36021  0.36456  1.0000 -0.1467360416
C   C79       1.0  0.69634  0.66149  0.05840  1.0000 0.0883869429
C   C80       1.0  0.66149  0.05840  0.69634  1.0000 0.0883869429
C   C81       1.0  0.05840  0.69634  0.66149  1.0000 0.0883869429
C   C82       1.0  0.30366  0.94160  0.33851  1.0000 0.0883869429
C   C83       1.0  0.33851  0.30366  0.94160  1.0000 0.0883869429
C   C84       1.0  0.94160  0.33851  0.30366  1.0000 0.0883869429
C   C85       1.0  0.65554  0.69629  0.02840  1.0000 -0.1573746946
C   C86       1.0  0.69629  0.02840  0.65554  1.0000 -0.1573746946
C   C87       1.0  0.02840  0.65554  0.69629  1.0000 -0.1573746946
C   C88       1.0  0.34446  0.97160  0.30371  1.0000 -0.1573746946
C   C89       1.0  0.30371  0.34446  0.97160  1.0000 -0.1573746946
C   C90       1.0  0.97160  0.30371  0.34446  1.0000 -0.1573746946
C   C91       1.0  0.65994  0.70759  0.96710  1.0000 -0.0935418882
C   C92       1.0  0.70759  0.96710  0.65994  1.0000 -0.0935418882
C   C93       1.0  0.96710  0.65994  0.70759  1.0000 -0.0935418882
C   C94       1.0  0.34006  0.03290  0.29241  1.0000 -0.0935418882
C   C95       1.0  0.29241  0.34006  0.03290  1.0000 -0.0935418882
C   C96       1.0  0.03290  0.29241  0.34006  1.0000 -0.0935418882
C   C97       1.0  0.70494  0.68399  0.93580  1.0000 -0.0203808231
C   C98       1.0  0.68399  0.93580  0.70494  1.0000 -0.0203808231
C   C99       1.0  0.93580  0.70494  0.68399  1.0000 -0.0203808231
C   C100      1.0  0.29506  0.06420  0.31601  1.0000 -0.0203808231
C   C101      1.0  0.31601  0.29506  0.06420  1.0000 -0.0203808231
C   C102      1.0  0.06420  0.31601  0.29506  1.0000 -0.0203808231
C   C103      1.0  0.74554  0.64919  0.96570  1.0000 -0.0967934004
C   C104      1.0  0.64919  0.96570  0.74554  1.0000 -0.0967934004
C   C105      1.0  0.96570  0.74554  0.64919  1.0000 -0.0935418882
C   C106      1.0  0.25446  0.03430  0.35081  1.0000 -0.0967934004
C   C107      1.0  0.35081  0.25446  0.03430  1.0000 -0.0967934004
C   C108      1.0  0.03430  0.35081  0.25446  1.0000 -0.0967934004
C   C109      1.0  0.74134  0.63799  0.02700  1.0000 -0.1912515272
C   C110      1.0  0.63799  0.02700  0.74134  1.0000 -0.1912515272
C   C111      1.0  0.02700  0.74134  0.63799  1.0000 -0.1912515272
C   C112      1.0  0.25866  0.97300  0.36201  1.0000 -0.1912515272
C   C113      1.0  0.36201  0.25866  0.97300  1.0000 -0.1912515272
C   C114      1.0  0.97300  0.36201  0.25866  1.0000 -0.1912515272
C   C115      1.0  0.70614  0.69959  0.86770  1.0000 0.5821546009
C   C116      1.0  0.69959  0.86770  0.70614  1.0000 0.5821546009
C   C117      1.0  0.86770  0.70614  0.69959  1.0000 0.5821546009
C   C118      1.0  0.29386  0.13230  0.30041  1.0000 0.5821546009
C   C119      1.0  0.30041  0.29386  0.13230  1.0000 0.5821546009
C   C120      1.0  0.13230  0.30041  0.29386  1.0000 0.5821546009
C   C121      1.0  0.85674  0.69319  0.23770  1.0000 0.0883869429
C   C122      1.0  0.69319  0.23770  0.85674  1.0000 0.0883869429
C   C123      1.0  0.23770  0.85674  0.69319  1.0000 0.0883869429
C   C124      1.0  0.14326  0.76230  0.30681  1.0000 0.0883869429
C   C125      1.0  0.30681  0.14326  0.76230  1.0000 0.0883869429
C   C126      1.0  0.76230  0.30681  0.14326  1.0000 0.0883869429
C   C127      1.0  0.93014  0.71029  0.25820  1.0000 -0.0203808231
C   C128      1.0  0.71029  0.25820  0.93014  1.0000 -0.0203808231
C   C129      1.0  0.25820  0.93014  0.71029  1.0000 -0.0203808231
C   C130      1.0  0.06986  0.74180  0.28971  1.0000 -0.0203808231
C   C131      1.0  0.28971  0.06986  0.74180  1.0000 -0.0203808231
C   C132      1.0  0.74180  0.28971  0.06986  1.0000 -0.0203808231
C   C133      1.0  0.96574  0.68309  0.30080  1.0000 -0.1387485697
C   C134      1.0  0.68309  0.30080  0.96574  1.0000 -0.1387485697
C   C135      1.0  0.30080  0.96574  0.68309  1.0000 -0.1387485697
C   C136      1.0  0.03426  0.69920  0.31691  1.0000 -0.1387485697
C   C137      1.0  0.31691  0.03426  0.69920  1.0000 -0.1387485697
C   C138      1.0  0.69920  0.31691  0.03426  1.0000 -0.1387485697
C   C139      1.0  0.96804  0.75219  0.22760  1.0000 -0.1387485697
C   C140      1.0  0.75219  0.22760  0.96804  1.0000 -0.1387485697
C   C141      1.0  0.22760  0.96804  0.75219  1.0000 -0.1387485697
C   C142      1.0  0.03196  0.77240  0.24781  1.0000 -0.1387485697
C   C143      1.0  0.24781  0.03196  0.77240  1.0000 -0.1387485697
C   C144      1.0  0.77240  0.24781  0.03196  1.0000 -0.1387485697
N   N1        1.0  0.81814  0.68139  0.27850  1.0000 -0.3107562472
N   N2        1.0  0.68139  0.27850  0.81814  1.0000 -0.3107562472
N   N3        1.0  0.27850  0.81814  0.68139  1.0000 -0.3107562472
N   N4        1.0  0.18186  0.72150  0.31861  1.0000 -0.3107562472
N   N5        1.0  0.31861  0.18186  0.72150  1.0000 -0.3107562472
N   N6        1.0  0.72150  0.31861  0.18186  1.0000 -0.3107562472
N   N7        1.0  0.82064  0.68799  0.17730  1.0000 -0.3107562472
N   N8        1.0  0.68799  0.17730  0.82064  1.0000 -0.3107562472
N   N9        1.0  0.17730  0.82064  0.68799  1.0000 -0.3107562472
N   N10       1.0  0.17936  0.82270  0.31201  1.0000 -0.3107562472
N   N11       1.0  0.31201  0.17936  0.82270  1.0000 -0.3107562472
N   N12       1.0  0.82270  0.31201  0.17936  1.0000 -0.3107562472
O   O1        1.0  0.65014  0.63489  0.54940  1.0000 -0.5216167827
O   O2        1.0  0.63489  0.54940  0.65014  1.0000 -0.5216167827
O   O3        1.0  0.54940  0.65014  0.63489  1.0000 -0.5216167827
O   O4        1.0  0.34986  0.45060  0.36511  1.0000 -0.5216167827
O   O5        1.0  0.36511  0.34986  0.45060  1.0000 -0.5216167827
O   O6        1.0  0.45060  0.36511  0.34986  1.0000 -0.5216167827
O   O7        1.0  0.75584  0.67659  0.84790  1.0000 -0.6034727553
O   O8        1.0  0.67659  0.84790  0.75584  1.0000 -0.6034727553
O   O9        1.0  0.84790  0.75584  0.67659  1.0000 -0.6034727553
O   O10       1.0  0.24416  0.15210  0.32341  1.0000 -0.6034727553
O   O11       1.0  0.32341  0.24416  0.15210  1.0000 -0.6034727553
O   O12       1.0  0.15210  0.32341  0.24416  1.0000 -0.6034727553
O   O13       1.0  0.72044  0.73359  0.57330  1.0000 -0.4924991587
O   O14       1.0  0.73359  0.57330  0.72044  1.0000 -0.4924991587
O   O15       1.0  0.57330  0.72044  0.73359  1.0000 -0.4924991587
O   O16       1.0  0.27956  0.42670  0.26641  1.0000 -0.4924991587
O   O17       1.0  0.26641  0.27956  0.42670  1.0000 -0.4924991587
O   O18       1.0  0.42670  0.26641  0.27956  1.0000 -0.4924991587
O   O19       1.0  0.67774  0.74099  0.85110  1.0000 -0.5006611505
O   O20       1.0  0.74099  0.85110  0.67774  1.0000 -0.5006611505
O   O21       1.0  0.85110  0.67774  0.74099  1.0000 -0.5006611505
O   O22       1.0  0.32226  0.14890  0.25901  1.0000 -0.5006611505
O   O23       1.0  0.25901  0.32226  0.14890  1.0000 -0.5006611505
O   O24       1.0  0.14890  0.25901  0.32226  1.0000 -0.5006611505
O   O25       1.0  0.70778  0.70778  0.70778  1.0000 -1.0250842729
O   O26       1.0  0.29222  0.29222  0.29222  1.0000 -1.0250842729
