# DDEC6 charges by PACMAN v1.1 (https://github.com/mtap-research/PACMAN-charge/)
data_2015[Zn][lon]3[ASR]2
_chemical_formula_sum              "Zn4 H24 C44 O18"
_cell_length_a       10.1916
_cell_length_b       16.422
_cell_length_c       15.5624
_cell_angle_alpha    90
_cell_angle_beta     107.073
_cell_angle_gamma    90

_symmetry_space_group_name_H-M    "P 1"
_symmetry_Int_Tables_number       1

loop_
  _symmetry_equiv_pos_as_xyz
  'x, y, z'

loop_
  _atom_site_type_symbol
  _atom_site_label
  _atom_site_symmetry_multiplicity
  _atom_site_fract_x
  _atom_site_fract_y
  _atom_site_fract_z
  _atom_site_occupancy
  _atom_site_charge
Zn  Zn1       1.0  0.48825  0.61196  0.85318  1.0000 0.9319963822
Zn  Zn2       1.0  0.51175  0.11196  0.14682  1.0000 0.9319963822
Zn  Zn3       1.0  0.76448  0.70796  0.99845  1.0000 0.8509996901
Zn  Zn4       1.0  0.23552  0.20796  0.00155  1.0000 0.8509996901
H   H1        1.0  0.83760  0.70300  0.12180  1.0000 0.3381715784
H   H2        1.0  0.16240  0.20300  0.87820  1.0000 0.333543844
H   H3        1.0  0.90850  0.71570  0.06060  1.0000 0.2546706269
H   H4        1.0  0.09150  0.21570  0.93940  1.0000 0.2444962183
H   H5        1.0  0.49950  0.41600  0.02130  1.0000 0.1436300272
H   H6        1.0  0.50050  0.91600  0.97870  1.0000 0.1436300272
H   H7        1.0  0.71160  0.53660  0.67150  1.0000 0.1202970999
H   H8        1.0  0.28840  0.03660  0.32850  1.0000 0.1202970999
H   H9        1.0  0.02450  0.61700  0.87710  1.0000 0.12802232
H   H10       1.0  0.97550  0.11700  0.12290  1.0000 0.12802232
H   H11       1.0  0.59070  0.40820  0.40950  1.0000 0.1202970999
H   H12       1.0  0.40930  0.90820  0.59050  1.0000 0.1202970999
H   H13       1.0  0.09220  0.54040  0.64800  1.0000 0.1202970999
H   H14       1.0  0.90780  0.04040  0.35200  1.0000 0.1202970999
H   H15       1.0  0.68670  0.43420  0.56080  1.0000 0.1202970999
H   H16       1.0  0.31330  0.93420  0.43920  1.0000 0.1202970999
H   H17       1.0  0.60780  0.33800  0.27810  1.0000 0.12802232
H   H18       1.0  0.39220  0.83800  0.72190  1.0000 0.12802232
H   H19       1.0  0.70930  0.56390  0.22020  1.0000 0.1147014419
H   H20       1.0  0.29070  0.06390  0.77980  1.0000 0.1147014419
H   H21       1.0  0.88480  0.54050  0.35340  1.0000 0.1202970999
H   H22       1.0  0.11520  0.04050  0.64660  1.0000 0.1202970999
H   H23       1.0  0.97830  0.56990  0.50330  1.0000 0.1202970999
H   H24       1.0  0.02170  0.06990  0.49670  1.0000 0.1202970999
C   C1        1.0  0.60940  0.56360  0.04260  1.0000 0.5973843703
C   C2        1.0  0.39060  0.06360  0.95740  1.0000 0.5973843703
C   C3        1.0  0.60560  0.50020  0.11220  1.0000 -0.0180952173
C   C4        1.0  0.39440  0.00020  0.88780  1.0000 -0.0180952173
C   C5        1.0  0.72700  0.47060  0.36440  1.0000 0.070327806
C   C6        1.0  0.27300  0.97060  0.63560  1.0000 0.070327806
C   C7        1.0  0.75250  0.59800  0.83460  1.0000 0.5883390228
C   C8        1.0  0.24750  0.09800  0.16540  1.0000 0.5883390228
C   C9        1.0  0.54170  0.42540  0.08210  1.0000 -0.1013909993
C   C10       1.0  0.45830  0.92540  0.91790  1.0000 -0.1013909993
C   C11       1.0  0.80460  0.54800  0.69550  1.0000 -0.1401710978
C   C12       1.0  0.19540  0.04800  0.30450  1.0000 -0.1401710978
C   C13       1.0  0.85290  0.57860  0.78290  1.0000 -0.0180952173
C   C14       1.0  0.14710  0.07860  0.21710  1.0000 -0.0180952173
C   C15       1.0  0.89350  0.53390  0.64330  1.0000 0.058105498
C   C16       1.0  0.10650  0.03390  0.35670  1.0000 0.058105498
C   C17       1.0  0.99220  0.59530  0.81950  1.0000 -0.1013909993
C   C18       1.0  0.00780  0.09530  0.18050  1.0000 -0.1013909993
C   C19       1.0  0.08460  0.57940  0.76920  1.0000 -0.0077993587
C   C20       1.0  0.91540  0.07940  0.23080  1.0000 -0.0077993587
C   C21       1.0  0.66900  0.44050  0.42800  1.0000 -0.1463097563
C   C22       1.0  0.33100  0.94050  0.57200  1.0000 -0.1401710978
C   C23       1.0  0.23250  0.59650  0.81040  1.0000 0.548949338
C   C24       1.0  0.76750  0.09650  0.18960  1.0000 0.548949338
C   C25       1.0  0.03210  0.54980  0.68180  1.0000 -0.1401710978
C   C26       1.0  0.96790  0.04980  0.31820  1.0000 -0.1401710978
C   C27       1.0  0.66650  0.45490  0.26630  1.0000 0.070327806
C   C28       1.0  0.33350  0.95490  0.73370  1.0000 0.070327806
C   C29       1.0  0.72520  0.45730  0.51920  1.0000 -0.1401710978
C   C30       1.0  0.27480  0.95730  0.48080  1.0000 -0.1401710978
C   C31       1.0  0.60590  0.37910  0.23670  1.0000 -0.1401710978
C   C32       1.0  0.39410  0.87910  0.76330  1.0000 -0.1401710978
C   C33       1.0  0.66680  0.51410  0.20190  1.0000 -0.1401710978
C   C34       1.0  0.33320  0.01410  0.79810  1.0000 -0.1401710978
C   C35       1.0  0.83900  0.50860  0.54880  1.0000 0.0755410562
C   C36       1.0  0.16100  0.00860  0.45120  1.0000 0.070327806
C   C37       1.0  0.47650  0.28440  0.11550  1.0000 0.5883390228
C   C38       1.0  0.52350  0.78440  0.88450  1.0000 0.5883390228
C   C39       1.0  0.84380  0.51970  0.39480  1.0000 -0.1401710978
C   C40       1.0  0.15620  0.01970  0.60520  1.0000 -0.1401710978
C   C41       1.0  0.54360  0.36560  0.14630  1.0000 -0.0029292592
C   C42       1.0  0.45640  0.86560  0.85370  1.0000 -0.0029292592
C   C43       1.0  0.89970  0.53790  0.48490  1.0000 -0.1401710978
C   C44       1.0  0.10030  0.03790  0.51510  1.0000 -0.1401710978
O   O1        1.0  0.62840  0.57911  0.79521  1.0000 -0.5174862524
O   O2        1.0  0.37160  0.07911  0.20479  1.0000 -0.5174862524
O   O3        1.0  0.31450  0.56784  0.76912  1.0000 -0.5174862524
O   O4        1.0  0.68550  0.06784  0.23088  1.0000 -0.5174862524
O   O5        1.0  0.68450  0.62485  0.06811  1.0000 -0.538299345
O   O6        1.0  0.31550  0.12485  0.93189  1.0000 -0.538299345
O   O7        1.0  0.54180  0.54828  0.96339  1.0000 -0.5174862524
O   O8        1.0  0.45820  0.04828  0.03661  1.0000 -0.5174862524
O   O9        1.0  0.50160  0.22912  0.17348  1.0000 -0.5329976758
O   O10       1.0  0.49840  0.72912  0.82652  1.0000 -0.5329976758
O   O11       1.0  0.79900  0.62894  0.90932  1.0000 -0.5494796267
O   O12       1.0  0.20100  0.12894  0.09068  1.0000 -0.5494796267
O   O13       1.0  0.27290  0.63670  0.88058  1.0000 -0.5174862524
O   O14       1.0  0.72710  0.13670  0.11942  1.0000 -0.5174862524
O   O15       1.0  0.40260  0.27849  0.03590  1.0000 -0.5329976758
O   O16       1.0  0.59740  0.77849  0.96410  1.0000 -0.5329976758
O   O17       1.0  0.90530  0.72820  0.11290  1.0000 -0.6014447143
O   O18       1.0  0.09470  0.22820  0.88710  1.0000 -0.6014447143
