# DDEC6 charges by PACMAN v1.1 (https://github.com/mtap-research/PACMAN-charge/)
data_2015[Co][nan]3[ASR]8
_chemical_formula_sum              "Co10 P4 H64 C92 N16 O36"
_cell_length_a       10.1032
_cell_length_b       9.2299
_cell_length_c       31.773
_cell_angle_alpha    90
_cell_angle_beta     107.486
_cell_angle_gamma    90

_symmetry_space_group_name_H-M    "P 1"
_symmetry_Int_Tables_number       1

loop_
  _symmetry_equiv_pos_as_xyz
  'x, y, z'

loop_
  _atom_site_type_symbol
  _atom_site_label
  _atom_site_symmetry_multiplicity
  _atom_site_fract_x
  _atom_site_fract_y
  _atom_site_fract_z
  _atom_site_occupancy
  _atom_site_charge
Co  Co1       1.0  0.90042  0.09649  0.78047  1.0000 0.9036729504
Co  Co2       1.0  0.90042  0.90351  0.28047  1.0000 0.9036729504
Co  Co3       1.0  0.32019  0.84455  0.90611  1.0000 0.9977906366
Co  Co4       1.0  0.32019  0.15545  0.40611  1.0000 0.9977906366
Co  Co5       1.0  0.88540  0.98689  0.37512  1.0000 1.087193804
Co  Co6       1.0  0.88540  0.01311  0.87512  1.0000 1.087193804
Co  Co7       1.0  0.45212  0.82028  0.34302  1.0000 0.9977906366
Co  Co8       1.0  0.45212  0.17972  0.84302  1.0000 0.9977906366
Co  Co9       1.0  0.86816  0.07046  0.47033  1.0000 0.8919992615
Co  Co10      1.0  0.86816  0.92954  0.97033  1.0000 0.8919992615
P   P1        1.0  0.17110  0.86850  0.37219  1.0000 1.2879603376
P   P2        1.0  0.17110  0.13150  0.87219  1.0000 1.2879603376
P   P3        1.0  0.60020  0.10590  0.37830  1.0000 1.2879603376
P   P4        1.0  0.60020  0.89410  0.87830  1.0000 1.2879603376
H   H1        1.0  0.00620  0.52170  0.46190  1.0000 0.1203419705
H   H2        1.0  0.00620  0.47830  0.96190  1.0000 0.1203419705
H   H3        1.0  0.17610  0.58990  0.34310  1.0000 0.1203419705
H   H4        1.0  0.17610  0.41010  0.84310  1.0000 0.1119840883
H   H5        1.0  0.76830  0.44580  0.28850  1.0000 0.1203419705
H   H6        1.0  0.76830  0.55420  0.78850  1.0000 0.1203419705
H   H7        1.0  0.59440  0.38420  0.40750  1.0000 0.1203419705
H   H8        1.0  0.59440  0.61580  0.90750  1.0000 0.1203419705
H   H9        1.0  0.53230  0.78740  0.25130  1.0000 0.1296376668
H   H10       1.0  0.53230  0.21260  0.75130  1.0000 0.1296376668
H   H11       1.0  0.34030  0.51230  0.30860  1.0000 0.1381683242
H   H12       1.0  0.34030  0.48770  0.80860  1.0000 0.1381683242
H   H13       1.0  0.39440  0.37890  0.24920  1.0000 0.1381683242
H   H14       1.0  0.39440  0.62110  0.74920  1.0000 0.1381683242
H   H15       1.0  0.59230  0.62450  0.19530  1.0000 0.1296376668
H   H16       1.0  0.59230  0.37550  0.69530  1.0000 0.1296376668
H   H17       1.0  0.60660  0.45770  0.20990  1.0000 0.1381683242
H   H18       1.0  0.60660  0.54230  0.70990  1.0000 0.1381683242
H   H19       1.0  0.41120  0.69750  0.13110  1.0000 0.1203419705
H   H20       1.0  0.41120  0.30250  0.63110  1.0000 0.1203419705
H   H21       1.0  0.13670  0.40640  0.05980  1.0000 0.1381683242
H   H22       1.0  0.13670  0.59360  0.55980  1.0000 0.1381683242
H   H23       1.0  0.22940  0.23070  0.11270  1.0000 0.1203419705
H   H24       1.0  0.22940  0.76930  0.61270  1.0000 0.1203419705
H   H25       1.0  0.41220  0.28570  0.17560  1.0000 0.1296376668
H   H26       1.0  0.41220  0.71430  0.67560  1.0000 0.1296376668
H   H27       1.0  0.21960  0.77670  0.06780  1.0000 0.1296376668
H   H28       1.0  0.21960  0.22330  0.56780  1.0000 0.1296376668
H   H29       1.0  0.10680  0.66160  0.04110  1.0000 0.1296376668
H   H30       1.0  0.10680  0.33840  0.54110  1.0000 0.1296376668
H   H31       1.0  0.23610  0.87210  0.99260  1.0000 0.1296376668
H   H32       1.0  0.23610  0.12790  0.49260  1.0000 0.1296376668
H   H33       1.0  0.35700  0.46210  0.02170  1.0000 0.1296376668
H   H34       1.0  0.35700  0.53790  0.52170  1.0000 0.1296376668
H   H35       1.0  0.41820  0.53660  0.95520  1.0000 0.1296376668
H   H36       1.0  0.41820  0.46340  0.45520  1.0000 0.1296376668
H   H37       1.0  0.95580  0.43110  0.75880  1.0000 0.1203419705
H   H38       1.0  0.95580  0.56890  0.25880  1.0000 0.1203419705
H   H39       1.0  0.08450  0.08360  0.70920  1.0000 0.1296376668
H   H40       1.0  0.08450  0.91640  0.20920  1.0000 0.1296376668
H   H41       1.0  0.14970  0.30010  0.67270  1.0000 0.1203419705
H   H42       1.0  0.14970  0.69990  0.17270  1.0000 0.1203419705
H   H43       1.0  0.08200  0.63280  0.72380  1.0000 0.1381683242
H   H44       1.0  0.08200  0.36720  0.22380  1.0000 0.1381683242
H   H45       1.0  0.13630  0.57830  0.68400  1.0000 0.1119840883
H   H46       1.0  0.13630  0.42170  0.18400  1.0000 0.1119840883
H   H47       1.0  0.95510  0.51510  0.61220  1.0000 0.1203419705
H   H48       1.0  0.95510  0.48490  0.11220  1.0000 0.1203419705
H   H49       1.0  0.85400  0.71710  0.71000  1.0000 0.1381683242
H   H50       1.0  0.85400  0.28290  0.21000  1.0000 0.1381683242
H   H51       1.0  0.64020  0.78090  0.66100  1.0000 0.1203419705
H   H52       1.0  0.64020  0.21910  0.16100  1.0000 0.1203419705
H   H53       1.0  0.58270  0.71380  0.58740  1.0000 0.1203419705
H   H54       1.0  0.58270  0.28620  0.08740  1.0000 0.1203419705
H   H55       1.0  0.78770  0.62080  0.53010  1.0000 0.1381683242
H   H56       1.0  0.78770  0.37920  0.03010  1.0000 0.1381683242
H   H57       1.0  0.62890  0.60520  0.52880  1.0000 0.1296376668
H   H58       1.0  0.62890  0.39480  0.02880  1.0000 0.1296376668
H   H59       1.0  0.83350  0.40560  0.48900  1.0000 0.1203419705
H   H60       1.0  0.83350  0.59440  0.98900  1.0000 0.1203419705
H   H61       1.0  0.62000  0.31240  0.57250  1.0000 0.1203419705
H   H62       1.0  0.62000  0.68760  0.07250  1.0000 0.1203419705
H   H63       1.0  0.66990  0.08840  0.53940  1.0000 0.1296376668
H   H64       1.0  0.66990  0.91160  0.03940  1.0000 0.1296376668
C   C1        1.0  0.12880  0.69850  0.39260  1.0000 -0.1975318174
C   C2        1.0  0.12880  0.30150  0.89260  1.0000 -0.1975318174
C   C3        1.0  0.07470  0.67680  0.42800  1.0000 0.002383174
C   C4        1.0  0.07470  0.32320  0.92800  1.0000 0.002383174
C   C5        1.0  0.03730  0.53690  0.43690  1.0000 -0.1062669585
C   C6        1.0  0.03730  0.46310  0.93690  1.0000 -0.1062669585
C   C7        1.0  0.04400  0.41980  0.41040  1.0000 -0.0628906171
C   C8        1.0  0.04400  0.58020  0.91040  1.0000 -0.0628906171
C   C9        1.0  0.09440  0.44160  0.37470  1.0000 -0.0390186856
C   C10       1.0  0.09440  0.55840  0.87470  1.0000 -0.0390186856
C   C11       1.0  0.13820  0.57750  0.36680  1.0000 -0.1175180087
C   C12       1.0  0.13820  0.42250  0.86680  1.0000 -0.1175180087
C   C13       1.0  0.05330  0.79910  0.45700  1.0000 0.609343486
C   C14       1.0  0.05330  0.20090  0.95700  1.0000 0.609343486
C   C15       1.0  0.99200  0.27390  0.41880  1.0000 0.578457581
C   C16       1.0  0.99200  0.72610  0.91880  1.0000 0.578457581
C   C17       1.0  0.10520  0.32810  0.34110  1.0000 0.5998552114
C   C18       1.0  0.10520  0.67190  0.84110  1.0000 0.5998552114
C   C19       1.0  0.64340  0.27640  0.35850  1.0000 -0.1975318174
C   C20       1.0  0.64340  0.72360  0.85850  1.0000 -0.1975318174
C   C21       1.0  0.69750  0.29660  0.32290  1.0000 -0.003725832
C   C22       1.0  0.69750  0.70340  0.82290  1.0000 -0.003725832
C   C23       1.0  0.73700  0.43280  0.31360  1.0000 -0.1062669585
C   C24       1.0  0.73700  0.56720  0.81360  1.0000 -0.1062669585
C   C25       1.0  0.73210  0.55180  0.34000  1.0000 -0.0628906171
C   C26       1.0  0.73210  0.44820  0.84000  1.0000 -0.0628906171
C   C27       1.0  0.67860  0.53200  0.37590  1.0000 -0.0390186856
C   C28       1.0  0.67860  0.46800  0.87590  1.0000 -0.0390186856
C   C29       1.0  0.63330  0.39600  0.38400  1.0000 -0.1175180087
C   C30       1.0  0.63330  0.60400  0.88400  1.0000 -0.1175180087
C   C31       1.0  0.71590  0.17390  0.29310  1.0000 0.5998552114
C   C32       1.0  0.71590  0.82610  0.79310  1.0000 0.5998552114
C   C33       1.0  0.78190  0.69870  0.33190  1.0000 0.578457581
C   C34       1.0  0.78190  0.30130  0.83190  1.0000 0.578457581
C   C35       1.0  0.66470  0.64770  0.40790  1.0000 0.5998552114
C   C36       1.0  0.66470  0.35230  0.90790  1.0000 0.5998552114
C   C37       1.0  0.49210  0.70210  0.25890  1.0000 0.1009072197
C   C38       1.0  0.49210  0.29790  0.75890  1.0000 0.1009072197
C   C39       1.0  0.38770  0.55080  0.28950  1.0000 -0.0390186856
C   C40       1.0  0.38770  0.44920  0.78950  1.0000 -0.0390186856
C   C41       1.0  0.41600  0.47730  0.25710  1.0000 -0.0958205144
C   C42       1.0  0.41600  0.52270  0.75710  1.0000 -0.0958205144
C   C43       1.0  0.54070  0.53960  0.20120  1.0000 -0.1727842754
C   C44       1.0  0.54070  0.46040  0.70120  1.0000 -0.1727842754
C   C45       1.0  0.42670  0.50020  0.15980  1.0000 0.1119840883
C   C46       1.0  0.42670  0.49980  0.65980  1.0000 0.1119840883
C   C47       1.0  0.37350  0.60240  0.12780  1.0000 -0.227302527
C   C48       1.0  0.37350  0.39760  0.62780  1.0000 -0.227302527
C   C49       1.0  0.26480  0.56750  0.09050  1.0000 0.1009072197
C   C50       1.0  0.26480  0.43250  0.59050  1.0000 0.1009072197
C   C51       1.0  0.21140  0.43010  0.08520  1.0000 -0.1574880908
C   C52       1.0  0.21140  0.56990  0.58520  1.0000 -0.1574880908
C   C53       1.0  0.26640  0.32610  0.11670  1.0000 -0.0787288378
C   C54       1.0  0.26640  0.67390  0.61670  1.0000 -0.0787288378
C   C55       1.0  0.37430  0.35820  0.15420  1.0000 -0.1727842754
C   C56       1.0  0.37430  0.64180  0.65420  1.0000 -0.1727842754
C   C57       1.0  0.20740  0.67850  0.05470  1.0000 -0.1727842754
C   C58       1.0  0.20740  0.32150  0.55470  1.0000 -0.1727842754
C   C59       1.0  0.27440  0.77860  0.99160  1.0000 0.0748237391
C   C60       1.0  0.27440  0.22140  0.49160  1.0000 0.0748237391
C   C61       1.0  0.34010  0.55420  0.00780  1.0000 -0.1175180087
C   C62       1.0  0.34010  0.44580  0.50780  1.0000 -0.1175180087
C   C63       1.0  0.37340  0.59590  0.97120  1.0000 -0.0187358743
C   C64       1.0  0.37340  0.40410  0.47120  1.0000 -0.0187358743
C   C65       1.0  0.99720  0.37000  0.74220  1.0000 0.1296376668
C   C66       1.0  0.99720  0.63000  0.24220  1.0000 0.1296376668
C   C67       1.0  0.06750  0.18170  0.71500  1.0000 -0.0390186856
C   C68       1.0  0.06750  0.81830  0.21500  1.0000 -0.0390186856
C   C69       1.0  0.10320  0.29990  0.69460  1.0000 -0.1175180087
C   C70       1.0  0.10320  0.70010  0.19460  1.0000 -0.1175180087
C   C71       1.0  0.06130  0.56740  0.69790  1.0000 -0.1764397661
C   C72       1.0  0.06130  0.43260  0.19790  1.0000 -0.1727842754
C   C73       1.0  0.92530  0.61040  0.66540  1.0000 0.1119840883
C   C74       1.0  0.92530  0.38960  0.16540  1.0000 0.1119840883
C   C75       1.0  0.89080  0.57040  0.62210  1.0000 -0.2141460831
C   C76       1.0  0.89080  0.42960  0.12210  1.0000 -0.2141460831
C   C77       1.0  0.83140  0.68900  0.67990  1.0000 -0.1574880908
C   C78       1.0  0.83140  0.31100  0.17990  1.0000 -0.1574880908
C   C79       1.0  0.70450  0.72690  0.65080  1.0000 -0.0654787103
C   C80       1.0  0.70450  0.27310  0.15080  1.0000 -0.0654787103
C   C81       1.0  0.67030  0.68710  0.60710  1.0000 -0.1764397661
C   C82       1.0  0.67030  0.31290  0.10710  1.0000 -0.1764397661
C   C83       1.0  0.76250  0.60870  0.59160  1.0000 0.1119840883
C   C84       1.0  0.76250  0.39130  0.09160  1.0000 0.1119840883
C   C85       1.0  0.72410  0.56980  0.54350  1.0000 -0.1764397661
C   C86       1.0  0.72410  0.43020  0.04350  1.0000 -0.1764397661
C   C87       1.0  0.78660  0.35340  0.50600  1.0000 0.1119840883
C   C88       1.0  0.78660  0.64660  0.00600  1.0000 0.1119840883
C   C89       1.0  0.67030  0.30440  0.55170  1.0000 -0.1175180087
C   C90       1.0  0.67030  0.69560  0.05170  1.0000 -0.1175180087
C   C91       1.0  0.69730  0.18250  0.53320  1.0000 -0.0390186856
C   C92       1.0  0.69730  0.81750  0.03320  1.0000 -0.0390186856
N   N1        1.0  0.43770  0.69200  0.29110  1.0000 -0.3275742958
N   N2        1.0  0.43770  0.30800  0.79110  1.0000 -0.3275742958
N   N3        1.0  0.48300  0.57370  0.23770  1.0000 0.0469365708
N   N4        1.0  0.48300  0.42630  0.73770  1.0000 0.0469365708
N   N5        1.0  0.33320  0.73430  0.96100  1.0000 -0.3242178391
N   N6        1.0  0.33320  0.26570  0.46100  1.0000 -0.3242178391
N   N7        1.0  0.27770  0.67010  0.02080  1.0000 0.0550519695
N   N8        1.0  0.27770  0.32990  0.52080  1.0000 0.0550519695
N   N9        1.0  0.00280  0.22770  0.74540  1.0000 -0.3114042188
N   N10       1.0  0.00280  0.77230  0.24540  1.0000 -0.3114042188
N   N11       1.0  0.05790  0.41740  0.71250  1.0000 0.0469365708
N   N12       1.0  0.05790  0.58260  0.21250  1.0000 0.0469365708
N   N13       1.0  0.76990  0.21160  0.50410  1.0000 -0.3114042188
N   N14       1.0  0.76990  0.78840  0.00410  1.0000 -0.3114042188
N   N15       1.0  0.72940  0.41620  0.53500  1.0000 0.0441888963
N   N16       1.0  0.72940  0.58380  0.03500  1.0000 0.0441888963
O   O1        1.0  0.24310  0.96370  0.41170  1.0000 -0.7364163677
O   O2        1.0  0.24310  0.03630  0.91170  1.0000 -0.7364163677
O   O3        1.0  0.26050  0.83890  0.34277  1.0000 -0.7605179975
O   O4        1.0  0.26050  0.16110  0.84277  1.0000 -0.7605179975
O   O5        1.0  0.03150  0.93010  0.34488  1.0000 -0.7665276657
O   O6        1.0  0.03150  0.06990  0.84488  1.0000 -0.7665276657
O   O7        1.0  0.98510  0.91160  0.43960  1.0000 -0.5995352199
O   O8        1.0  0.98510  0.08840  0.93960  1.0000 -0.5995352199
O   O9        1.0  0.09710  0.77980  0.49830  1.0000 -0.5868677328
O   O10       1.0  0.09710  0.22020  0.99830  1.0000 -0.5868677328
O   O11       1.0  0.95940  0.25390  0.45380  1.0000 -0.575818939
O   O12       1.0  0.95940  0.74610  0.95380  1.0000 -0.575818939
O   O13       1.0  0.98650  0.18230  0.38919  1.0000 -0.5367562006
O   O14       1.0  0.98650  0.81770  0.88919  1.0000 -0.5367562006
O   O15       1.0  0.21590  0.24860  0.35130  1.0000 -0.5995352199
O   O16       1.0  0.21590  0.75140  0.85130  1.0000 -0.5995352199
O   O17       1.0  0.01870  0.33090  0.30430  1.0000 -0.5205987374
O   O18       1.0  0.01870  0.66910  0.80430  1.0000 -0.5205987374
O   O19       1.0  0.51120  0.13700  0.40810  1.0000 -0.7536210845
O   O20       1.0  0.51120  0.86300  0.90810  1.0000 -0.7536210845
O   O21       1.0  0.52760  0.01210  0.33881  1.0000 -0.7364163677
O   O22       1.0  0.52760  0.98790  0.83881  1.0000 -0.7364163677
O   O23       1.0  0.74050  0.04380  0.40570  1.0000 -0.7605179975
O   O24       1.0  0.74050  0.95620  0.90570  1.0000 -0.7605179975
O   O25       1.0  0.78360  0.06110  0.31050  1.0000 -0.5995352199
O   O26       1.0  0.78360  0.93890  0.81050  1.0000 -0.5995352199
O   O27       1.0  0.66510  0.19120  0.25290  1.0000 -0.5571713279
O   O28       1.0  0.66510  0.80880  0.75290  1.0000 -0.5571713279
O   O29       1.0  0.81970  0.71520  0.29776  1.0000 -0.5700999926
O   O30       1.0  0.81970  0.28480  0.79776  1.0000 -0.5700999926
O   O31       1.0  0.78240  0.79330  0.35940  1.0000 -0.5205987374
O   O32       1.0  0.78240  0.20670  0.85940  1.0000 -0.5205987374
O   O33       1.0  0.55590  0.72500  0.39830  1.0000 -0.5700999926
O   O34       1.0  0.55590  0.27500  0.89830  1.0000 -0.575818939
O   O35       1.0  0.75260  0.64970  0.44500  1.0000 -0.5264289509
O   O36       1.0  0.75260  0.35030  0.94500  1.0000 -0.5264289509
