# DDEC6 charges by PACMAN v1.1 (https://github.com/mtap-research/PACMAN-charge/)
data_2015[Mn][tcs]3[ASR]1
_chemical_formula_sum              "Mn2 B2 H24 C26 N16 O4"
_cell_length_a       8.997
_cell_length_b       10.5163
_cell_length_c       10.686
_cell_angle_alpha    98.008
_cell_angle_beta     97.436
_cell_angle_gamma    111.11

_symmetry_space_group_name_H-M    "P 1"
_symmetry_Int_Tables_number       1

loop_
  _symmetry_equiv_pos_as_xyz
  'x, y, z'

loop_
  _atom_site_type_symbol
  _atom_site_label
  _atom_site_symmetry_multiplicity
  _atom_site_fract_x
  _atom_site_fract_y
  _atom_site_fract_z
  _atom_site_occupancy
  _atom_site_charge
Mn  Mn1       1.0  0.20171  0.74605  0.18588  1.0000 0.7496395196
Mn  Mn2       1.0  0.79829  0.25395  0.81412  1.0000 0.7496395196
B   B1        1.0  0.86400  0.10540  0.30990  1.0000 0.5086718883
B   B2        1.0  0.13600  0.89460  0.69010  1.0000 0.5086718883
H   H1        1.0  0.54550  0.96390  0.16810  1.0000 0.0987766414
H   H2        1.0  0.45450  0.03610  0.83190  1.0000 0.0987766414
H   H3        1.0  0.78290  0.89630  0.47250  1.0000 0.1204334806
H   H4        1.0  0.21710  0.10370  0.52750  1.0000 0.1204334806
H   H5        1.0  0.87020  0.08920  0.04440  1.0000 0.1076512446
H   H6        1.0  0.12980  0.91080  0.95560  1.0000 0.1076512446
H   H7        1.0  0.93470  0.86180  0.27570  1.0000 0.1076512446
H   H8        1.0  0.06530  0.13820  0.72430  1.0000 0.1076512446
H   H9        1.0  0.50090  0.72860  0.42550  1.0000 0.1204334806
H   H10       1.0  0.49910  0.27140  0.57450  1.0000 0.1204334806
H   H11       1.0  0.33660  0.10940  0.19340  1.0000 0.1076512446
H   H12       1.0  0.66340  0.89060  0.80660  1.0000 0.1076512446
H   H13       1.0  0.69340  0.29120  0.28460  1.0000 0.1204334806
H   H14       1.0  0.30660  0.70880  0.71540  1.0000 0.1204334806
H   H15       1.0  0.61370  0.32070  0.06630  1.0000 0.1302577878
H   H16       1.0  0.38630  0.67930  0.93370  1.0000 0.1302577878
H   H17       1.0  0.17850  0.24930  0.24660  1.0000 0.1302577878
H   H18       1.0  0.82150  0.75070  0.75340  1.0000 0.1302577878
H   H19       1.0  0.70450  0.14020  0.51160  1.0000 0.0987766414
H   H20       1.0  0.29550  0.85980  0.48840  1.0000 0.0987766414
H   H21       1.0  0.15090  0.34300  0.46520  1.0000 0.1204334806
H   H22       1.0  0.84910  0.65700  0.53480  1.0000 0.1204334806
H   H23       1.0  0.11600  0.44620  0.67360  1.0000 0.1204334806
H   H24       1.0  0.88400  0.55380  0.32640  1.0000 0.1204334806
C   C1        1.0  0.56910  0.92640  0.23830  1.0000 0.1302577878
C   C2        1.0  0.43090  0.07360  0.76170  1.0000 0.1302577878
C   C3        1.0  0.93250  0.52970  0.98950  1.0000 0.4562292333
C   C4        1.0  0.06750  0.47030  0.01050  1.0000 0.4562292333
C   C5        1.0  0.70150  0.89020  0.40590  1.0000 -0.0984236215
C   C6        1.0  0.29850  0.10980  0.59410  1.0000 -0.0984236215
C   C7        1.0  0.81670  0.14360  0.07670  1.0000 0.1302577878
C   C8        1.0  0.18330  0.85640  0.92330  1.0000 0.1302577878
C   C9        1.0  0.01540  0.94070  0.26200  1.0000 0.1302577878
C   C10       1.0  0.98460  0.05930  0.73800  1.0000 0.1302577878
C   C11       1.0  0.54490  0.79740  0.37940  1.0000 -0.0533233312
C   C12       1.0  0.45510  0.20260  0.62060  1.0000 -0.0533233312
C   C13       1.0  0.23550  0.07650  0.21670  1.0000 -0.0618009818
C   C14       1.0  0.76450  0.92350  0.78330  1.0000 -0.0618009818
C   C15       1.0  0.71980  0.25450  0.21040  1.0000 -0.0896372263
C   C16       1.0  0.28020  0.74550  0.78960  1.0000 -0.0896372263
C   C17       1.0  0.67580  0.27030  0.08900  1.0000 -0.0427772225
C   C18       1.0  0.32420  0.72970  0.91100  1.0000 -0.0427772225
C   C19       1.0  0.14840  0.15490  0.24650  1.0000 -0.0840714862
C   C20       1.0  0.85160  0.84510  0.75350  1.0000 -0.0840714862
C   C21       1.0  0.81150  0.20360  0.52640  1.0000 0.1204334806
C   C22       1.0  0.18850  0.79640  0.47360  1.0000 0.1204334806
C   C23       1.0  0.05690  0.31430  0.49940  1.0000 -0.0896372263
C   C24       1.0  0.94310  0.68570  0.50060  1.0000 -0.0896372263
C   C25       1.0  0.03680  0.37120  0.61500  1.0000 -0.0427772225
C   C26       1.0  0.96320  0.62880  0.38500  1.0000 -0.0427772225
N   N1        1.0  0.46130  0.82120  0.27313  1.0000 -0.2794009661
N   N2        1.0  0.53870  0.17880  0.72687  1.0000 -0.2794009661
N   N3        1.0  0.81120  0.17345  0.20293  1.0000 -0.2197734455
N   N4        1.0  0.18880  0.82655  0.79707  1.0000 -0.2197734455
N   N5        1.0  0.71750  0.97400  0.31517  1.0000 -0.2197734455
N   N6        1.0  0.28250  0.02600  0.68483  1.0000 -0.2197734455
N   N7        1.0  0.91080  0.20550  0.44180  1.0000 -0.211797974
N   N8        1.0  0.08920  0.79450  0.55820  1.0000 -0.211797974
N   N9        1.0  0.00710  0.06800  0.27652  1.0000 -0.2197734455
N   N10       1.0  0.99290  0.93200  0.72348  1.0000 -0.2197734455
N   N11       1.0  0.15080  0.94100  0.22621  1.0000 -0.2995436778
N   N12       1.0  0.84920  0.05900  0.77379  1.0000 -0.2995436778
N   N13       1.0  0.88090  0.30050  0.63237  1.0000 -0.2851483141
N   N14       1.0  0.11910  0.69950  0.36763  1.0000 -0.2794009661
N   N15       1.0  0.73750  0.20030  0.00425  1.0000 -0.2995436778
N   N16       1.0  0.26250  0.79970  0.99575  1.0000 -0.2995436778
O   O1        1.0  0.94957  0.63610  0.06921  1.0000 -0.5073039447
O   O2        1.0  0.05043  0.36390  0.93079  1.0000 -0.5073039447
O   O3        1.0  0.81866  0.46677  0.89472  1.0000 -0.5073039447
O   O4        1.0  0.18134  0.53323  0.10528  1.0000 -0.5073039447
