# DDEC6 charges by PACMAN v1.1 (https://github.com/mtap-research/PACMAN-charge/)
data_2015[Zn][qtz]3[ASR]2
_chemical_formula_sum              "Zn3 H24 C36 N6 O12"
_cell_length_a       6.258
_cell_length_b       15.526
_cell_length_c       15.526
_cell_angle_alpha    120
_cell_angle_beta     90
_cell_angle_gamma    90

_symmetry_space_group_name_H-M    "P 1"
_symmetry_Int_Tables_number       1

loop_
  _symmetry_equiv_pos_as_xyz
  'x, y, z'

loop_
  _atom_site_type_symbol
  _atom_site_label
  _atom_site_symmetry_multiplicity
  _atom_site_fract_x
  _atom_site_fract_y
  _atom_site_fract_z
  _atom_site_occupancy
  _atom_site_charge
Zn  Zn1       1.0  0.95155  0.16673  0.33333  1.0000 0.7383486927
Zn  Zn2       1.0  0.61822  0.16661  0.83327  1.0000 0.7383486927
Zn  Zn3       1.0  0.28488  0.66667  0.83339  1.0000 0.7383486927
H   H1        1.0  0.22350  0.86918  0.99352  1.0000 0.0679147692
H   H2        1.0  0.95268  0.54910  0.60496  1.0000 0.1191791818
H   H3        1.0  0.43450  0.00481  0.13916  1.0000 0.1191791818
H   H4        1.0  0.44278  0.32821  0.52692  1.0000 0.1191791818
H   H5        1.0  0.95258  0.78504  0.06153  1.0000 0.1191791818
H   H6        1.0  0.22109  0.46338  0.66958  1.0000 0.0679147692
H   H7        1.0  0.72065  0.65796  0.91775  1.0000 0.0822973004
H   H8        1.0  0.72129  0.67311  0.74914  1.0000 0.0822973004
H   H9        1.0  0.89017  0.12433  0.13082  1.0000 0.0679147692
H   H10       1.0  0.61935  0.05586  0.45090  1.0000 0.1191791818
H   H11       1.0  0.11042  0.13572  0.99379  1.0000 0.1191791818
H   H12       1.0  0.10945  0.19870  0.67179  1.0000 0.1191791818
H   H13       1.0  0.61925  0.27649  0.21496  1.0000 0.1191791818
H   H14       1.0  0.88776  0.20620  0.53662  1.0000 0.0679147692
H   H15       1.0  0.38732  0.25979  0.34204  1.0000 0.0822973004
H   H16       1.0  0.38796  0.07603  0.32689  1.0000 0.0822973004
H   H17       1.0  0.55683  0.00648  0.87567  1.0000 0.0679147692
H   H18       1.0  0.28601  0.39504  0.94414  1.0000 0.1191791818
H   H19       1.0  0.76783  0.86084  0.86565  1.0000 0.1191791818
H   H20       1.0  0.77611  0.47308  0.80130  1.0000 0.1191791818
H   H21       1.0  0.28591  0.93847  0.72351  1.0000 0.1191791818
H   H22       1.0  0.55442  0.33042  0.79380  1.0000 0.0679147692
H   H23       1.0  0.05398  0.08225  0.74021  1.0000 0.0822973004
H   H24       1.0  0.05462  0.25086  0.92397  1.0000 0.0822973004
C   C1        1.0  0.85010  0.98120  0.18890  1.0000 0.5461998722
C   C2        1.0  0.84870  0.35170  0.47770  1.0000 0.5461998722
C   C3        1.0  0.70790  0.90250  0.10720  1.0000 0.0216706905
C   C4        1.0  0.39050  0.85270  0.01090  1.0000 0.1191791818
C   C5        1.0  0.70930  0.43090  0.55840  1.0000 0.0216706905
C   C6        1.0  0.78800  0.52780  0.61970  1.0000 -0.1259384552
C   C7        1.0  0.50760  0.92790  0.09140  1.0000 -0.1188163359
C   C8        1.0  0.50780  0.40660  0.57590  1.0000 -0.1188163359
C   C9        1.0  0.78740  0.80570  0.04660  1.0000 -0.1188163359
C   C10       1.0  0.38960  0.48020  0.65420  1.0000 0.1055859527
C   C11       1.0  0.65950  0.73670  0.96870  1.0000 0.1027418314
C   C12       1.0  0.66080  0.59460  0.69670  1.0000 0.1027418314
C   C13       1.0  0.51677  0.20770  0.01880  1.0000 0.5443606278
C   C14       1.0  0.51537  0.12600  0.64830  1.0000 0.5461998722
C   C15       1.0  0.37457  0.20470  0.09750  1.0000 0.0216706905
C   C16       1.0  0.05717  0.15820  0.14730  1.0000 0.1191791818
C   C17       1.0  0.37597  0.12750  0.56910  1.0000 0.0216706905
C   C18       1.0  0.45467  0.09190  0.47220  1.0000 -0.1259384552
C   C19       1.0  0.17427  0.16350  0.07210  1.0000 -0.1188163359
C   C20       1.0  0.17447  0.16930  0.59340  1.0000 -0.1188163359
C   C21       1.0  0.45407  0.24090  0.19430  1.0000 -0.1188163359
C   C22       1.0  0.05627  0.17400  0.51980  1.0000 0.1055859527
C   C23       1.0  0.32617  0.23200  0.26330  1.0000 0.1027418314
C   C24       1.0  0.32747  0.10210  0.40540  1.0000 0.1027418314
C   C25       1.0  0.18343  0.81110  0.79230  1.0000 0.5461998722
C   C26       1.0  0.18203  0.52230  0.87400  1.0000 0.5461998722
C   C27       1.0  0.04123  0.89280  0.79530  1.0000 0.0216706905
C   C28       1.0  0.72383  0.98910  0.84180  1.0000 0.1191791818
C   C29       1.0  0.04263  0.44160  0.87250  1.0000 0.0216706905
C   C30       1.0  0.12133  0.38030  0.90810  1.0000 -0.1259384552
C   C31       1.0  0.84093  0.90860  0.83650  1.0000 -0.1188163359
C   C32       1.0  0.84113  0.42410  0.83070  1.0000 -0.1188163359
C   C33       1.0  0.12073  0.95340  0.75910  1.0000 -0.1188163359
C   C34       1.0  0.72293  0.34580  0.82600  1.0000 0.1055859527
C   C35       1.0  0.99283  0.03130  0.76800  1.0000 0.1027418314
C   C36       1.0  0.99413  0.30330  0.89790  1.0000 0.1027418314
N   N1        1.0  0.46460  0.76180  0.95280  1.0000 -0.2428897544
N   N2        1.0  0.46500  0.57220  0.71410  1.0000 -0.2428897544
N   N3        1.0  0.13127  0.19100  0.23820  1.0000 -0.2428897544
N   N4        1.0  0.13167  0.14190  0.42780  1.0000 -0.2428897544
N   N5        1.0  0.79793  0.04720  0.80900  1.0000 -0.2428897544
N   N6        1.0  0.79833  0.28590  0.85810  1.0000 -0.2428897544
O   O1        1.0  0.75190  0.27120  0.41920  1.0000 -0.5309158066
O   O2        1.0  0.75150  0.06150  0.24780  1.0000 -0.5309158066
O   O3        1.0  0.04000  0.36810  0.47590  1.0000 -0.5309158066
O   O4        1.0  0.04020  0.96560  0.19060  1.0000 -0.519952009
O   O5        1.0  0.41857  0.14800  0.72880  1.0000 -0.5309158066
O   O6        1.0  0.41817  0.18630  0.93850  1.0000 -0.5309158066
O   O7        1.0  0.70667  0.10780  0.63190  1.0000 -0.5309158066
O   O8        1.0  0.70687  0.22500  0.03440  1.0000 -0.519952009
O   O9        1.0  0.08523  0.58080  0.85200  1.0000 -0.5309158066
O   O10       1.0  0.08483  0.75220  0.81370  1.0000 -0.5309158066
O   O11       1.0  0.37333  0.52410  0.89220  1.0000 -0.5309158066
O   O12       1.0  0.37353  0.80940  0.77500  1.0000 -0.519952009
