# DDEC6 charges by PACMAN v1.1 (https://github.com/mtap-research/PACMAN-charge/)
data_2015[Gd][nan]3[ASR]3
_chemical_formula_sum              "Gd8 H96 C168 O60"
_cell_length_a       14.626
_cell_length_b       15.297
_cell_length_c       23.009
_cell_angle_alpha    84.817
_cell_angle_beta     83.605
_cell_angle_gamma    86.488

_symmetry_space_group_name_H-M    "P 1"
_symmetry_Int_Tables_number       1

loop_
  _symmetry_equiv_pos_as_xyz
  'x, y, z'

loop_
  _atom_site_type_symbol
  _atom_site_label
  _atom_site_symmetry_multiplicity
  _atom_site_fract_x
  _atom_site_fract_y
  _atom_site_fract_z
  _atom_site_occupancy
  _atom_site_charge
Gd  Gd1       1.0  0.18242  0.87077  0.71779  1.0000 2.0493359279
Gd  Gd2       1.0  0.81758  0.12923  0.28221  1.0000 2.0493359279
Gd  Gd3       1.0  0.20964  0.11946  0.75979  1.0000 2.0178132962
Gd  Gd4       1.0  0.79036  0.88054  0.24021  1.0000 2.0178132962
Gd  Gd5       1.0  0.32985  0.33278  0.77277  1.0000 2.0493359279
Gd  Gd6       1.0  0.67015  0.66722  0.22723  1.0000 2.0493359279
Gd  Gd7       1.0  0.29343  0.59771  0.76450  1.0000 2.0293819617
Gd  Gd8       1.0  0.70657  0.40229  0.23550  1.0000 2.0293819617
H   H1        1.0  0.35210  0.98220  0.59270  1.0000 0.1213486091
H   H2        1.0  0.64790  0.01780  0.40730  1.0000 0.1213486091
H   H3        1.0  0.14370  0.14220  0.54310  1.0000 0.1213486091
H   H4        1.0  0.85630  0.85780  0.45690  1.0000 0.1213486091
H   H5        1.0  0.40510  0.96610  0.49540  1.0000 0.1213486091
H   H6        1.0  0.59490  0.03390  0.50460  1.0000 0.1213486091
H   H7        1.0  0.19120  0.12190  0.44630  1.0000 0.1396669663
H   H8        1.0  0.80880  0.87810  0.55370  1.0000 0.1396669663
H   H9        1.0  0.20350  0.35510  0.64140  1.0000 0.1296575592
H   H10       1.0  0.79650  0.64490  0.35860  1.0000 0.1296575592
H   H11       1.0  0.21060  0.28080  0.55910  1.0000 0.1296575592
H   H12       1.0  0.78940  0.71920  0.44090  1.0000 0.1396669663
H   H13       1.0  0.39000  0.51810  0.56180  1.0000 0.1213486091
H   H14       1.0  0.61000  0.48190  0.43820  1.0000 0.1213486091
H   H15       1.0  0.40060  0.44070  0.47920  1.0000 0.1296575592
H   H16       1.0  0.59940  0.55930  0.52080  1.0000 0.1296575592
H   H17       1.0  0.53070  0.43130  0.66980  1.0000 0.1296575592
H   H18       1.0  0.46930  0.56870  0.33020  1.0000 0.1296575592
H   H19       1.0  0.63900  0.56800  0.78290  1.0000 0.1213486091
H   H20       1.0  0.36100  0.43200  0.21710  1.0000 0.1213486091
H   H21       1.0  0.67200  0.42150  0.61400  1.0000 0.1396669663
H   H22       1.0  0.32800  0.57850  0.38600  1.0000 0.1396669663
H   H23       1.0  0.78230  0.55150  0.73170  1.0000 0.1296575592
H   H24       1.0  0.21770  0.44850  0.26830  1.0000 0.1296575592
H   H25       1.0  0.91030  0.12640  0.93490  1.0000 0.1296575592
H   H26       1.0  0.08970  0.87360  0.06510  1.0000 0.1296575592
H   H27       1.0  0.73740  0.98210  0.86340  1.0000 0.1296575592
H   H28       1.0  0.26260  0.01790  0.13660  1.0000 0.1296575592
H   H29       1.0  0.02990  0.07900  0.86860  1.0000 0.1296575592
H   H30       1.0  0.97010  0.92100  0.13140  1.0000 0.1296575592
H   H31       1.0  0.85960  0.93530  0.79860  1.0000 0.1213486091
H   H32       1.0  0.14040  0.06470  0.20140  1.0000 0.1213486091
H   H33       1.0  0.14690  0.16190  0.97590  1.0000 0.1213486091
H   H34       1.0  0.85310  0.83810  0.02410  1.0000 0.1213486091
H   H35       1.0  0.41000  0.18270  0.90960  1.0000 0.1213486091
H   H36       1.0  0.59000  0.81730  0.09040  1.0000 0.1213486091
H   H37       1.0  0.45270  0.19200  0.00350  1.0000 0.1296575592
H   H38       1.0  0.54730  0.80800  0.99650  1.0000 0.1296575592
H   H39       1.0  0.18730  0.17440  0.06890  1.0000 0.1396669663
H   H40       1.0  0.81270  0.82560  0.93110  1.0000 0.1396669663
H   H41       1.0  0.30920  0.35220  0.97400  1.0000 0.1116278331
H   H42       1.0  0.69080  0.64780  0.02600  1.0000 0.1116278331
H   H43       1.0  0.16520  0.57420  0.93320  1.0000 0.1296575592
H   H44       1.0  0.83480  0.42580  0.06680  1.0000 0.1296575592
H   H45       1.0  0.27810  0.37300  0.07290  1.0000 0.1396669663
H   H46       1.0  0.72190  0.62700  0.92710  1.0000 0.1396669663
H   H47       1.0  0.43530  0.04760  0.08320  1.0000 0.1396669663
H   H48       1.0  0.56470  0.95240  0.91680  1.0000 0.1396669663
H   H49       1.0  0.55660  0.20830  0.21450  1.0000 0.1296575592
H   H50       1.0  0.44340  0.79170  0.78550  1.0000 0.1296575592
H   H51       1.0  0.56350  0.99310  0.12720  1.0000 0.1213486091
H   H52       1.0  0.43650  0.00690  0.87280  1.0000 0.1213486091
H   H53       1.0  0.42960  0.26500  0.16810  1.0000 0.1465383109
H   H54       1.0  0.57040  0.73500  0.83190  1.0000 0.1465383109
H   H55       1.0  0.07760  0.49710  0.70820  1.0000 0.1213486091
H   H56       1.0  0.92240  0.50290  0.29180  1.0000 0.1213486091
H   H57       1.0  0.96650  0.72370  0.63800  1.0000 0.1296575592
H   H58       1.0  0.03350  0.27630  0.36200  1.0000 0.1296575592
H   H59       1.0  0.96140  0.42200  0.67710  1.0000 0.1396669663
H   H60       1.0  0.03860  0.57800  0.32290  1.0000 0.1396669663
H   H61       1.0  0.84090  0.08330  0.11460  1.0000 0.1296575592
H   H62       1.0  0.15910  0.91670  0.88540  1.0000 0.1296575592
H   H63       1.0  0.82260  0.02030  0.03010  1.0000 0.1396669663
H   H64       1.0  0.17740  0.97970  0.96990  1.0000 0.1396669663
H   H65       1.0  0.68930  0.29600  0.06140  1.0000 0.1213486091
H   H66       1.0  0.31070  0.70400  0.93860  1.0000 0.1213486091
H   H67       1.0  0.67500  0.23410  0.97530  1.0000 0.1396669663
H   H68       1.0  0.32500  0.76590  0.02470  1.0000 0.1396669663
H   H69       1.0  0.36030  0.32720  0.35380  1.0000 0.1296575592
H   H70       1.0  0.63970  0.67280  0.64620  1.0000 0.1296575592
H   H71       1.0  0.50150  0.30010  0.30320  1.0000 0.1213486091
H   H72       1.0  0.49850  0.69990  0.69680  1.0000 0.1213486091
H   H73       1.0  0.59700  0.20030  0.45340  1.0000 0.1213486091
H   H74       1.0  0.40300  0.79970  0.54660  1.0000 0.1213486091
H   H75       1.0  0.45550  0.23390  0.50380  1.0000 0.1396669663
H   H76       1.0  0.54450  0.76610  0.49620  1.0000 0.1396669663
H   H77       1.0  0.85070  0.64910  0.60970  1.0000 0.1396669663
H   H78       1.0  0.14930  0.35090  0.39030  1.0000 0.1396669663
H   H79       1.0  0.13220  0.59400  0.03170  1.0000 0.1296575592
H   H80       1.0  0.86780  0.40600  0.96830  1.0000 0.1296575592
H   H81       1.0  0.08720  0.73910  0.19630  1.0000 0.1213486091
H   H82       1.0  0.91280  0.26090  0.80370  1.0000 0.1213486091
H   H83       1.0  0.20130  0.64500  0.15370  1.0000 0.1396669663
H   H84       1.0  0.79870  0.35500  0.84630  1.0000 0.1396669663
H   H85       1.0  0.01450  0.47510  0.13720  1.0000 0.1396669663
H   H86       1.0  0.98550  0.52490  0.86280  1.0000 0.1396669663
H   H87       1.0  0.89860  0.56700  0.18130  1.0000 0.1296575592
H   H88       1.0  0.10140  0.43300  0.81870  1.0000 0.1296575592
H   H89       1.0  0.48230  0.05340  0.34570  1.0000 0.1396669663
H   H90       1.0  0.51770  0.94660  0.65430  1.0000 0.1396669663
H   H91       1.0  0.32310  0.86220  0.41980  1.0000 0.1296575592
H   H92       1.0  0.67690  0.13780  0.58020  1.0000 0.1296575592
H   H93       1.0  0.59090  0.94850  0.31090  1.0000 0.1296575592
H   H94       1.0  0.40910  0.05150  0.68910  1.0000 0.1296575592
H   H95       1.0  0.43350  0.75730  0.38390  1.0000 0.1296575592
H   H96       1.0  0.56650  0.24270  0.61610  1.0000 0.1296575592
C   C1        1.0  0.21320  0.07760  0.64070  1.0000 0.5796705793
C   C2        1.0  0.78680  0.92240  0.35930  1.0000 0.5796705793
C   C3        1.0  0.24350  0.06490  0.57790  1.0000 -0.0487938368
C   C4        1.0  0.75650  0.93510  0.42210  1.0000 -0.0487938368
C   C5        1.0  0.32060  0.01130  0.56310  1.0000 -0.0720391062
C   C6        1.0  0.67940  0.98870  0.43690  1.0000 -0.0720391062
C   C7        1.0  0.19570  0.10610  0.53360  1.0000 -0.0850312773
C   C8        1.0  0.80430  0.89390  0.46640  1.0000 -0.0850312773
C   C9        1.0  0.30200  0.04060  0.46160  1.0000 0.249349774
C   C10       1.0  0.69800  0.95940  0.53840  1.0000 0.249349774
C   C11       1.0  0.35160  0.00020  0.50500  1.0000 -0.2290827894
C   C12       1.0  0.64840  0.99980  0.49500  1.0000 -0.2290827894
C   C13       1.0  0.22400  0.09420  0.47570  1.0000 -0.1983931512
C   C14       1.0  0.77600  0.90580  0.52430  1.0000 -0.1983931512
C   C15       1.0  0.29720  0.44350  0.61140  1.0000 -0.0487938368
C   C16       1.0  0.70280  0.55650  0.38860  1.0000 -0.0487938368
C   C17       1.0  0.29270  0.49020  0.66520  1.0000 0.6020030688
C   C18       1.0  0.70730  0.50980  0.33480  1.0000 0.6020030688
C   C19       1.0  0.24370  0.37260  0.60880  1.0000 -0.0720391062
C   C20       1.0  0.75630  0.62740  0.39120  1.0000 -0.0720391062
C   C21       1.0  0.30770  0.35220  0.51190  1.0000 0.249349774
C   C22       1.0  0.69230  0.64780  0.48810  1.0000 0.249349774
C   C23       1.0  0.24800  0.32770  0.55990  1.0000 -0.1903079226
C   C24       1.0  0.75200  0.67230  0.44010  1.0000 -0.1903079226
C   C25       1.0  0.35490  0.46940  0.56180  1.0000 -0.0720391062
C   C26       1.0  0.64510  0.53060  0.43820  1.0000 -0.0720391062
C   C27       1.0  0.36090  0.42350  0.51210  1.0000 -0.2211981745
C   C28       1.0  0.63910  0.57650  0.48790  1.0000 -0.2211981745
C   C29       1.0  0.47600  0.51740  0.76240  1.0000 0.6020030688
C   C30       1.0  0.52400  0.48260  0.23760  1.0000 0.6020030688
C   C31       1.0  0.58110  0.45690  0.68130  1.0000 -0.0720391062
C   C32       1.0  0.41890  0.54310  0.31870  1.0000 -0.0720391062
C   C33       1.0  0.64600  0.53750  0.74940  1.0000 -0.0800700235
C   C34       1.0  0.35400  0.46250  0.25060  1.0000 -0.0800700235
C   C35       1.0  0.66520  0.45080  0.64800  1.0000 -0.2087561986
C   C36       1.0  0.33480  0.54920  0.35200  1.0000 -0.2087561986
C   C37       1.0  0.73950  0.48900  0.66600  1.0000 0.2583152365
C   C38       1.0  0.26050  0.51100  0.33400  1.0000 0.2583152365
C   C39       1.0  0.57090  0.50130  0.73220  1.0000 -0.0423528932
C   C40       1.0  0.42910  0.49870  0.26780  1.0000 -0.0423528932
C   C41       1.0  0.73110  0.52990  0.71830  1.0000 -0.2211981745
C   C42       1.0  0.26890  0.47010  0.28170  1.0000 -0.2211981745
C   C43       1.0  0.03270  0.96710  0.78610  1.0000 0.6104523327
C   C44       1.0  0.96730  0.03290  0.21390  1.0000 0.6104523327
C   C45       1.0  0.89930  0.08820  0.90750  1.0000 -0.2401635859
C   C46       1.0  0.10070  0.91180  0.09250  1.0000 -0.2401635859
C   C47       1.0  0.95800  0.00160  0.82720  1.0000 -0.0606577344
C   C48       1.0  0.04200  0.99840  0.17280  1.0000 -0.0606577344
C   C49       1.0  0.81210  0.06040  0.90600  1.0000 0.2665288162
C   C50       1.0  0.18790  0.93960  0.09400  1.0000 0.2665288162
C   C51       1.0  0.79610  0.00170  0.86470  1.0000 -0.2211981745
C   C52       1.0  0.20390  0.99830  0.13530  1.0000 -0.2211981745
C   C53       1.0  0.97130  0.05900  0.86770  1.0000 -0.0606577344
C   C54       1.0  0.02870  0.94100  0.13230  1.0000 -0.0606577344
C   C55       1.0  0.86970  0.97370  0.82600  1.0000 -0.0720391062
C   C56       1.0  0.13030  0.02630  0.17400  1.0000 -0.0720391062
C   C57       1.0  0.74910  0.12260  0.99390  1.0000 0.2307579081
C   C58       1.0  0.25090  0.87740  0.00610  1.0000 0.2307579081
C   C59       1.0  0.24830  0.16630  0.87350  1.0000 0.6104523327
C   C60       1.0  0.75170  0.83370  0.12650  1.0000 0.6104523327
C   C61       1.0  0.27550  0.17240  0.93250  1.0000 -0.0606577344
C   C62       1.0  0.72450  0.82760  0.06750  1.0000 -0.0606577344
C   C63       1.0  0.32220  0.18400  0.04450  1.0000 0.2404969085
C   C64       1.0  0.67780  0.81600  0.95550  1.0000 0.2404969085
C   C65       1.0  0.20810  0.16880  0.98130  1.0000 -0.0720391062
C   C66       1.0  0.79190  0.83120  0.01870  1.0000 -0.0720391062
C   C67       1.0  0.36510  0.18080  0.94160  1.0000 -0.0720391062
C   C68       1.0  0.63490  0.81920  0.05840  1.0000 -0.0720391062
C   C69       1.0  0.39140  0.18660  0.99770  1.0000 -0.2211981745
C   C70       1.0  0.60860  0.81340  0.00230  1.0000 -0.2211981745
C   C71       1.0  0.23210  0.17560  0.03680  1.0000 -0.1983931512
C   C72       1.0  0.76790  0.82440  0.96320  1.0000 -0.1983931512
C   C73       1.0  0.27350  0.40130  0.98560  1.0000 -0.0720391062
C   C74       1.0  0.72650  0.59870  0.01440  1.0000 -0.0720391062
C   C75       1.0  0.23990  0.46070  0.94410  1.0000 -0.0487938368
C   C76       1.0  0.76010  0.53930  0.05590  1.0000 -0.0487938368
C   C77       1.0  0.26190  0.44520  0.88050  1.0000 0.6288750778
C   C78       1.0  0.73810  0.55480  0.11950  1.0000 0.6288750778
C   C79       1.0  0.18760  0.53320  0.96120  1.0000 -0.0720391062
C   C80       1.0  0.81240  0.46680  0.03880  1.0000 -0.0720391062
C   C81       1.0  0.25490  0.41340  0.04490  1.0000 -0.1983931512
C   C82       1.0  0.74510  0.58660  0.95510  1.0000 -0.1983931512
C   C83       1.0  0.45970  0.07980  0.10970  1.0000 -0.2211981745
C   C84       1.0  0.54030  0.92020  0.89030  1.0000 -0.2211981745
C   C85       1.0  0.42050  0.16090  0.12240  1.0000 0.249349774
C   C86       1.0  0.57950  0.83910  0.87760  1.0000 0.249349774
C   C87       1.0  0.57120  0.09260  0.17800  1.0000 -0.0800700235
C   C88       1.0  0.42880  0.90740  0.82200  1.0000 -0.0800700235
C   C89       1.0  0.53190  0.17530  0.18850  1.0000 -0.0606577344
C   C90       1.0  0.46810  0.82470  0.81150  1.0000 -0.0606577344
C   C91       1.0  0.53550  0.04690  0.13670  1.0000 -0.0720391062
C   C92       1.0  0.46450  0.95310  0.86330  1.0000 -0.0720391062
C   C93       1.0  0.65020  0.05610  0.20800  1.0000 0.6173739146
C   C94       1.0  0.34980  0.94390  0.79200  1.0000 0.6173739146
C   C95       1.0  0.45590  0.20970  0.16070  1.0000 -0.2087561986
C   C96       1.0  0.54410  0.79030  0.83930  1.0000 -0.2087561986
C   C97       1.0  0.03140  0.61930  0.67920  1.0000 -0.0720391062
C   C98       1.0  0.96860  0.38070  0.32080  1.0000 -0.0720391062
C   C99       1.0  0.03120  0.52780  0.68920  1.0000 -0.0800700235
C   C100      1.0  0.96880  0.47220  0.31080  1.0000 -0.0800700235
C   C101      1.0  0.96440  0.66340  0.64740  1.0000 -0.0720391062
C   C102      1.0  0.03560  0.33660  0.35260  1.0000 -0.0720391062
C   C103      1.0  0.96200  0.48290  0.67070  1.0000 -0.1983931512
C   C104      1.0  0.03800  0.51710  0.32930  1.0000 -0.1983931512
C   C105      1.0  0.09750  0.66820  0.70480  1.0000 0.6502324652
C   C106      1.0  0.90250  0.33180  0.29520  1.0000 0.6502324652
C   C107      1.0  0.89390  0.53000  0.64260  1.0000 0.2307579081
C   C108      1.0  0.10610  0.47000  0.35740  1.0000 0.2307579081
C   C109      1.0  0.80670  0.11360  0.08670  1.0000 -0.0720391062
C   C110      1.0  0.19330  0.88640  0.91330  1.0000 -0.0720391062
C   C111      1.0  0.79700  0.07630  0.03600  1.0000 -0.1983931512
C   C112      1.0  0.20300  0.92370  0.96400  1.0000 -0.1983931512
C   C113      1.0  0.76610  0.19600  0.09710  1.0000 -0.0423528932
C   C114      1.0  0.23390  0.80400  0.90290  1.0000 -0.0423528932
C   C115      1.0  0.71690  0.24080  0.05510  1.0000 -0.0800700235
C   C116      1.0  0.28310  0.75920  0.94490  1.0000 -0.0800700235
C   C117      1.0  0.70840  0.20380  0.00360  1.0000 -0.2087561986
C   C118      1.0  0.29160  0.79620  0.99640  1.0000 -0.2087561986
C   C119      1.0  0.39680  0.28650  0.43360  1.0000 0.2307579081
C   C120      1.0  0.60320  0.71350  0.56640  1.0000 0.2307579081
C   C121      1.0  0.40920  0.30360  0.37380  1.0000 -0.1903079226
C   C122      1.0  0.59080  0.69640  0.62620  1.0000 -0.1903079226
C   C123      1.0  0.56550  0.24820  0.37240  1.0000 -0.0320543934
C   C124      1.0  0.43450  0.75180  0.62760  1.0000 -0.0320543934
C   C125      1.0  0.49300  0.28630  0.34360  1.0000 -0.0800700235
C   C126      1.0  0.50700  0.71370  0.65640  1.0000 -0.0800700235
C   C127      1.0  0.54980  0.22760  0.43320  1.0000 -0.0800700235
C   C128      1.0  0.45020  0.77240  0.56680  1.0000 -0.0800700235
C   C129      1.0  0.46530  0.24730  0.46350  1.0000 -0.2087561986
C   C130      1.0  0.53470  0.75270  0.53650  1.0000 -0.2087561986
C   C131      1.0  0.89600  0.61900  0.63010  1.0000 -0.1903079226
C   C132      1.0  0.10400  0.38100  0.36990  1.0000 -0.1903079226
C   C133      1.0  0.77780  0.23680  0.15340  1.0000 0.6400500845
C   C134      1.0  0.22220  0.76320  0.84660  1.0000 0.6400500845
C   C135      1.0  0.65780  0.22940  0.34050  1.0000 0.6288750778
C   C136      1.0  0.34220  0.77060  0.65950  1.0000 0.6288750778
C   C137      1.0  0.20180  0.48590  0.06160  1.0000 0.249349774
C   C138      1.0  0.79820  0.51410  0.93840  1.0000 0.249349774
C   C139      1.0  0.16830  0.54520  0.02020  1.0000 -0.2211981745
C   C140      1.0  0.83170  0.45480  0.97980  1.0000 -0.2211981745
C   C141      1.0  0.11820  0.55080  0.14330  1.0000 0.2307579081
C   C142      1.0  0.88180  0.44920  0.85670  1.0000 0.2307579081
C   C143      1.0  0.07210  0.68540  0.18500  1.0000 -0.0800700235
C   C144      1.0  0.92790  0.31460  0.81500  1.0000 -0.0800700235
C   C145      1.0  0.14050  0.62900  0.15960  1.0000 -0.2087561986
C   C146      1.0  0.85950  0.37100  0.84040  1.0000 -0.2087561986
C   C147      1.0  0.02930  0.52800  0.15000  1.0000 -0.1983931512
C   C148      1.0  0.97070  0.47200  0.85000  1.0000 -0.1983931512
C   C149      1.0  0.98260  0.66110  0.19320  1.0000 -0.0487938368
C   C150      1.0  0.01740  0.33890  0.80680  1.0000 -0.0487938368
C   C151      1.0  0.91080  0.72390  0.22020  1.0000 0.6104523327
C   C152      1.0  0.08920  0.27610  0.77980  1.0000 0.6104523327
C   C153      1.0  0.95940  0.58320  0.17600  1.0000 -0.0720391062
C   C154      1.0  0.04060  0.41680  0.82400  1.0000 -0.0720391062
C   C155      1.0  0.47190  0.99400  0.35350  1.0000 -0.1903079226
C   C156      1.0  0.52810  0.00600  0.64650  1.0000 -0.1983931512
C   C157      1.0  0.39290  0.96750  0.38500  1.0000 0.2404969085
C   C158      1.0  0.60710  0.03250  0.61500  1.0000 0.2404969085
C   C159      1.0  0.37700  0.87960  0.39760  1.0000 -0.2087561986
C   C160      1.0  0.62300  0.12040  0.60240  1.0000 -0.2087561986
C   C161      1.0  0.52350  0.84310  0.34440  1.0000 -0.0423528932
C   C162      1.0  0.47650  0.15690  0.65560  1.0000 -0.0423528932
C   C163      1.0  0.53700  0.93070  0.33290  1.0000 -0.0720391062
C   C164      1.0  0.46300  0.06930  0.66710  1.0000 -0.0720391062
C   C165      1.0  0.44360  0.81680  0.37630  1.0000 -0.0850312773
C   C166      1.0  0.55640  0.18320  0.62370  1.0000 -0.0850312773
C   C167      1.0  0.59130  0.77630  0.31810  1.0000 0.6104523327
C   C168      1.0  0.40870  0.22370  0.68190  1.0000 0.6104523327
O   O1        1.0  0.24070  0.02020  0.67999  1.0000 -0.7298448373
O   O2        1.0  0.75930  0.97980  0.32001  1.0000 -0.7298448373
O   O3        1.0  0.32720  0.03260  0.40230  1.0000 -0.2290827894
O   O4        1.0  0.67280  0.96740  0.59770  1.0000 -0.2290827894
O   O5        1.0  0.26030  0.45080  0.71409  1.0000 -0.718521132
O   O6        1.0  0.73970  0.54920  0.28591  1.0000 -0.718521132
O   O7        1.0  0.32550  0.56530  0.66360  1.0000 -0.6143391717
O   O8        1.0  0.67450  0.43470  0.33640  1.0000 -0.6143391717
O   O9        1.0  0.30980  0.30590  0.46260  1.0000 -0.2290827894
O   O10       1.0  0.69020  0.69410  0.53740  1.0000 -0.2290827894
O   O11       1.0  0.41500  0.46340  0.76180  1.0000 -0.718521132
O   O12       1.0  0.58500  0.53660  0.23820  1.0000 -0.718521132
O   O13       1.0  0.45560  0.58980  0.78520  1.0000 -0.6189160783
O   O14       1.0  0.54440  0.41020  0.21480  1.0000 -0.6189160783
O   O15       1.0  0.82080  0.48310  0.62870  1.0000 -0.2211981745
O   O16       1.0  0.17920  0.51690  0.37130  1.0000 -0.2211981745
O   O17       1.0  0.02210  0.90260  0.75820  1.0000 -0.5941368033
O   O18       1.0  0.97790  0.09740  0.24180  1.0000 -0.5964145947
O   O19       1.0  0.11370  0.00040  0.78135  1.0000 -0.7710276533
O   O20       1.0  0.88630  0.99960  0.21865  1.0000 -0.7710276533
O   O21       1.0  0.73620  0.08650  0.94170  1.0000 -0.2290827894
O   O22       1.0  0.26380  0.91350  0.05830  1.0000 -0.2290827894
O   O23       1.0  0.30140  0.19580  0.82810  1.0000 -0.7428334344
O   O24       1.0  0.69860  0.80420  0.17190  1.0000 -0.7428334344
O   O25       1.0  0.17590  0.13030  0.86589  1.0000 -0.5964145947
O   O26       1.0  0.82410  0.86970  0.13411  1.0000 -0.5964145947
O   O27       1.0  0.23860  0.50410  0.84290  1.0000 -0.6677030314
O   O28       1.0  0.76140  0.49590  0.15710  1.0000 -0.6677030314
O   O29       1.0  0.30140  0.37360  0.86770  1.0000 -0.638872533
O   O30       1.0  0.69860  0.62640  0.13230  1.0000 -0.6493384649
O   O31       1.0  0.18660  0.49250  0.12150  1.0000 -0.2290827894
O   O32       1.0  0.81340  0.50750  0.87850  1.0000 -0.2290827894
O   O33       1.0  0.16900  0.14470  0.65634  1.0000 -0.5603547681
O   O34       1.0  0.83100  0.85530  0.34366  1.0000 -0.5603547681
O   O35       1.0  0.34120  0.19680  0.10110  1.0000 -0.2290827894
O   O36       1.0  0.65880  0.80320  0.89890  1.0000 -0.2290827894
O   O37       1.0  0.68250  0.10390  0.24250  1.0000 -0.6677030314
O   O38       1.0  0.31750  0.89610  0.75750  1.0000 -0.6677030314
O   O39       1.0  0.68140  0.97940  0.20050  1.0000 -0.638872533
O   O40       1.0  0.31860  0.02060  0.79950  1.0000 -0.638872533
O   O41       1.0  0.14840  0.62540  0.74180  1.0000 -0.718521132
O   O42       1.0  0.85160  0.37460  0.25820  1.0000 -0.718521132
O   O43       1.0  0.10610  0.74940  0.69180  1.0000 -0.6493384649
O   O44       1.0  0.89390  0.25060  0.30820  1.0000 -0.6493384649
O   O45       1.0  0.72990  0.30720  0.16241  1.0000 -0.6677030314
O   O46       1.0  0.27010  0.69280  0.83759  1.0000 -0.6677030314
O   O47       1.0  0.83110  0.19900  0.18770  1.0000 -0.6493384649
O   O48       1.0  0.16890  0.80100  0.81230  1.0000 -0.6493384649
O   O49       1.0  0.71220  0.17170  0.36320  1.0000 -0.6282159675
O   O50       1.0  0.28780  0.82830  0.63680  1.0000 -0.6282159675
O   O51       1.0  0.67910  0.26640  0.28969  1.0000 -0.7034826864
O   O52       1.0  0.32090  0.73360  0.71031  1.0000 -0.7034826864
O   O53       1.0  0.93460  0.79680  0.23290  1.0000 -0.5964145947
O   O54       1.0  0.06540  0.20320  0.76710  1.0000 -0.5964145947
O   O55       1.0  0.82730  0.70630  0.22850  1.0000 -0.6900831748
O   O56       1.0  0.17270  0.29370  0.77150  1.0000 -0.6900831748
O   O57       1.0  0.57080  0.69700  0.31890  1.0000 -0.6189160783
O   O58       1.0  0.42920  0.30300  0.68110  1.0000 -0.6189160783
O   O59       1.0  0.66640  0.80080  0.28964  1.0000 -0.718521132
O   O60       1.0  0.33360  0.19920  0.71036  1.0000 -0.718521132
