# DDEC6 charges by PACMAN v1.1 (https://github.com/mtap-research/PACMAN-charge/)
data_2015[Gd][pcu]3[ASR]3
_chemical_formula_sum              "Gd8 H48 C168 N48 O144"
_cell_length_a       13.137
_cell_length_b       30.227
_cell_length_c       24.2585
_cell_angle_alpha    90
_cell_angle_beta     109.901
_cell_angle_gamma    90

_symmetry_space_group_name_H-M    "P 1"
_symmetry_Int_Tables_number       1

loop_
  _symmetry_equiv_pos_as_xyz
  'x, y, z'

loop_
  _atom_site_type_symbol
  _atom_site_label
  _atom_site_symmetry_multiplicity
  _atom_site_fract_x
  _atom_site_fract_y
  _atom_site_fract_z
  _atom_site_occupancy
  _atom_site_charge
Gd  Gd1       1.0  0.87826  0.27018  0.22856  1.0000 1.9916317316
Gd  Gd2       1.0  0.12174  0.77018  0.27144  1.0000 1.9916317316
Gd  Gd3       1.0  0.12174  0.72982  0.77144  1.0000 1.9916317316
Gd  Gd4       1.0  0.87826  0.22982  0.72856  1.0000 1.9916317316
Gd  Gd5       1.0  0.65010  0.24513  0.30085  1.0000 2.0067290219
Gd  Gd6       1.0  0.34990  0.74513  0.19915  1.0000 2.0067290219
Gd  Gd7       1.0  0.34990  0.75487  0.69915  1.0000 2.0067290219
Gd  Gd8       1.0  0.65010  0.25487  0.80085  1.0000 2.0067290219
H   H1        1.0  0.05160  0.29080  0.36850  1.0000 0.1489950616
H   H2        1.0  0.94840  0.79080  0.13150  1.0000 0.1489950616
H   H3        1.0  0.94840  0.70920  0.63150  1.0000 0.1489950616
H   H4        1.0  0.05160  0.20920  0.86850  1.0000 0.1489950616
H   H5        1.0  0.98020  0.19460  0.46340  1.0000 0.1571421564
H   H6        1.0  0.01980  0.69460  0.03660  1.0000 0.1571421564
H   H7        1.0  0.01980  0.80540  0.53660  1.0000 0.1571421564
H   H8        1.0  0.98020  0.30540  0.96340  1.0000 0.1571421564
H   H9        1.0  0.57760  0.20450  0.54700  1.0000 0.1571421564
H   H10       1.0  0.42240  0.70450  0.95300  1.0000 0.1571421564
H   H11       1.0  0.42240  0.79550  0.45300  1.0000 0.1571421564
H   H12       1.0  0.57760  0.29550  0.04700  1.0000 0.1571421564
H   H13       1.0  0.46810  0.27030  0.65940  1.0000 0.1489950616
H   H14       1.0  0.53190  0.77030  0.84060  1.0000 0.1489950616
H   H15       1.0  0.53190  0.72970  0.34060  1.0000 0.1489950616
H   H16       1.0  0.46810  0.22970  0.15940  1.0000 0.1489950616
H   H17       1.0  0.79840  0.41550  0.22520  1.0000 0.1489950616
H   H18       1.0  0.20160  0.91550  0.27480  1.0000 0.1489950616
H   H19       1.0  0.20160  0.58450  0.77480  1.0000 0.1489950616
H   H20       1.0  0.79840  0.08450  0.72520  1.0000 0.1489950616
H   H21       1.0  0.60070  0.39370  0.31600  1.0000 0.1571421564
H   H22       1.0  0.39930  0.89370  0.18400  1.0000 0.1571421564
H   H23       1.0  0.39930  0.60630  0.68400  1.0000 0.1571421564
H   H24       1.0  0.60070  0.10630  0.81600  1.0000 0.1571421564
H   H25       1.0  0.70990  0.10000  0.28590  1.0000 0.1489950616
H   H26       1.0  0.29010  0.60000  0.21410  1.0000 0.1489950616
H   H27       1.0  0.29010  0.90000  0.71410  1.0000 0.1489950616
H   H28       1.0  0.70990  0.40000  0.78590  1.0000 0.1489950616
H   H29       1.0  0.91590  0.12590  0.20080  1.0000 0.1571421564
H   H30       1.0  0.08410  0.62590  0.29920  1.0000 0.1571421564
H   H31       1.0  0.08410  0.87410  0.79920  1.0000 0.1571421564
H   H32       1.0  0.91590  0.37410  0.70080  1.0000 0.1571421564
H   H33       1.0  0.04360  0.91290  0.34560  1.0000 0.1489950616
H   H34       1.0  0.95640  0.41290  0.15440  1.0000 0.1571421564
H   H35       1.0  0.95640  0.08710  0.65440  1.0000 0.1571421564
H   H36       1.0  0.04360  0.58710  0.84560  1.0000 0.1489950616
H   H37       1.0  0.85520  0.88670  0.17970  1.0000 0.1489950616
H   H38       1.0  0.14480  0.38670  0.32030  1.0000 0.1489950616
H   H39       1.0  0.14480  0.11330  0.82030  1.0000 0.1489950616
H   H40       1.0  0.85520  0.61330  0.67970  1.0000 0.1489950616
H   H41       1.0  0.61620  0.63170  0.30940  1.0000 0.1489950616
H   H42       1.0  0.38380  0.13170  0.19060  1.0000 0.1489950616
H   H43       1.0  0.38380  0.36830  0.69060  1.0000 0.1489950616
H   H44       1.0  0.61620  0.86830  0.80940  1.0000 0.1489950616
H   H45       1.0  0.45230  0.59760  0.14350  1.0000 0.1571421564
H   H46       1.0  0.54770  0.09760  0.35650  1.0000 0.1571421564
H   H47       1.0  0.54770  0.40240  0.85650  1.0000 0.1571421564
H   H48       1.0  0.45230  0.90240  0.64350  1.0000 0.1571421564
C   C1        1.0  0.88000  0.24441  0.37110  1.0000 0.6209755691
C   C2        1.0  0.12000  0.74441  0.12890  1.0000 0.6209755691
C   C3        1.0  0.12000  0.75559  0.62890  1.0000 0.6209755691
C   C4        1.0  0.88000  0.25559  0.87110  1.0000 0.6209755691
C   C5        1.0  0.99830  0.24237  0.40920  1.0000 0.0078972151
C   C6        1.0  0.00170  0.74237  0.09080  1.0000 0.0078972151
C   C7        1.0  0.00170  0.75763  0.59080  1.0000 0.0078972151
C   C8        1.0  0.99830  0.25763  0.90920  1.0000 0.0078972151
C   C9        1.0  0.07310  0.27051  0.39920  1.0000 -0.1279307527
C   C10       1.0  0.92690  0.77051  0.10080  1.0000 -0.1279307527
C   C11       1.0  0.92690  0.72949  0.60080  1.0000 -0.1279307527
C   C12       1.0  0.07310  0.22949  0.89920  1.0000 -0.1279307527
C   C13       1.0  0.17990  0.26807  0.43540  1.0000 0.0382927991
C   C14       1.0  0.82010  0.76807  0.06460  1.0000 0.0382927991
C   C15       1.0  0.82010  0.73193  0.56460  1.0000 0.0382927991
C   C16       1.0  0.17990  0.23193  0.93540  1.0000 0.0382927991
C   C17       1.0  0.21700  0.23883  0.48230  1.0000 -0.0031908826
C   C18       1.0  0.78300  0.73883  0.01770  1.0000 -0.0031908826
C   C19       1.0  0.78300  0.76117  0.51770  1.0000 -0.0031908826
C   C20       1.0  0.21700  0.26117  0.98230  1.0000 -0.0031908826
C   C21       1.0  0.13780  0.21185  0.49090  1.0000 0.050710722
C   C22       1.0  0.86220  0.71185  0.00910  1.0000 0.050710722
C   C23       1.0  0.86220  0.78815  0.50910  1.0000 0.050710722
C   C24       1.0  0.13780  0.28815  0.99090  1.0000 0.050710722
C   C25       1.0  0.03040  0.21317  0.45580  1.0000 -0.110548479
C   C26       1.0  0.96960  0.71317  0.04420  1.0000 -0.1191763775
C   C27       1.0  0.96960  0.78683  0.54420  1.0000 -0.1191763775
C   C28       1.0  0.03040  0.28683  0.95580  1.0000 -0.110548479
C   C29       1.0  0.33040  0.23909  0.52510  1.0000 -0.0031908826
C   C30       1.0  0.66960  0.73909  0.97490  1.0000 -0.0031908826
C   C31       1.0  0.66960  0.76091  0.47490  1.0000 -0.0031908826
C   C32       1.0  0.33040  0.26091  0.02510  1.0000 -0.0031908826
C   C33       1.0  0.41760  0.21782  0.51550  1.0000 0.050710722
C   C34       1.0  0.58240  0.71782  0.98450  1.0000 0.050710722
C   C35       1.0  0.58240  0.78218  0.48450  1.0000 0.050710722
C   C36       1.0  0.41760  0.28218  0.01550  1.0000 0.0550773071
C   C37       1.0  0.52100  0.21743  0.55600  1.0000 -0.1191763775
C   C38       1.0  0.47900  0.71743  0.94400  1.0000 -0.1191763775
C   C39       1.0  0.47900  0.78257  0.44400  1.0000 -0.1191763775
C   C40       1.0  0.52100  0.28257  0.05600  1.0000 -0.1191763775
C   C41       1.0  0.53910  0.23656  0.61030  1.0000 0.0078972151
C   C42       1.0  0.46090  0.73656  0.88970  1.0000 0.0078972151
C   C43       1.0  0.46090  0.76344  0.38970  1.0000 0.0078972151
C   C44       1.0  0.53910  0.26344  0.11030  1.0000 0.0078972151
C   C45       1.0  0.45620  0.25760  0.62290  1.0000 -0.1279307527
C   C46       1.0  0.54380  0.75760  0.87710  1.0000 -0.1191763775
C   C47       1.0  0.54380  0.74240  0.37710  1.0000 -0.1191763775
C   C48       1.0  0.45620  0.24240  0.12290  1.0000 -0.1191763775
C   C49       1.0  0.35470  0.25928  0.57980  1.0000 0.0317244206
C   C50       1.0  0.64530  0.75928  0.92020  1.0000 0.0317244206
C   C51       1.0  0.64530  0.74072  0.42020  1.0000 0.0317244206
C   C52       1.0  0.35470  0.24072  0.07980  1.0000 0.0317244206
C   C53       1.0  0.65120  0.23453  0.65510  1.0000 0.630038053
C   C54       1.0  0.34880  0.73453  0.84490  1.0000 0.630038053
C   C55       1.0  0.34880  0.76547  0.34490  1.0000 0.630038053
C   C56       1.0  0.65120  0.26547  0.15510  1.0000 0.630038053
C   C57       1.0  0.73060  0.34741  0.27320  1.0000 0.6412732305
C   C58       1.0  0.26940  0.84741  0.22680  1.0000 0.6412732305
C   C59       1.0  0.26940  0.65259  0.72680  1.0000 0.6412732305
C   C60       1.0  0.73060  0.15259  0.77320  1.0000 0.6412732305
C   C61       1.0  0.70410  0.39660  0.27110  1.0000 0.0078972151
C   C62       1.0  0.29590  0.89660  0.22890  1.0000 0.0078972151
C   C63       1.0  0.29590  0.60340  0.72890  1.0000 0.0078972151
C   C64       1.0  0.70410  0.10340  0.77110  1.0000 0.0078972151
C   C65       1.0  0.74830  0.42559  0.24170  1.0000 -0.1191763775
C   C66       1.0  0.25170  0.92559  0.25830  1.0000 -0.1191763775
C   C67       1.0  0.25170  0.57441  0.75830  1.0000 -0.110548479
C   C68       1.0  0.74830  0.07441  0.74170  1.0000 -0.1191763775
C   C69       1.0  0.71860  0.46978  0.23680  1.0000 0.0317244206
C   C70       1.0  0.28140  0.96978  0.26320  1.0000 0.0317244206
C   C71       1.0  0.28140  0.53022  0.76320  1.0000 0.0317244206
C   C72       1.0  0.71860  0.03022  0.73680  1.0000 0.0317244206
C   C73       1.0  0.64450  0.48737  0.26040  1.0000 0.0078972151
C   C74       1.0  0.35550  0.98737  0.23960  1.0000 0.0078972151
C   C75       1.0  0.35550  0.51263  0.73960  1.0000 0.0078972151
C   C76       1.0  0.64450  0.01263  0.76040  1.0000 0.0173611292
C   C77       1.0  0.60210  0.45649  0.29000  1.0000 0.0317244206
C   C78       1.0  0.39790  0.95649  0.21000  1.0000 0.0317244206
C   C79       1.0  0.39790  0.54351  0.71000  1.0000 0.0317244206
C   C80       1.0  0.60210  0.04351  0.79000  1.0000 0.0317244206
C   C81       1.0  0.63080  0.41269  0.29560  1.0000 -0.1030841232
C   C82       1.0  0.36920  0.91269  0.20440  1.0000 -0.1030841232
C   C83       1.0  0.36920  0.58731  0.70440  1.0000 -0.1030841232
C   C84       1.0  0.63080  0.08731  0.79560  1.0000 -0.1030841232
C   C85       1.0  0.78830  0.16981  0.24680  1.0000 0.630038053
C   C86       1.0  0.21170  0.66981  0.25320  1.0000 0.630038053
C   C87       1.0  0.21170  0.83019  0.75320  1.0000 0.630038053
C   C88       1.0  0.78830  0.33019  0.74680  1.0000 0.630038053
C   C89       1.0  0.80850  0.12080  0.24310  1.0000 0.0078972151
C   C90       1.0  0.19150  0.62080  0.25690  1.0000 0.0078972151
C   C91       1.0  0.19150  0.87920  0.75690  1.0000 0.0078972151
C   C92       1.0  0.80850  0.37920  0.74310  1.0000 0.0078972151
C   C93       1.0  0.75890  0.09056  0.26830  1.0000 -0.1191763775
C   C94       1.0  0.24110  0.59056  0.23170  1.0000 -0.1191763775
C   C95       1.0  0.24110  0.90944  0.73170  1.0000 -0.1191763775
C   C96       1.0  0.75890  0.40944  0.76830  1.0000 -0.1191763775
C   C97       1.0  0.78290  0.04583  0.26690  1.0000 0.0382927991
C   C98       1.0  0.21710  0.54583  0.23310  1.0000 0.0382927991
C   C99       1.0  0.21710  0.95417  0.73310  1.0000 0.0382927991
C   C100      1.0  0.78290  0.45417  0.76690  1.0000 0.0382927991
C   C101      1.0  0.85700  0.02937  0.24320  1.0000 0.0173611292
C   C102      1.0  0.14300  0.52937  0.25680  1.0000 0.0173611292
C   C103      1.0  0.14300  0.97063  0.75680  1.0000 0.0173611292
C   C104      1.0  0.85700  0.47063  0.74320  1.0000 0.0173611292
C   C105      1.0  0.90800  0.06159  0.21930  1.0000 0.0382927991
C   C106      1.0  0.09200  0.56159  0.28070  1.0000 0.0382927991
C   C107      1.0  0.09200  0.93841  0.78070  1.0000 0.0382927991
C   C108      1.0  0.90800  0.43841  0.71930  1.0000 0.0382927991
C   C109      1.0  0.88280  0.10584  0.21830  1.0000 -0.1030841232
C   C110      1.0  0.11720  0.60584  0.28170  1.0000 -0.1030841232
C   C111      1.0  0.11720  0.89416  0.78170  1.0000 -0.1030841232
C   C112      1.0  0.88280  0.39416  0.71830  1.0000 -0.1030841232
C   C113      1.0  0.88940  0.98165  0.24890  1.0000 0.0173611292
C   C114      1.0  0.11060  0.48165  0.25110  1.0000 0.0173611292
C   C115      1.0  0.11060  0.01835  0.75110  1.0000 0.0173611292
C   C116      1.0  0.88940  0.51835  0.74890  1.0000 0.0173611292
C   C117      1.0  0.96110  0.96558  0.30140  1.0000 0.0382927991
C   C118      1.0  0.03890  0.46558  0.19860  1.0000 0.0382927991
C   C119      1.0  0.03890  0.03442  0.69860  1.0000 0.0382927991
C   C120      1.0  0.96110  0.53442  0.80140  1.0000 0.0382927991
C   C121      1.0  0.99540  0.92213  0.30950  1.0000 -0.110548479
C   C122      1.0  0.00460  0.42213  0.19050  1.0000 -0.110548479
C   C123      1.0  0.00460  0.07787  0.69050  1.0000 -0.110548479
C   C124      1.0  0.99540  0.57787  0.80950  1.0000 -0.110548479
C   C125      1.0  0.95760  0.89238  0.26340  1.0000 0.0173611292
C   C126      1.0  0.04240  0.39238  0.23660  1.0000 0.0173611292
C   C127      1.0  0.04240  0.10762  0.73660  1.0000 0.0173611292
C   C128      1.0  0.95760  0.60762  0.76340  1.0000 0.0173611292
C   C129      1.0  0.88260  0.90651  0.21060  1.0000 -0.110548479
C   C130      1.0  0.11740  0.40651  0.28940  1.0000 -0.110548479
C   C131      1.0  0.11740  0.09349  0.78940  1.0000 -0.110548479
C   C132      1.0  0.88260  0.59349  0.71060  1.0000 -0.110548479
C   C133      1.0  0.84900  0.95019  0.20430  1.0000 0.0317244206
C   C134      1.0  0.15100  0.45019  0.29570  1.0000 0.0317244206
C   C135      1.0  0.15100  0.04981  0.79570  1.0000 0.0317244206
C   C136      1.0  0.84900  0.54981  0.70430  1.0000 0.0317244206
C   C137      1.0  0.00140  0.84596  0.27080  1.0000 0.5736734422
C   C138      1.0  0.99860  0.34596  0.22920  1.0000 0.5736734422
C   C139      1.0  0.99860  0.15404  0.72920  1.0000 0.5736734422
C   C140      1.0  0.00140  0.65404  0.77080  1.0000 0.5736734422
C   C141      1.0  0.47300  0.66685  0.21490  1.0000 0.5736734422
C   C142      1.0  0.52700  0.16685  0.28510  1.0000 0.5736734422
C   C143      1.0  0.52700  0.33315  0.78510  1.0000 0.5736734422
C   C144      1.0  0.47300  0.83315  0.71490  1.0000 0.5736734422
C   C145      1.0  0.52310  0.62144  0.22520  1.0000 0.0078972151
C   C146      1.0  0.47690  0.12144  0.27480  1.0000 0.0078972151
C   C147      1.0  0.47690  0.37856  0.77480  1.0000 0.0078972151
C   C148      1.0  0.52310  0.87856  0.72520  1.0000 0.0078972151
C   C149      1.0  0.59570  0.61060  0.27980  1.0000 -0.110548479
C   C150      1.0  0.40430  0.11060  0.22020  1.0000 -0.110548479
C   C151      1.0  0.40430  0.38940  0.72020  1.0000 -0.1191763775
C   C152      1.0  0.59570  0.88940  0.77980  1.0000 -0.110548479
C   C153      1.0  0.63780  0.56826  0.29030  1.0000 0.0173611292
C   C154      1.0  0.36220  0.06826  0.20970  1.0000 0.0173611292
C   C155      1.0  0.36220  0.43174  0.70970  1.0000 0.0173611292
C   C156      1.0  0.63780  0.93174  0.79030  1.0000 0.0173611292
C   C157      1.0  0.60500  0.53408  0.24870  1.0000 0.0173611292
C   C158      1.0  0.39500  0.03408  0.25130  1.0000 0.0173611292
C   C159      1.0  0.39500  0.46592  0.75130  1.0000 0.0173611292
C   C160      1.0  0.60500  0.96592  0.74870  1.0000 0.0173611292
C   C161      1.0  0.53540  0.54752  0.19430  1.0000 0.0317244206
C   C162      1.0  0.46460  0.04752  0.30570  1.0000 0.0317244206
C   C163      1.0  0.46460  0.45248  0.80570  1.0000 0.0317244206
C   C164      1.0  0.53540  0.95248  0.69430  1.0000 0.0317244206
C   C165      1.0  0.49620  0.59021  0.18130  1.0000 -0.1030841232
C   C166      1.0  0.50380  0.09021  0.31870  1.0000 -0.1030841232
C   C167      1.0  0.50380  0.40979  0.81870  1.0000 -0.1030841232
C   C168      1.0  0.49620  0.90979  0.68130  1.0000 -0.1030841232
N   N1        1.0  0.25550  0.29953  0.42410  1.0000 0.5202547314
N   N2        1.0  0.74450  0.79953  0.07590  1.0000 0.5202547314
N   N3        1.0  0.74450  0.70047  0.57590  1.0000 0.5202547314
N   N4        1.0  0.25550  0.20047  0.92410  1.0000 0.5202547314
N   N5        1.0  0.16870  0.18179  0.54140  1.0000 0.5105229924
N   N6        1.0  0.83130  0.68179  0.95860  1.0000 0.5105229924
N   N7        1.0  0.83130  0.81821  0.45860  1.0000 0.5105229924
N   N8        1.0  0.16870  0.31821  0.04140  1.0000 0.5105229924
N   N9        1.0  0.40130  0.19419  0.46020  1.0000 0.5105229924
N   N10       1.0  0.59870  0.69419  0.03980  1.0000 0.5105229924
N   N11       1.0  0.59870  0.80581  0.53980  1.0000 0.5105229924
N   N12       1.0  0.40130  0.30581  0.96020  1.0000 0.5105229924
N   N13       1.0  0.27080  0.28409  0.59440  1.0000 0.5105229924
N   N14       1.0  0.72920  0.78409  0.90560  1.0000 0.5105229924
N   N15       1.0  0.72920  0.71591  0.40560  1.0000 0.5105229924
N   N16       1.0  0.27080  0.21591  0.09440  1.0000 0.5105229924
N   N17       1.0  0.76460  0.49791  0.20160  1.0000 0.5202547314
N   N18       1.0  0.23540  0.99791  0.29840  1.0000 0.5202547314
N   N19       1.0  0.23540  0.50209  0.79840  1.0000 0.5202547314
N   N20       1.0  0.76460  0.00209  0.70160  1.0000 0.5202547314
N   N21       1.0  0.52330  0.47053  0.31740  1.0000 0.5040970596
N   N22       1.0  0.47670  0.97053  0.18260  1.0000 0.5105229924
N   N23       1.0  0.47670  0.52947  0.68260  1.0000 0.5105229924
N   N24       1.0  0.52330  0.02947  0.81740  1.0000 0.5105229924
N   N25       1.0  0.72990  0.01593  0.29700  1.0000 0.5105229924
N   N26       1.0  0.27010  0.51593  0.20300  1.0000 0.5105229924
N   N27       1.0  0.27010  0.98407  0.70300  1.0000 0.5105229924
N   N28       1.0  0.72990  0.48407  0.79700  1.0000 0.5105229924
N   N29       1.0  0.99680  0.04906  0.19880  1.0000 0.5105229924
N   N30       1.0  0.00320  0.54906  0.30120  1.0000 0.5105229924
N   N31       1.0  0.00320  0.95094  0.80120  1.0000 0.5105229924
N   N32       1.0  0.99680  0.45094  0.69880  1.0000 0.5105229924
N   N33       1.0  0.00680  0.99527  0.35230  1.0000 0.5105229924
N   N34       1.0  0.99320  0.49527  0.14770  1.0000 0.5105229924
N   N35       1.0  0.99320  0.00473  0.64770  1.0000 0.5105229924
N   N36       1.0  0.00680  0.50473  0.85230  1.0000 0.5105229924
N   N37       1.0  0.76740  0.96267  0.14810  1.0000 0.5105229924
N   N38       1.0  0.23260  0.46267  0.35190  1.0000 0.5105229924
N   N39       1.0  0.23260  0.03733  0.85190  1.0000 0.5105229924
N   N40       1.0  0.76740  0.53733  0.64810  1.0000 0.5105229924
N   N41       1.0  0.49970  0.51525  0.14510  1.0000 0.5105229924
N   N42       1.0  0.50030  0.01525  0.35490  1.0000 0.5105229924
N   N43       1.0  0.50030  0.48475  0.85490  1.0000 0.5105229924
N   N44       1.0  0.49970  0.98475  0.64510  1.0000 0.5105229924
N   N45       1.0  0.71920  0.56035  0.34810  1.0000 0.5105229924
N   N46       1.0  0.28080  0.06035  0.15190  1.0000 0.5105229924
N   N47       1.0  0.28080  0.43965  0.65190  1.0000 0.5040970596
N   N48       1.0  0.71920  0.93965  0.84810  1.0000 0.5105229924
O   O1        1.0  0.81054  0.23056  0.39084  1.0000 -0.5775645463
O   O2        1.0  0.18946  0.73056  0.10916  1.0000 -0.5775645463
O   O3        1.0  0.18946  0.76944  0.60916  1.0000 -0.5775645463
O   O4        1.0  0.81054  0.26944  0.89084  1.0000 -0.5775645463
O   O5        1.0  0.85631  0.26098  0.32031  1.0000 -0.7509965149
O   O6        1.0  0.14369  0.76098  0.17969  1.0000 -0.7509965149
O   O7        1.0  0.14369  0.73902  0.67969  1.0000 -0.7509965149
O   O8        1.0  0.85631  0.23902  0.82031  1.0000 -0.7509965149
O   O9        1.0  0.22290  0.33628  0.40820  1.0000 -0.2800265075
O   O10       1.0  0.77710  0.83628  0.09180  1.0000 -0.2800265075
O   O11       1.0  0.77710  0.66372  0.59180  1.0000 -0.2702443151
O   O12       1.0  0.22290  0.16372  0.90820  1.0000 -0.2702443151
O   O13       1.0  0.34620  0.28630  0.42960  1.0000 -0.3355865824
O   O14       1.0  0.65380  0.78630  0.07040  1.0000 -0.3355865824
O   O15       1.0  0.65380  0.71370  0.57040  1.0000 -0.3355865824
O   O16       1.0  0.34620  0.21370  0.92960  1.0000 -0.3321528045
O   O17       1.0  0.10470  0.17760  0.56720  1.0000 -0.2993393836
O   O18       1.0  0.89530  0.67760  0.93280  1.0000 -0.2993393836
O   O19       1.0  0.89530  0.82240  0.43280  1.0000 -0.2993393836
O   O20       1.0  0.10470  0.32240  0.06720  1.0000 -0.2993393836
O   O21       1.0  0.25320  0.16212  0.55530  1.0000 -0.2993393836
O   O22       1.0  0.74680  0.66212  0.94470  1.0000 -0.2993393836
O   O23       1.0  0.74680  0.83788  0.44470  1.0000 -0.2993393836
O   O24       1.0  0.25320  0.33788  0.05530  1.0000 -0.3084194867
O   O25       1.0  0.28065  0.28734  0.64565  1.0000 -0.2702443151
O   O26       1.0  0.71935  0.78734  0.85435  1.0000 -0.2800265075
O   O27       1.0  0.71935  0.71266  0.35435  1.0000 -0.2800265075
O   O28       1.0  0.28065  0.21266  0.14565  1.0000 -0.2702443151
O   O29       1.0  0.19778  0.30120  0.55488  1.0000 -0.3206747963
O   O30       1.0  0.80222  0.80120  0.94512  1.0000 -0.3206747963
O   O31       1.0  0.80222  0.69880  0.44512  1.0000 -0.3206747963
O   O32       1.0  0.19778  0.19880  0.05488  1.0000 -0.3206747963
O   O33       1.0  0.31110  0.18040  0.43360  1.0000 -0.3321528045
O   O34       1.0  0.68890  0.68040  0.06640  1.0000 -0.3321528045
O   O35       1.0  0.68890  0.81960  0.56640  1.0000 -0.3321528045
O   O36       1.0  0.31110  0.31960  0.93360  1.0000 -0.3321528045
O   O37       1.0  0.47860  0.18640  0.44600  1.0000 -0.2578425703
O   O38       1.0  0.52140  0.68640  0.05400  1.0000 -0.2578425703
O   O39       1.0  0.52140  0.81360  0.55400  1.0000 -0.2578425703
O   O40       1.0  0.47860  0.31360  0.94600  1.0000 -0.2578425703
O   O41       1.0  0.66314  0.24111  0.70814  1.0000 -0.7267524002
O   O42       1.0  0.33686  0.74111  0.79186  1.0000 -0.7267524002
O   O43       1.0  0.33686  0.75889  0.29186  1.0000 -0.7267524002
O   O44       1.0  0.66314  0.25889  0.20814  1.0000 -0.7267524002
O   O45       1.0  0.68335  0.32336  0.29895  1.0000 -0.6616977452
O   O46       1.0  0.31665  0.82336  0.20105  1.0000 -0.6616977452
O   O47       1.0  0.31665  0.67664  0.70105  1.0000 -0.6616977452
O   O48       1.0  0.68335  0.17664  0.79895  1.0000 -0.6616977452
O   O49       1.0  0.79594  0.33620  0.24864  1.0000 -0.6174511162
O   O50       1.0  0.20406  0.83620  0.25136  1.0000 -0.6174511162
O   O51       1.0  0.20406  0.66380  0.75136  1.0000 -0.6174511162
O   O52       1.0  0.79594  0.16380  0.74864  1.0000 -0.6174511162
O   O53       1.0  0.49600  0.44480  0.34610  1.0000 -0.2408190119
O   O54       1.0  0.50400  0.94480  0.15390  1.0000 -0.248320928
O   O55       1.0  0.50400  0.55520  0.65390  1.0000 -0.2408190119
O   O56       1.0  0.49600  0.05520  0.84610  1.0000 -0.2408190119
O   O57       1.0  0.47960  0.50604  0.30540  1.0000 -0.3206747963
O   O58       1.0  0.52040  0.00604  0.19460  1.0000 -0.3206747963
O   O59       1.0  0.52040  0.49396  0.69460  1.0000 -0.3206747963
O   O60       1.0  0.47960  0.99396  0.80540  1.0000 -0.3206747963
O   O61       1.0  0.79180  0.47965  0.16380  1.0000 -0.3084194867
O   O62       1.0  0.20820  0.97965  0.33620  1.0000 -0.3084194867
O   O63       1.0  0.20820  0.52035  0.83620  1.0000 -0.3084194867
O   O64       1.0  0.79180  0.02035  0.66380  1.0000 -0.3084194867
O   O65       1.0  0.77200  0.53759  0.21080  1.0000 -0.3084194867
O   O66       1.0  0.22800  0.03759  0.28920  1.0000 -0.3084194867
O   O67       1.0  0.22800  0.46241  0.78920  1.0000 -0.3084194867
O   O68       1.0  0.77200  0.96241  0.71080  1.0000 -0.3084194867
O   O69       1.0  0.82358  0.19420  0.21578  1.0000 -0.6525401322
O   O70       1.0  0.17642  0.69420  0.28422  1.0000 -0.6525401322
O   O71       1.0  0.17642  0.80580  0.78422  1.0000 -0.6525401322
O   O72       1.0  0.82358  0.30580  0.71578  1.0000 -0.6525401322
O   O73       1.0  0.74041  0.18051  0.28131  1.0000 -0.6280495299
O   O74       1.0  0.25959  0.68051  0.21869  1.0000 -0.6280495299
O   O75       1.0  0.25959  0.81949  0.71869  1.0000 -0.6280495299
O   O76       1.0  0.74041  0.31949  0.78131  1.0000 -0.6280495299
O   O77       1.0  0.71640  0.97719  0.28190  1.0000 -0.3084194867
O   O78       1.0  0.28360  0.47719  0.21810  1.0000 -0.3084194867
O   O79       1.0  0.28360  0.02281  0.71810  1.0000 -0.3084194867
O   O80       1.0  0.71640  0.52281  0.78190  1.0000 -0.3084194867
O   O81       1.0  0.70490  0.03111  0.33690  1.0000 -0.2887956299
O   O82       1.0  0.29510  0.53111  0.16310  1.0000 -0.2993393836
O   O83       1.0  0.29510  0.96889  0.66310  1.0000 -0.2993393836
O   O84       1.0  0.70490  0.46889  0.83690  1.0000 -0.2993393836
O   O85       1.0  0.02520  0.01023  0.20210  1.0000 -0.348550245
O   O86       1.0  0.97480  0.51023  0.29790  1.0000 -0.348550245
O   O87       1.0  0.97480  0.98977  0.79790  1.0000 -0.348550245
O   O88       1.0  0.02520  0.48977  0.70210  1.0000 -0.348550245
O   O89       1.0  0.04290  0.07855  0.18180  1.0000 -0.3084194867
O   O90       1.0  0.95710  0.57855  0.31820  1.0000 -0.3084194867
O   O91       1.0  0.95710  0.92145  0.81820  1.0000 -0.3084194867
O   O92       1.0  0.04290  0.42145  0.68180  1.0000 -0.3084194867
O   O93       1.0  0.03118  0.97868  0.40078  1.0000 -0.2800265075
O   O94       1.0  0.96882  0.47868  0.09922  1.0000 -0.2887956299
O   O95       1.0  0.96882  0.02132  0.59922  1.0000 -0.2800265075
O   O96       1.0  0.03118  0.52132  0.90078  1.0000 -0.2800265075
O   O97       1.0  0.01742  0.03445  0.34332  1.0000 -0.3206747963
O   O98       1.0  0.98258  0.53445  0.15668  1.0000 -0.3206747963
O   O99       1.0  0.98258  0.96555  0.65668  1.0000 -0.3206747963
O   O100      1.0  0.01742  0.46555  0.84332  1.0000 -0.3206747963
O   O101      1.0  0.71530  0.93361  0.11700  1.0000 -0.2702443151
O   O102      1.0  0.28470  0.43361  0.38300  1.0000 -0.2702443151
O   O103      1.0  0.28470  0.06639  0.88300  1.0000 -0.2702443151
O   O104      1.0  0.71530  0.56639  0.61700  1.0000 -0.2702443151
O   O105      1.0  0.75540  0.00152  0.13530  1.0000 -0.2993393836
O   O106      1.0  0.24460  0.50152  0.36470  1.0000 -0.2993393836
O   O107      1.0  0.24460  0.99848  0.86470  1.0000 -0.2993393836
O   O108      1.0  0.75540  0.49848  0.63530  1.0000 -0.2993393836
O   O109      1.0  0.06912  0.83537  0.31922  1.0000 -0.5969599334
O   O110      1.0  0.93088  0.33537  0.18078  1.0000 -0.5969599334
O   O111      1.0  0.93088  0.16463  0.68078  1.0000 -0.5969599334
O   O112      1.0  0.06912  0.66463  0.81922  1.0000 -0.5969599334
O   O113      1.0  0.48258  0.69026  0.25868  1.0000 -0.6280495299
O   O114      1.0  0.51742  0.19026  0.24132  1.0000 -0.6280495299
O   O115      1.0  0.51742  0.30974  0.74132  1.0000 -0.6280495299
O   O116      1.0  0.48258  0.80974  0.75868  1.0000 -0.6280495299
O   O117      1.0  0.42020  0.67871  0.16310  1.0000 -0.6174511162
O   O118      1.0  0.57980  0.17871  0.33690  1.0000 -0.6174511162
O   O119      1.0  0.57980  0.32129  0.83690  1.0000 -0.6174511162
O   O120      1.0  0.42020  0.82129  0.66310  1.0000 -0.6174511162
O   O121      1.0  0.76870  0.59151  0.37520  1.0000 -0.248320928
O   O122      1.0  0.23130  0.09151  0.12480  1.0000 -0.248320928
O   O123      1.0  0.23130  0.40849  0.62480  1.0000 -0.248320928
O   O124      1.0  0.76870  0.90849  0.87520  1.0000 -0.248320928
O   O125      1.0  0.73810  0.52336  0.36530  1.0000 -0.2800265075
O   O126      1.0  0.26190  0.02336  0.13470  1.0000 -0.2800265075
O   O127      1.0  0.26190  0.47664  0.63470  1.0000 -0.2800265075
O   O128      1.0  0.73810  0.97664  0.86530  1.0000 -0.2800265075
O   O129      1.0  0.48400  0.52969  0.09610  1.0000 -0.2887956299
O   O130      1.0  0.51600  0.02969  0.40390  1.0000 -0.2887956299
O   O131      1.0  0.51600  0.47031  0.90390  1.0000 -0.2887956299
O   O132      1.0  0.48400  0.97031  0.59610  1.0000 -0.2887956299
O   O133      1.0  0.48630  0.47700  0.15620  1.0000 -0.3084194867
O   O134      1.0  0.51370  0.97700  0.34380  1.0000 -0.3084194867
O   O135      1.0  0.51370  0.52300  0.84380  1.0000 -0.3084194867
O   O136      1.0  0.48630  0.02300  0.65620  1.0000 -0.3206747963
O   O137      1.0  0.72828  0.22644  0.63778  1.0000 -0.5864733306
O   O138      1.0  0.27172  0.72644  0.86222  1.0000 -0.5864733306
O   O139      1.0  0.27172  0.77356  0.36222  1.0000 -0.5775645463
O   O140      1.0  0.72828  0.27356  0.13778  1.0000 -0.5864733306
O   O141      1.0  0.97135  0.82060  0.22695  1.0000 -0.6434219627
O   O142      1.0  0.02865  0.32060  0.27305  1.0000 -0.6434219627
O   O143      1.0  0.02865  0.17940  0.77305  1.0000 -0.6434219627
O   O144      1.0  0.97135  0.67940  0.72695  1.0000 -0.6434219627
