# DDEC6 charges by PACMAN v1.1 (https://github.com/mtap-research/PACMAN-charge/)
data_2015[Cd][bcu]3[ASR]4
_chemical_formula_sum              "Cd8 B8 H192 C220 N24 O32 F16"
_cell_length_a       14.1522
_cell_length_b       21.2273
_cell_length_c       22.7075
_cell_angle_alpha    90
_cell_angle_beta     121.723
_cell_angle_gamma    90

_symmetry_space_group_name_H-M    "P 1"
_symmetry_Int_Tables_number       1

loop_
  _symmetry_equiv_pos_as_xyz
  'x, y, z'

loop_
  _atom_site_type_symbol
  _atom_site_label
  _atom_site_symmetry_multiplicity
  _atom_site_fract_x
  _atom_site_fract_y
  _atom_site_fract_z
  _atom_site_occupancy
  _atom_site_charge
Cd  Cd1       1.0  0.89992  0.90874  0.40197  1.0000 0.9297781422
Cd  Cd2       1.0  0.10008  0.40874  0.09803  1.0000 0.9297781422
Cd  Cd3       1.0  0.10008  0.09126  0.59803  1.0000 0.9297781422
Cd  Cd4       1.0  0.89992  0.59126  0.90197  1.0000 0.9297781422
Cd  Cd5       1.0  0.20788  0.02233  0.51057  1.0000 0.9389851525
Cd  Cd6       1.0  0.79212  0.52233  0.98943  1.0000 0.9389851525
Cd  Cd7       1.0  0.79212  0.97767  0.48943  1.0000 0.9389851525
Cd  Cd8       1.0  0.20788  0.47767  0.01057  1.0000 0.9389851525
B   B1        1.0  0.99670  0.85310  0.15890  1.0000 0.798546681
B   B2        1.0  0.00330  0.35310  0.34110  1.0000 0.798546681
B   B3        1.0  0.00330  0.14690  0.84110  1.0000 0.798546681
B   B4        1.0  0.99670  0.64690  0.65890  1.0000 0.798546681
B   B5        1.0  0.51480  0.15720  0.15190  1.0000 0.798546681
B   B6        1.0  0.48520  0.65720  0.34810  1.0000 0.798546681
B   B7        1.0  0.48520  0.84280  0.84810  1.0000 0.798546681
B   B8        1.0  0.51480  0.34280  0.65190  1.0000 0.7944353654
H   H1        1.0  0.77370  0.31580  0.33333  1.0000 0.128887959
H   H2        1.0  0.22630  0.81580  0.16667  1.0000 0.128887959
H   H3        1.0  0.22630  0.68420  0.66667  1.0000 0.128887959
H   H4        1.0  0.77370  0.18420  0.83333  1.0000 0.128887959
H   H5        1.0  0.83880  0.37190  0.43530  1.0000 0.128887959
H   H6        1.0  0.16120  0.87190  0.06470  1.0000 0.128887959
H   H7        1.0  0.16120  0.62810  0.56470  1.0000 0.128887959
H   H8        1.0  0.83880  0.12810  0.93530  1.0000 0.128887959
H   H9        1.0  0.75600  0.35890  0.49960  1.0000 0.1096098485
H   H10       1.0  0.24400  0.85890  0.00040  1.0000 0.1096098485
H   H11       1.0  0.24400  0.64110  0.50040  1.0000 0.1096098485
H   H12       1.0  0.75600  0.14110  0.99960  1.0000 0.1096098485
H   H13       1.0  0.60810  0.28980  0.46200  1.0000 0.128887959
H   H14       1.0  0.39190  0.78980  0.03800  1.0000 0.128887959
H   H15       1.0  0.39190  0.71020  0.53800  1.0000 0.128887959
H   H16       1.0  0.60810  0.21020  0.96200  1.0000 0.1194676524
H   H17       1.0  0.54310  0.23360  0.36010  1.0000 0.1096098485
H   H18       1.0  0.45690  0.73360  0.13990  1.0000 0.1096098485
H   H19       1.0  0.45690  0.76640  0.63990  1.0000 0.1096098485
H   H20       1.0  0.54310  0.26640  0.86010  1.0000 0.1096098485
H   H21       1.0  0.38100  0.54440  0.98110  1.0000 0.1194676524
H   H22       1.0  0.61900  0.04440  0.51890  1.0000 0.1194676524
H   H23       1.0  0.61900  0.45560  0.01890  1.0000 0.1194676524
H   H24       1.0  0.38100  0.95560  0.48110  1.0000 0.1194676524
H   H25       1.0  0.56140  0.58140  0.03300  1.0000 0.1512526536
H   H26       1.0  0.43860  0.08140  0.46700  1.0000 0.1512526536
H   H27       1.0  0.43860  0.41860  0.96700  1.0000 0.1574986899
H   H28       1.0  0.56140  0.91860  0.53300  1.0000 0.1574986899
H   H29       1.0  0.58650  0.56820  0.21440  1.0000 0.1574986899
H   H30       1.0  0.41350  0.06820  0.28560  1.0000 0.1574986899
H   H31       1.0  0.41350  0.43180  0.78560  1.0000 0.1574986899
H   H32       1.0  0.58650  0.93180  0.71440  1.0000 0.1574986899
H   H33       1.0  0.41520  0.52120  0.15990  1.0000 0.1194676524
H   H34       1.0  0.58480  0.02120  0.34010  1.0000 0.1194676524
H   H35       1.0  0.58480  0.47880  0.84010  1.0000 0.1194676524
H   H36       1.0  0.41520  0.97880  0.65990  1.0000 0.1194676524
H   H37       1.0  0.76410  0.57850  0.16500  1.0000 0.1408476085
H   H38       1.0  0.23590  0.07850  0.33500  1.0000 0.1408476085
H   H39       1.0  0.23590  0.42150  0.83500  1.0000 0.1408476085
H   H40       1.0  0.76410  0.92150  0.66500  1.0000 0.1408476085
H   H41       1.0  0.73770  0.61910  0.21230  1.0000 0.1096098485
H   H42       1.0  0.26230  0.11910  0.28770  1.0000 0.1096098485
H   H43       1.0  0.26230  0.38090  0.78770  1.0000 0.1096098485
H   H44       1.0  0.73770  0.88090  0.71230  1.0000 0.1096098485
H   H45       1.0  0.79000  0.68150  0.15050  1.0000 0.1096098485
H   H46       1.0  0.21000  0.18150  0.34950  1.0000 0.1096098485
H   H47       1.0  0.21000  0.31850  0.84950  1.0000 0.1096098485
H   H48       1.0  0.79000  0.81850  0.65050  1.0000 0.1096098485
H   H49       1.0  0.68870  0.65610  0.08100  1.0000 0.1194676524
H   H50       1.0  0.31130  0.15610  0.41900  1.0000 0.1194676524
H   H51       1.0  0.31130  0.34390  0.91900  1.0000 0.1194676524
H   H52       1.0  0.68870  0.84390  0.58100  1.0000 0.1194676524
H   H53       1.0  0.61580  0.74470  0.08860  1.0000 0.1194676524
H   H54       1.0  0.38420  0.24470  0.41140  1.0000 0.1194676524
H   H55       1.0  0.38420  0.25530  0.91140  1.0000 0.1194676524
H   H56       1.0  0.61580  0.75530  0.58860  1.0000 0.1194676524
H   H57       1.0  0.57790  0.70040  0.12760  1.0000 0.1096098485
H   H58       1.0  0.42210  0.20040  0.37240  1.0000 0.1096098485
H   H59       1.0  0.42210  0.29960  0.87240  1.0000 0.1096098485
H   H60       1.0  0.57790  0.79960  0.62760  1.0000 0.1096098485
H   H61       1.0  0.68790  0.70660  0.26190  1.0000 0.1408476085
H   H62       1.0  0.31210  0.20660  0.23810  1.0000 0.1408476085
H   H63       1.0  0.31210  0.29340  0.73810  1.0000 0.1408476085
H   H64       1.0  0.68790  0.79340  0.76190  1.0000 0.1408476085
H   H65       1.0  0.79230  0.77090  0.35690  1.0000 0.1194676524
H   H66       1.0  0.20770  0.27090  0.14310  1.0000 0.1194676524
H   H67       1.0  0.20770  0.22910  0.64310  1.0000 0.1194676524
H   H68       1.0  0.79230  0.72910  0.85690  1.0000 0.1194676524
H   H69       1.0  0.82820  0.89430  0.24280  1.0000 0.1194676524
H   H70       1.0  0.17180  0.39430  0.25720  1.0000 0.1194676524
H   H71       1.0  0.17180  0.10570  0.75720  1.0000 0.1194676524
H   H72       1.0  0.82820  0.60570  0.74280  1.0000 0.1194676524
H   H73       1.0  0.74100  0.82950  0.14800  1.0000 0.1574986899
H   H74       1.0  0.25900  0.32950  0.35200  1.0000 0.1574986899
H   H75       1.0  0.25900  0.17050  0.85200  1.0000 0.1574986899
H   H76       1.0  0.74100  0.67050  0.64800  1.0000 0.1574986899
H   H77       1.0  0.06160  0.97670  0.20990  1.0000 0.1512526536
H   H78       1.0  0.93840  0.47670  0.29010  1.0000 0.1512526536
H   H79       1.0  0.93840  0.02330  0.79010  1.0000 0.1512526536
H   H80       1.0  0.06160  0.52330  0.70990  1.0000 0.1512526536
H   H81       1.0  0.95650  0.98620  0.21530  1.0000 0.1574986899
H   H82       1.0  0.04350  0.48620  0.28470  1.0000 0.1574986899
H   H83       1.0  0.04350  0.01380  0.78470  1.0000 0.1574986899
H   H84       1.0  0.95650  0.51380  0.71530  1.0000 0.1574986899
H   H85       1.0  0.07380  0.00650  0.27680  1.0000 0.1512526536
H   H86       1.0  0.92620  0.50650  0.22320  1.0000 0.1512526536
H   H87       1.0  0.92620  0.99350  0.72320  1.0000 0.1512526536
H   H88       1.0  0.07380  0.49350  0.77680  1.0000 0.1512526536
H   H89       1.0  0.05020  0.77740  0.40600  1.0000 0.1408476085
H   H90       1.0  0.94980  0.27740  0.09400  1.0000 0.1408476085
H   H91       1.0  0.94980  0.22260  0.59400  1.0000 0.1408476085
H   H92       1.0  0.05020  0.72260  0.90600  1.0000 0.1408476085
H   H93       1.0  0.16490  0.76130  0.41460  1.0000 0.128887959
H   H94       1.0  0.83510  0.26130  0.08540  1.0000 0.128887959
H   H95       1.0  0.83510  0.23870  0.58540  1.0000 0.128887959
H   H96       1.0  0.16490  0.73870  0.91460  1.0000 0.128887959
H   H97       1.0  0.15210  0.82230  0.44880  1.0000 0.1408476085
H   H98       1.0  0.84790  0.32230  0.05120  1.0000 0.1408476085
H   H99       1.0  0.84790  0.17770  0.55120  1.0000 0.1408476085
H   H100      1.0  0.15210  0.67770  0.94880  1.0000 0.1408476085
H   H101      1.0  0.21960  0.67540  0.31970  1.0000 0.128887959
H   H102      1.0  0.78040  0.17540  0.18030  1.0000 0.128887959
H   H103      1.0  0.78040  0.32460  0.68030  1.0000 0.128887959
H   H104      1.0  0.21960  0.82460  0.81970  1.0000 0.128887959
H   H105      1.0  0.26070  0.59030  0.39740  1.0000 0.128887959
H   H106      1.0  0.73930  0.09030  0.10260  1.0000 0.128887959
H   H107      1.0  0.73930  0.40970  0.60260  1.0000 0.128887959
H   H108      1.0  0.26070  0.90970  0.89740  1.0000 0.128887959
H   H109      1.0  0.12890  0.55650  0.41610  1.0000 0.1408476085
H   H110      1.0  0.87110  0.05650  0.08390  1.0000 0.1408476085
H   H111      1.0  0.87110  0.44350  0.58390  1.0000 0.1408476085
H   H112      1.0  0.12890  0.94350  0.91610  1.0000 0.1408476085
H   H113      1.0  0.95390  0.60760  0.36960  1.0000 0.1194676524
H   H114      1.0  0.04610  0.10760  0.13040  1.0000 0.1194676524
H   H115      1.0  0.04610  0.39240  0.63040  1.0000 0.1194676524
H   H116      1.0  0.95390  0.89240  0.86960  1.0000 0.1194676524
H   H117      1.0  0.92300  0.69510  0.29910  1.0000 0.1096098485
H   H118      1.0  0.07700  0.19510  0.20090  1.0000 0.1096098485
H   H119      1.0  0.07700  0.30490  0.70090  1.0000 0.1096098485
H   H120      1.0  0.92300  0.80490  0.79910  1.0000 0.1096098485
H   H121      1.0  0.96710  0.61060  0.20280  1.0000 0.1194676524
H   H122      1.0  0.03290  0.11060  0.29720  1.0000 0.1194676524
H   H123      1.0  0.03290  0.38940  0.79720  1.0000 0.1194676524
H   H124      1.0  0.96710  0.88940  0.70280  1.0000 0.1194676524
H   H125      1.0  0.96260  0.58320  0.13730  1.0000 0.1512526536
H   H126      1.0  0.03740  0.08320  0.36270  1.0000 0.1512526536
H   H127      1.0  0.03740  0.41680  0.86270  1.0000 0.1512526536
H   H128      1.0  0.96260  0.91680  0.63730  1.0000 0.1512526536
H   H129      1.0  0.07740  0.59900  0.20390  1.0000 0.1408476085
H   H130      1.0  0.92260  0.09900  0.29610  1.0000 0.1408476085
H   H131      1.0  0.92260  0.40100  0.79610  1.0000 0.1408476085
H   H132      1.0  0.07740  0.90100  0.70390  1.0000 0.1408476085
H   H133      1.0  0.93880  0.84310  0.02910  1.0000 0.1574986899
H   H134      1.0  0.06120  0.34310  0.47090  1.0000 0.1574986899
H   H135      1.0  0.06120  0.15690  0.97090  1.0000 0.1574986899
H   H136      1.0  0.93880  0.65690  0.52910  1.0000 0.1574986899
H   H137      1.0  0.99860  0.79460  0.00740  1.0000 0.1512526536
H   H138      1.0  0.00140  0.29460  0.49260  1.0000 0.1512526536
H   H139      1.0  0.00140  0.20540  0.99260  1.0000 0.1512526536
H   H140      1.0  0.99860  0.70540  0.50740  1.0000 0.1512526536
H   H141      1.0  0.87150  0.78730  0.97930  1.0000 0.1574986899
H   H142      1.0  0.12850  0.28730  0.52070  1.0000 0.1574986899
H   H143      1.0  0.12850  0.21270  0.02070  1.0000 0.1574986899
H   H144      1.0  0.87150  0.71270  0.47930  1.0000 0.1574986899
H   H145      1.0  0.69720  0.02680  0.17850  1.0000 0.1574986899
H   H146      1.0  0.30280  0.52680  0.32150  1.0000 0.1574986899
H   H147      1.0  0.30280  0.97320  0.82150  1.0000 0.1574986899
H   H148      1.0  0.69720  0.47320  0.67850  1.0000 0.1574986899
H   H149      1.0  0.63890  0.98680  0.20860  1.0000 0.1574986899
H   H150      1.0  0.36110  0.48680  0.29140  1.0000 0.1574986899
H   H151      1.0  0.36110  0.01320  0.79140  1.0000 0.1574986899
H   H152      1.0  0.63890  0.51320  0.70860  1.0000 0.1574986899
H   H153      1.0  0.56890  0.03310  0.14670  1.0000 0.1512526536
H   H154      1.0  0.43110  0.53310  0.35330  1.0000 0.1512526536
H   H155      1.0  0.43110  0.96690  0.85330  1.0000 0.1512526536
H   H156      1.0  0.56890  0.46690  0.64670  1.0000 0.1512526536
H   H157      1.0  0.72630  0.16030  0.42510  1.0000 0.128887959
H   H158      1.0  0.27370  0.66030  0.07490  1.0000 0.128887959
H   H159      1.0  0.27370  0.83970  0.57490  1.0000 0.128887959
H   H160      1.0  0.72630  0.33970  0.92510  1.0000 0.128887959
H   H161      1.0  0.82990  0.12030  0.44030  1.0000 0.1574986899
H   H162      1.0  0.17010  0.62030  0.05970  1.0000 0.1574986899
H   H163      1.0  0.17010  0.87970  0.55970  1.0000 0.1574986899
H   H164      1.0  0.82990  0.37970  0.94030  1.0000 0.1574986899
H   H165      1.0  0.82110  0.19120  0.41860  1.0000 0.1408476085
H   H166      1.0  0.17890  0.69120  0.08140  1.0000 0.1408476085
H   H167      1.0  0.17890  0.80880  0.58140  1.0000 0.1408476085
H   H168      1.0  0.82110  0.30880  0.91860  1.0000 0.1408476085
H   H169      1.0  0.30730  0.19900  0.01990  1.0000 0.1574986899
H   H170      1.0  0.69270  0.69900  0.48010  1.0000 0.1574986899
H   H171      1.0  0.69270  0.80100  0.98010  1.0000 0.1574986899
H   H172      1.0  0.30730  0.30100  0.51990  1.0000 0.1574986899
H   H173      1.0  0.28830  0.26990  0.99700  1.0000 0.1512526536
H   H174      1.0  0.71170  0.76990  0.50300  1.0000 0.1512526536
H   H175      1.0  0.71170  0.73010  0.00300  1.0000 0.1512526536
H   H176      1.0  0.28830  0.23010  0.49700  1.0000 0.1512526536
H   H177      1.0  0.39550  0.23480  0.01060  1.0000 0.1512526536
H   H178      1.0  0.60450  0.73480  0.48940  1.0000 0.1512526536
H   H179      1.0  0.60450  0.76520  0.98940  1.0000 0.1512526536
H   H180      1.0  0.39550  0.26520  0.51060  1.0000 0.1512526536
H   H181      1.0  0.55540  0.36750  0.28410  1.0000 0.128887959
H   H182      1.0  0.44460  0.86750  0.21590  1.0000 0.128887959
H   H183      1.0  0.44460  0.63250  0.71590  1.0000 0.128887959
H   H184      1.0  0.55540  0.13250  0.78410  1.0000 0.128887959
H   H185      1.0  0.45650  0.40520  0.22380  1.0000 0.1408476085
H   H186      1.0  0.54350  0.90520  0.27620  1.0000 0.1408476085
H   H187      1.0  0.54350  0.59480  0.77620  1.0000 0.1408476085
H   H188      1.0  0.45650  0.09480  0.72380  1.0000 0.1408476085
H   H189      1.0  0.43400  0.35700  0.26740  1.0000 0.1408476085
H   H190      1.0  0.56600  0.85700  0.23260  1.0000 0.1408476085
H   H191      1.0  0.56600  0.64300  0.73260  1.0000 0.1408476085
H   H192      1.0  0.43400  0.14300  0.76740  1.0000 0.1408476085
C   C1        1.0  0.65190  0.26910  0.33660  1.0000 0.0891230678
C   C2        1.0  0.34810  0.76910  0.16340  1.0000 0.0891230678
C   C3        1.0  0.34810  0.73090  0.66340  1.0000 0.0891230678
C   C4        1.0  0.65190  0.23090  0.83660  1.0000 0.0891230678
C   C5        1.0  0.74050  0.31060  0.35920  1.0000 -0.1076643613
C   C6        1.0  0.25950  0.81060  0.14080  1.0000 -0.1076643613
C   C7        1.0  0.25950  0.68940  0.64080  1.0000 -0.1076643613
C   C8        1.0  0.74050  0.18940  0.85920  1.0000 -0.1076643613
C   C9        1.0  0.77950  0.34420  0.42020  1.0000 -0.0829872892
C   C10       1.0  0.22050  0.84420  0.07980  1.0000 -0.0829872892
C   C11       1.0  0.22050  0.65580  0.57980  1.0000 -0.0829872892
C   C12       1.0  0.77950  0.15580  0.92020  1.0000 -0.0829872892
C   C13       1.0  0.72990  0.33640  0.45880  1.0000 -0.0908682593
C   C14       1.0  0.27010  0.83640  0.04120  1.0000 -0.0908682593
C   C15       1.0  0.27010  0.66360  0.54120  1.0000 -0.0908682593
C   C16       1.0  0.72990  0.16360  0.95880  1.0000 -0.0908682593
C   C17       1.0  0.64130  0.29500  0.43620  1.0000 -0.0829872892
C   C18       1.0  0.35870  0.79500  0.06380  1.0000 -0.0829872892
C   C19       1.0  0.35870  0.70500  0.56380  1.0000 -0.0829872892
C   C20       1.0  0.64130  0.20500  0.93620  1.0000 -0.0829872892
C   C21       1.0  0.60230  0.26140  0.37520  1.0000 -0.1488345728
C   C22       1.0  0.39770  0.76140  0.12480  1.0000 -0.1488345728
C   C23       1.0  0.39770  0.73860  0.62480  1.0000 -0.1488345728
C   C24       1.0  0.60230  0.23860  0.87520  1.0000 -0.1488345728
C   C25       1.0  0.42350  0.54710  0.02910  1.0000 0.0796281069
C   C26       1.0  0.57650  0.04710  0.47090  1.0000 0.0796281069
C   C27       1.0  0.57650  0.45290  0.97090  1.0000 0.0796281069
C   C28       1.0  0.42350  0.95290  0.52910  1.0000 0.0796281069
C   C29       1.0  0.53260  0.57090  0.06030  1.0000 -0.1997069266
C   C30       1.0  0.46740  0.07090  0.43970  1.0000 -0.1997069266
C   C31       1.0  0.46740  0.42910  0.93970  1.0000 -0.1997069266
C   C32       1.0  0.53260  0.92910  0.56030  1.0000 -0.1997069266
C   C33       1.0  0.59560  0.57860  0.12990  1.0000 0.1734409391
C   C34       1.0  0.40440  0.07860  0.37010  1.0000 0.1734409391
C   C35       1.0  0.40440  0.42140  0.87010  1.0000 0.1734409391
C   C36       1.0  0.59560  0.92140  0.62990  1.0000 0.1734409391
C   C37       1.0  0.54820  0.56180  0.16680  1.0000 -0.2109514192
C   C38       1.0  0.45180  0.06180  0.33320  1.0000 -0.2109514192
C   C39       1.0  0.45180  0.43820  0.83320  1.0000 -0.2109514192
C   C40       1.0  0.54820  0.93820  0.66680  1.0000 -0.2109514192
C   C41       1.0  0.44280  0.53530  0.13300  1.0000 0.0796281069
C   C42       1.0  0.55720  0.03530  0.36700  1.0000 0.0796281069
C   C43       1.0  0.55720  0.46470  0.86700  1.0000 0.0796281069
C   C44       1.0  0.44280  0.96470  0.63300  1.0000 0.0796281069
C   C45       1.0  0.71260  0.60880  0.16460  1.0000 -0.2499786283
C   C46       1.0  0.28740  0.10880  0.33540  1.0000 -0.2499786283
C   C47       1.0  0.28740  0.39120  0.83540  1.0000 -0.2499786283
C   C48       1.0  0.71260  0.89120  0.66460  1.0000 -0.2499786283
C   C49       1.0  0.71410  0.66650  0.12870  1.0000 -0.1311230191
C   C50       1.0  0.28590  0.16650  0.37130  1.0000 -0.1311230191
C   C51       1.0  0.28590  0.33350  0.87130  1.0000 -0.1311230191
C   C52       1.0  0.71410  0.83350  0.62870  1.0000 -0.1311230191
C   C53       1.0  0.64220  0.71880  0.12960  1.0000 -0.2499786283
C   C54       1.0  0.35780  0.21880  0.37040  1.0000 -0.2499786283
C   C55       1.0  0.35780  0.28120  0.87040  1.0000 -0.2499786283
C   C56       1.0  0.64220  0.78120  0.62960  1.0000 -0.2499786283
C   C57       1.0  0.70300  0.76020  0.19330  1.0000 0.1734409391
C   C58       1.0  0.29700  0.26020  0.30670  1.0000 0.1734409391
C   C59       1.0  0.29700  0.23980  0.80670  1.0000 0.1734409391
C   C60       1.0  0.70300  0.73980  0.69330  1.0000 0.1734409391
C   C61       1.0  0.71820  0.74370  0.25720  1.0000 -0.2219872099
C   C62       1.0  0.28180  0.24370  0.24280  1.0000 -0.2219872099
C   C63       1.0  0.28180  0.25630  0.74280  1.0000 -0.2219872099
C   C64       1.0  0.71820  0.75630  0.75720  1.0000 -0.2219872099
C   C65       1.0  0.77960  0.78340  0.31400  1.0000 0.0796281069
C   C66       1.0  0.22040  0.28340  0.18600  1.0000 0.0796281069
C   C67       1.0  0.22040  0.21660  0.68600  1.0000 0.0796281069
C   C68       1.0  0.77960  0.71660  0.81400  1.0000 0.0796281069
C   C69       1.0  0.80270  0.85530  0.24730  1.0000 0.0891230678
C   C70       1.0  0.19730  0.35530  0.25270  1.0000 0.0891230678
C   C71       1.0  0.19730  0.14470  0.75270  1.0000 0.0891230678
C   C72       1.0  0.80270  0.64470  0.74730  1.0000 0.0891230678
C   C73       1.0  0.74780  0.81710  0.18930  1.0000 -0.1997069266
C   C74       1.0  0.25220  0.31710  0.31070  1.0000 -0.1997069266
C   C75       1.0  0.25220  0.18290  0.81070  1.0000 -0.1997069266
C   C76       1.0  0.74780  0.68290  0.68930  1.0000 -0.1997069266
C   C77       1.0  0.11410  0.94330  0.39630  1.0000 0.5900003745
C   C78       1.0  0.88590  0.44330  0.10370  1.0000 0.5900003745
C   C79       1.0  0.88590  0.05670  0.60370  1.0000 0.5900003745
C   C80       1.0  0.11410  0.55670  0.89630  1.0000 0.5900003745
C   C81       1.0  0.08100  0.89720  0.33940  1.0000 -0.2413054306
C   C82       1.0  0.91900  0.39720  0.16060  1.0000 -0.2413054306
C   C83       1.0  0.91900  0.10280  0.66060  1.0000 -0.2413054306
C   C84       1.0  0.08100  0.60280  0.83940  1.0000 -0.2413054306
C   C85       1.0  0.05070  0.91230  0.27170  1.0000 0.2890991404
C   C86       1.0  0.94930  0.41230  0.22830  1.0000 0.2890991404
C   C87       1.0  0.94930  0.08770  0.72830  1.0000 0.2890991404
C   C88       1.0  0.05070  0.58770  0.77170  1.0000 0.2890991404
C   C89       1.0  0.03420  0.97610  0.24070  1.0000 -0.5018175781
C   C90       1.0  0.96580  0.47610  0.25930  1.0000 -0.5018175781
C   C91       1.0  0.96580  0.02390  0.75930  1.0000 -0.5018175781
C   C92       1.0  0.03420  0.52390  0.74070  1.0000 -0.5018175781
C   C93       1.0  0.08300  0.83140  0.34500  1.0000 0.1096098485
C   C94       1.0  0.91700  0.33140  0.15500  1.0000 0.1096098485
C   C95       1.0  0.91700  0.16860  0.65500  1.0000 0.1022479792
C   C96       1.0  0.08300  0.66860  0.84500  1.0000 0.1022479792
C   C97       1.0  0.05180  0.80760  0.27920  1.0000 0.0614552799
C   C98       1.0  0.94820  0.30760  0.22080  1.0000 0.0614552799
C   C99       1.0  0.94820  0.19240  0.72080  1.0000 0.0614552799
C   C100      1.0  0.05180  0.69240  0.77920  1.0000 0.0614552799
C   C101      1.0  0.11550  0.79480  0.40940  1.0000 -0.450707154
C   C102      1.0  0.88450  0.29480  0.09060  1.0000 -0.450707154
C   C103      1.0  0.88450  0.20520  0.59060  1.0000 -0.450707154
C   C104      1.0  0.11550  0.70520  0.90940  1.0000 -0.450707154
C   C105      1.0  0.04230  0.74470  0.25480  1.0000 -0.0045593182
C   C106      1.0  0.95770  0.24470  0.24520  1.0000 -0.0045593182
C   C107      1.0  0.95770  0.25530  0.74520  1.0000 -0.0045593182
C   C108      1.0  0.04230  0.75530  0.75480  1.0000 -0.005802055
C   C109      1.0  0.06680  0.69260  0.30150  1.0000 0.0796281069
C   C110      1.0  0.93320  0.19260  0.19850  1.0000 0.0796281069
C   C111      1.0  0.93320  0.30740  0.69850  1.0000 0.0796281069
C   C112      1.0  0.06680  0.80740  0.80150  1.0000 0.0796281069
C   C113      1.0  0.16750  0.66220  0.33020  1.0000 -0.1159720082
C   C114      1.0  0.83250  0.16220  0.16980  1.0000 -0.1159720082
C   C115      1.0  0.83250  0.33780  0.66980  1.0000 -0.1159720082
C   C116      1.0  0.16750  0.83780  0.83020  1.0000 -0.1159720082
C   C117      1.0  0.19200  0.61030  0.37620  1.0000 -0.0908682593
C   C118      1.0  0.80800  0.11030  0.12380  1.0000 -0.0908682593
C   C119      1.0  0.80800  0.38970  0.62380  1.0000 -0.0908682593
C   C120      1.0  0.19200  0.88970  0.87620  1.0000 -0.0908682593
C   C121      1.0  0.11380  0.59150  0.38790  1.0000 -0.1076643613
C   C122      1.0  0.88620  0.09150  0.11210  1.0000 -0.1076643613
C   C123      1.0  0.88620  0.40850  0.61210  1.0000 -0.1076643613
C   C124      1.0  0.11380  0.90850  0.88790  1.0000 -0.1076643613
C   C125      1.0  0.00670  0.62160  0.35990  1.0000 -0.0908682593
C   C126      1.0  0.99330  0.12160  0.14010  1.0000 -0.0829872892
C   C127      1.0  0.99330  0.37840  0.64010  1.0000 -0.0829872892
C   C128      1.0  0.00670  0.87840  0.85990  1.0000 -0.0908682593
C   C129      1.0  0.98930  0.67290  0.31760  1.0000 -0.1311230191
C   C130      1.0  0.01070  0.17290  0.18240  1.0000 -0.1311230191
C   C131      1.0  0.01070  0.32710  0.68240  1.0000 -0.1311230191
C   C132      1.0  0.98930  0.82710  0.81760  1.0000 -0.1311230191
C   C133      1.0  0.01260  0.73340  0.18580  1.0000 0.0483517678
C   C134      1.0  0.98740  0.23340  0.31420  1.0000 0.0483517678
C   C135      1.0  0.98740  0.26660  0.81420  1.0000 0.0483517678
C   C136      1.0  0.01260  0.76660  0.68580  1.0000 0.0483517678
C   C137      1.0  0.99500  0.67670  0.14950  1.0000 0.1194676524
C   C138      1.0  0.00500  0.17670  0.35050  1.0000 0.1194676524
C   C139      1.0  0.00500  0.32330  0.85050  1.0000 0.1194676524
C   C140      1.0  0.99500  0.82330  0.64950  1.0000 0.1194676524
C   C141      1.0  0.00110  0.61160  0.17570  1.0000 -0.4434038565
C   C142      1.0  0.99890  0.11160  0.32430  1.0000 -0.4434038565
C   C143      1.0  0.99890  0.38840  0.82430  1.0000 -0.4434038565
C   C144      1.0  0.00110  0.88840  0.67570  1.0000 -0.4434038565
C   C145      1.0  0.96790  0.69330  0.08230  1.0000 -0.2219872099
C   C146      1.0  0.03210  0.19330  0.41770  1.0000 -0.2219872099
C   C147      1.0  0.03210  0.30670  0.91770  1.0000 -0.2219872099
C   C148      1.0  0.96790  0.80670  0.58230  1.0000 -0.2219872099
C   C149      1.0  0.96880  0.75990  0.07870  1.0000 0.299406286
C   C150      1.0  0.03120  0.25990  0.42130  1.0000 0.299406286
C   C151      1.0  0.03120  0.24010  0.92130  1.0000 0.299406286
C   C152      1.0  0.96880  0.74010  0.57870  1.0000 0.299406286
C   C153      1.0  0.94210  0.79970  0.01830  1.0000 -0.5063778923
C   C154      1.0  0.05790  0.29970  0.48170  1.0000 -0.5063778923
C   C155      1.0  0.05790  0.20030  0.98170  1.0000 -0.5063778923
C   C156      1.0  0.94210  0.70030  0.51830  1.0000 -0.5063778923
C   C157      1.0  0.94410  0.65030  0.02440  1.0000 0.5981869459
C   C158      1.0  0.05590  0.15030  0.47560  1.0000 0.5981869459
C   C159      1.0  0.05590  0.34970  0.97560  1.0000 0.5981869459
C   C160      1.0  0.94410  0.84970  0.52440  1.0000 0.5981869459
C   C161      1.0  0.80650  0.02360  0.35000  1.0000 0.5981869459
C   C162      1.0  0.19350  0.52360  0.15000  1.0000 0.5981869459
C   C163      1.0  0.19350  0.97640  0.65000  1.0000 0.5981869459
C   C164      1.0  0.80650  0.47640  0.85000  1.0000 0.5981869459
C   C165      1.0  0.73460  0.07730  0.31140  1.0000 -0.2499786283
C   C166      1.0  0.26540  0.57730  0.18860  1.0000 -0.2499786283
C   C167      1.0  0.26540  0.92270  0.68860  1.0000 -0.2413054306
C   C168      1.0  0.73460  0.42270  0.81140  1.0000 -0.2499786283
C   C169      1.0  0.65970  0.07840  0.23870  1.0000 0.299406286
C   C170      1.0  0.34030  0.57840  0.26130  1.0000 0.299406286
C   C171      1.0  0.34030  0.92160  0.76130  1.0000 0.299406286
C   C172      1.0  0.65970  0.42160  0.73870  1.0000 0.299406286
C   C173      1.0  0.63940  0.02660  0.18860  1.0000 -0.4933579282
C   C174      1.0  0.36060  0.52660  0.31140  1.0000 -0.4933579282
C   C175      1.0  0.36060  0.97340  0.81140  1.0000 -0.4933579282
C   C176      1.0  0.63940  0.47340  0.68860  1.0000 -0.4933579282
C   C177      1.0  0.72180  0.13420  0.33810  1.0000 0.1022479792
C   C178      1.0  0.27820  0.63420  0.16190  1.0000 0.1022479792
C   C179      1.0  0.27820  0.86580  0.66190  1.0000 0.1022479792
C   C180      1.0  0.72180  0.36580  0.83810  1.0000 0.1022479792
C   C181      1.0  0.77990  0.15320  0.41210  1.0000 -0.4434038565
C   C182      1.0  0.22010  0.65320  0.08790  1.0000 -0.4434038565
C   C183      1.0  0.22010  0.84680  0.58790  1.0000 -0.4434038565
C   C184      1.0  0.77990  0.34680  0.91210  1.0000 -0.4434038565
C   C185      1.0  0.64240  0.16960  0.28230  1.0000 0.0614552799
C   C186      1.0  0.35760  0.66960  0.21770  1.0000 0.0614552799
C   C187      1.0  0.35760  0.83040  0.71770  1.0000 0.0614552799
C   C188      1.0  0.64240  0.33040  0.78230  1.0000 0.0614552799
C   C189      1.0  0.51460  0.25610  0.21490  1.0000 0.0796281069
C   C190      1.0  0.48540  0.75610  0.28510  1.0000 0.0796281069
C   C191      1.0  0.48540  0.74390  0.78510  1.0000 0.0796281069
C   C192      1.0  0.51460  0.24390  0.71490  1.0000 0.0796281069
C   C193      1.0  0.40240  0.25860  0.09930  1.0000 0.299406286
C   C194      1.0  0.59760  0.75860  0.40070  1.0000 0.299406286
C   C195      1.0  0.59760  0.74140  0.90070  1.0000 0.299406286
C   C196      1.0  0.40240  0.24140  0.59930  1.0000 0.299406286
C   C197      1.0  0.34310  0.23880  0.02510  1.0000 -0.5018175781
C   C198      1.0  0.65690  0.73880  0.47490  1.0000 -0.5018175781
C   C199      1.0  0.65690  0.76120  0.97490  1.0000 -0.5018175781
C   C200      1.0  0.34310  0.26120  0.52510  1.0000 -0.5018175781
C   C201      1.0  0.39280  0.31650  0.12530  1.0000 -0.2303585575
C   C202      1.0  0.60720  0.81650  0.37470  1.0000 -0.2303585575
C   C203      1.0  0.60720  0.68350  0.87470  1.0000 -0.2303585575
C   C204      1.0  0.39280  0.18350  0.62530  1.0000 -0.2303585575
C   C205      1.0  0.32580  0.37160  0.08390  1.0000 0.5900003745
C   C206      1.0  0.67420  0.87160  0.41610  1.0000 0.5900003745
C   C207      1.0  0.67420  0.62840  0.91610  1.0000 0.5900003745
C   C208      1.0  0.32580  0.12840  0.58390  1.0000 0.5900003745
C   C209      1.0  0.46230  0.31430  0.19810  1.0000 0.1096098485
C   C210      1.0  0.53770  0.81430  0.30190  1.0000 0.1096098485
C   C211      1.0  0.53770  0.68570  0.80190  1.0000 0.1096098485
C   C212      1.0  0.46230  0.18570  0.69810  1.0000 0.1096098485
C   C213      1.0  0.47850  0.36560  0.24780  1.0000 -0.4328298361
C   C214      1.0  0.52150  0.86560  0.25220  1.0000 -0.4328298361
C   C215      1.0  0.52150  0.63440  0.75220  1.0000 -0.4328298361
C   C216      1.0  0.47850  0.13440  0.74780  1.0000 -0.4328298361
C   C217      1.0  0.60090  0.23180  0.28260  1.0000 -0.0541746464
C   C218      1.0  0.39910  0.73180  0.21740  1.0000 -0.0541746464
C   C219      1.0  0.39910  0.76820  0.71740  1.0000 -0.0541746464
C   C220      1.0  0.60090  0.26820  0.78260  1.0000 -0.0541746464
N   N1        1.0  0.82120  0.83920  0.30950  1.0000 -0.2499786283
N   N2        1.0  0.17880  0.33920  0.19050  1.0000 -0.2499786283
N   N3        1.0  0.17880  0.16080  0.69050  1.0000 -0.2499786283
N   N4        1.0  0.82120  0.66080  0.80950  1.0000 -0.2499786283
N   N5        1.0  0.37850  0.52860  0.06440  1.0000 -0.2413054306
N   N6        1.0  0.62150  0.02860  0.43560  1.0000 -0.2413054306
N   N7        1.0  0.62150  0.47140  0.93560  1.0000 -0.2413054306
N   N8        1.0  0.37850  0.97140  0.56440  1.0000 -0.2413054306
N   N9        1.0  0.99310  0.78320  0.14050  1.0000 -0.3346853421
N   N10       1.0  0.00690  0.28320  0.35950  1.0000 -0.3399004455
N   N11       1.0  0.00690  0.21680  0.85950  1.0000 -0.3399004455
N   N12       1.0  0.99310  0.71680  0.64050  1.0000 -0.3346853421
N   N13       1.0  0.03180  0.85830  0.23490  1.0000 -0.3399004455
N   N14       1.0  0.96820  0.35830  0.26510  1.0000 -0.3399004455
N   N15       1.0  0.96820  0.14170  0.76510  1.0000 -0.3399004455
N   N16       1.0  0.03180  0.64170  0.73490  1.0000 -0.3399004455
N   N17       1.0  0.60400  0.13450  0.22180  1.0000 -0.3528645948
N   N18       1.0  0.39600  0.63450  0.27820  1.0000 -0.3528645948
N   N19       1.0  0.39600  0.86550  0.77820  1.0000 -0.3528645948
N   N20       1.0  0.60400  0.36550  0.72180  1.0000 -0.3528645948
N   N21       1.0  0.47720  0.22240  0.15400  1.0000 -0.358766751
N   N22       1.0  0.52280  0.72240  0.34600  1.0000 -0.358766751
N   N23       1.0  0.52280  0.77760  0.84600  1.0000 -0.358766751
N   N24       1.0  0.47720  0.27760  0.65400  1.0000 -0.358766751
O   O1        1.0  0.93780  0.59123  0.03000  1.0000 -0.556065099
O   O2        1.0  0.06220  0.09123  0.47000  1.0000 -0.556065099
O   O3        1.0  0.06220  0.40877  0.97000  1.0000 -0.556065099
O   O4        1.0  0.93780  0.90877  0.53000  1.0000 -0.556065099
O   O5        1.0  0.93150  0.67560  0.97000  1.0000 -0.5391115015
O   O6        1.0  0.06850  0.17560  0.53000  1.0000 -0.5391115015
O   O7        1.0  0.06850  0.32440  0.03000  1.0000 -0.5391115015
O   O8        1.0  0.93150  0.82440  0.47000  1.0000 -0.5391115015
O   O9        1.0  0.07940  0.93564  0.43743  1.0000 -0.5512947009
O   O10       1.0  0.92060  0.43564  0.06257  1.0000 -0.5512947009
O   O11       1.0  0.92060  0.06436  0.56257  1.0000 -0.5512947009
O   O12       1.0  0.07940  0.56436  0.93743  1.0000 -0.5512947009
O   O13       1.0  0.17930  0.98710  0.40440  1.0000 -0.5391115015
O   O14       1.0  0.82070  0.48710  0.09560  1.0000 -0.5391115015
O   O15       1.0  0.82070  0.01290  0.59560  1.0000 -0.5391115015
O   O16       1.0  0.17930  0.51290  0.90440  1.0000 -0.5391115015
O   O17       1.0  0.84280  0.01636  0.41389  1.0000 -0.5512947009
O   O18       1.0  0.15720  0.51636  0.08611  1.0000 -0.5512947009
O   O19       1.0  0.15720  0.98364  0.58611  1.0000 -0.5512947009
O   O20       1.0  0.84280  0.48364  0.91389  1.0000 -0.5512947009
O   O21       1.0  0.83070  0.98442  0.31760  1.0000 -0.5391115015
O   O22       1.0  0.16930  0.48442  0.18240  1.0000 -0.5391115015
O   O23       1.0  0.16930  0.01558  0.68240  1.0000 -0.5391115015
O   O24       1.0  0.83070  0.51558  0.81760  1.0000 -0.5391115015
O   O25       1.0  0.28550  0.40775  0.10960  1.0000 -0.5855266915
O   O26       1.0  0.71450  0.90775  0.39040  1.0000 -0.5855266915
O   O27       1.0  0.71450  0.59225  0.89040  1.0000 -0.5855266915
O   O28       1.0  0.28550  0.09225  0.60960  1.0000 -0.5855266915
O   O29       1.0  0.31270  0.38200  0.02540  1.0000 -0.5512947009
O   O30       1.0  0.68730  0.88200  0.47460  1.0000 -0.5512947009
O   O31       1.0  0.68730  0.61800  0.97460  1.0000 -0.5512947009
O   O32       1.0  0.31270  0.11800  0.52540  1.0000 -0.5512947009
F   F1        1.0  0.06600  0.88750  0.14580  1.0000 -0.3913830981
F   F2        1.0  0.93400  0.38750  0.35420  1.0000 -0.3913830981
F   F3        1.0  0.93400  0.11250  0.85420  1.0000 -0.3913830981
F   F4        1.0  0.06600  0.61250  0.64580  1.0000 -0.3913830981
F   F5        1.0  0.88800  0.88020  0.11630  1.0000 -0.4133855716
F   F6        1.0  0.11200  0.38020  0.38370  1.0000 -0.4133855716
F   F7        1.0  0.11200  0.11980  0.88370  1.0000 -0.4133855716
F   F8        1.0  0.88800  0.61980  0.61630  1.0000 -0.4133855716
F   F9        1.0  0.42750  0.11520  0.11950  1.0000 -0.3528645948
F   F10       1.0  0.57250  0.61520  0.38050  1.0000 -0.3528645948
F   F11       1.0  0.57250  0.88480  0.88050  1.0000 -0.3528645948
F   F12       1.0  0.42750  0.38480  0.61950  1.0000 -0.3528645948
F   F13       1.0  0.54990  0.15250  0.10260  1.0000 -0.3666123615
F   F14       1.0  0.45010  0.65250  0.39740  1.0000 -0.3666123615
F   F15       1.0  0.45010  0.84750  0.89740  1.0000 -0.3666123615
F   F16       1.0  0.54990  0.34750  0.60260  1.0000 -0.3666123615
