# DDEC6 charges by PACMAN v1.1 (https://github.com/mtap-research/PACMAN-charge/)
data_2015[Zn][crb]3[ASR]2
_chemical_formula_sum              "Zn4 H32 C60 N16 O16"
_cell_length_a       9.8054
_cell_length_b       17.9814
_cell_length_c       14.4014
_cell_angle_alpha    90
_cell_angle_beta     124.529
_cell_angle_gamma    90

_symmetry_space_group_name_H-M    "P 1"
_symmetry_Int_Tables_number       1

loop_
  _symmetry_equiv_pos_as_xyz
  'x, y, z'

loop_
  _atom_site_type_symbol
  _atom_site_label
  _atom_site_symmetry_multiplicity
  _atom_site_fract_x
  _atom_site_fract_y
  _atom_site_fract_z
  _atom_site_occupancy
  _atom_site_charge
Zn  Zn1       1.0  0.10644  0.54772  0.66091  1.0000 0.742886728
Zn  Zn2       1.0  0.89356  0.04772  0.83909  1.0000 0.742886728
Zn  Zn3       1.0  0.89356  0.45228  0.33909  1.0000 0.742886728
Zn  Zn4       1.0  0.10644  0.95228  0.16091  1.0000 0.742886728
H   H1        1.0  0.42290  0.06880  0.83390  1.0000 0.1389242314
H   H2        1.0  0.57710  0.56880  0.66610  1.0000 0.1389242314
H   H3        1.0  0.57710  0.93120  0.16610  1.0000 0.1389242314
H   H4        1.0  0.42290  0.43120  0.33390  1.0000 0.1389242314
H   H5        1.0  0.05060  0.22110  0.70240  1.0000 0.1389242314
H   H6        1.0  0.94940  0.72110  0.79760  1.0000 0.1389242314
H   H7        1.0  0.94940  0.77890  0.29760  1.0000 0.1389242314
H   H8        1.0  0.05060  0.27890  0.20240  1.0000 0.1389242314
H   H9        1.0  0.45780  0.26310  0.70210  1.0000 0.1389242314
H   H10       1.0  0.54220  0.76310  0.79790  1.0000 0.1389242314
H   H11       1.0  0.54220  0.73690  0.29790  1.0000 0.1389242314
H   H12       1.0  0.45780  0.23690  0.20210  1.0000 0.1389242314
H   H13       1.0  0.06810  0.29770  0.47090  1.0000 0.1494036338
H   H14       1.0  0.93190  0.79770  0.02910  1.0000 0.1494036338
H   H15       1.0  0.93190  0.70230  0.52910  1.0000 0.1494036338
H   H16       1.0  0.06810  0.20230  0.97090  1.0000 0.1494036338
H   H17       1.0  0.35910  0.31070  0.88580  1.0000 0.1389242314
H   H18       1.0  0.64090  0.81070  0.61420  1.0000 0.1389242314
H   H19       1.0  0.64090  0.68930  0.11420  1.0000 0.1389242314
H   H20       1.0  0.35910  0.18930  0.38580  1.0000 0.1389242314
H   H21       1.0  0.45000  0.35640  0.06550  1.0000 0.1214666723
H   H22       1.0  0.55000  0.85640  0.43450  1.0000 0.1214666723
H   H23       1.0  0.55000  0.64360  0.93450  1.0000 0.1214666723
H   H24       1.0  0.45000  0.14360  0.56550  1.0000 0.1214666723
H   H25       1.0  0.37480  0.47490  0.08310  1.0000 0.1389242314
H   H26       1.0  0.62520  0.97490  0.41690  1.0000 0.1389242314
H   H27       1.0  0.62520  0.52510  0.91690  1.0000 0.1389242314
H   H28       1.0  0.37480  0.02510  0.58310  1.0000 0.1389242314
H   H29       1.0  0.23700  0.55290  0.92500  1.0000 0.1214666723
H   H30       1.0  0.76300  0.05290  0.57500  1.0000 0.1214666723
H   H31       1.0  0.76300  0.44710  0.07500  1.0000 0.1214666723
H   H32       1.0  0.23700  0.94710  0.42500  1.0000 0.1214666723
C   C1        1.0  0.13310  0.09120  0.81100  1.0000 0.5442599117
C   C2        1.0  0.86690  0.59120  0.68900  1.0000 0.5442599117
C   C3        1.0  0.86690  0.90880  0.18900  1.0000 0.5442599117
C   C4        1.0  0.13310  0.40880  0.31100  1.0000 0.5442599117
C   C5        1.0  0.63140  0.13940  0.79510  1.0000 0.5452918469
C   C6        1.0  0.36860  0.63940  0.70490  1.0000 0.5452918469
C   C7        1.0  0.36860  0.86060  0.20490  1.0000 0.5452918469
C   C8        1.0  0.63140  0.36060  0.29510  1.0000 0.5452918469
C   C9        1.0  0.37840  0.11570  0.79920  1.0000 -0.129006786
C   C10       1.0  0.62160  0.61570  0.70080  1.0000 -0.129006786
C   C11       1.0  0.62160  0.88430  0.20080  1.0000 -0.129006786
C   C12       1.0  0.37840  0.38430  0.29920  1.0000 -0.129006786
C   C13       1.0  0.22580  0.13820  0.77650  1.0000 0.0124237326
C   C14       1.0  0.77420  0.63820  0.72350  1.0000 0.0124237326
C   C15       1.0  0.77420  0.86180  0.22350  1.0000 0.0124237326
C   C16       1.0  0.22580  0.36180  0.27650  1.0000 0.0124237326
C   C17       1.0  0.46760  0.16120  0.77160  1.0000 0.0019169155
C   C18       1.0  0.53240  0.66120  0.72840  1.0000 0.0019169155
C   C19       1.0  0.53240  0.83880  0.22840  1.0000 0.0019169155
C   C20       1.0  0.46760  0.33880  0.27160  1.0000 0.0019169155
C   C21       1.0  0.15610  0.20590  0.72090  1.0000 -0.2129364588
C   C22       1.0  0.84390  0.70590  0.77910  1.0000 -0.2129364588
C   C23       1.0  0.84390  0.79410  0.27910  1.0000 -0.2129364588
C   C24       1.0  0.15610  0.29410  0.22090  1.0000 -0.2129364588
C   C25       1.0  0.39880  0.23050  0.71930  1.0000 -0.2198871315
C   C26       1.0  0.60120  0.73050  0.78070  1.0000 -0.2198871315
C   C27       1.0  0.60120  0.76950  0.28070  1.0000 -0.2198871315
C   C28       1.0  0.39880  0.26950  0.21930  1.0000 -0.2198871315
C   C29       1.0  0.24460  0.25020  0.69360  1.0000 0.1494036338
C   C30       1.0  0.75540  0.75020  0.80640  1.0000 0.1494036338
C   C31       1.0  0.75540  0.74980  0.30640  1.0000 0.1494036338
C   C32       1.0  0.24460  0.24980  0.19360  1.0000 0.1494036338
C   C33       1.0  0.08840  0.33390  0.52540  1.0000 0.1389242314
C   C34       1.0  0.91160  0.83390  0.97460  1.0000 0.1389242314
C   C35       1.0  0.91160  0.66610  0.47460  1.0000 0.1389242314
C   C36       1.0  0.08840  0.16610  0.02540  1.0000 0.1389242314
C   C37       1.0  0.17280  0.38750  0.68430  1.0000 0.2206533014
C   C38       1.0  0.82720  0.88750  0.81570  1.0000 0.2206533014
C   C39       1.0  0.82720  0.61250  0.31570  1.0000 0.2206533014
C   C40       1.0  0.17280  0.11250  0.18430  1.0000 0.2206533014
C   C41       1.0  0.24600  0.40730  0.80370  1.0000 0.1582259744
C   C42       1.0  0.75400  0.90730  0.69630  1.0000 0.1582259744
C   C43       1.0  0.75400  0.59270  0.19630  1.0000 0.1582259744
C   C44       1.0  0.24600  0.09270  0.30370  1.0000 0.1582259744
C   C45       1.0  0.33440  0.36010  0.89500  1.0000 -0.1707602234
C   C46       1.0  0.66560  0.86010  0.60500  1.0000 -0.1707602234
C   C47       1.0  0.66560  0.63990  0.10500  1.0000 -0.1707602234
C   C48       1.0  0.33440  0.13990  0.39500  1.0000 -0.1707602234
C   C49       1.0  0.38630  0.38710  0.00090  1.0000 -0.0228294001
C   C50       1.0  0.61370  0.88710  0.49910  1.0000 -0.0228294001
C   C51       1.0  0.61370  0.61290  0.99910  1.0000 -0.0228294001
C   C52       1.0  0.38630  0.11290  0.50090  1.0000 -0.0228294001
C   C53       1.0  0.34570  0.45720  0.01180  1.0000 -0.129006786
C   C54       1.0  0.65430  0.95720  0.48820  1.0000 -0.129006786
C   C55       1.0  0.65430  0.54280  0.98820  1.0000 -0.129006786
C   C56       1.0  0.34570  0.04280  0.51180  1.0000 -0.129006786
C   C57       1.0  0.26090  0.50310  0.91690  1.0000 0.0957080073
C   C58       1.0  0.73910  0.00310  0.58310  1.0000 0.0957080073
C   C59       1.0  0.73910  0.49690  0.08310  1.0000 0.0957080073
C   C60       1.0  0.26090  0.99690  0.41690  1.0000 0.0957080073
N   N1        1.0  0.17260  0.32135  0.63790  1.0000 -0.0421570285
N   N2        1.0  0.82740  0.82135  0.86210  1.0000 -0.0421570285
N   N3        1.0  0.82740  0.67865  0.36210  1.0000 -0.0421570285
N   N4        1.0  0.17260  0.17865  0.13790  1.0000 -0.0421570285
N   N5        1.0  0.03860  0.40396  0.50270  1.0000 -0.1167101131
N   N6        1.0  0.96140  0.90396  0.99730  1.0000 -0.1167101131
N   N7        1.0  0.96140  0.59604  0.49730  1.0000 -0.1167101131
N   N8        1.0  0.03860  0.09604  0.00270  1.0000 -0.1167101131
N   N9        1.0  0.09330  0.43771  0.60440  1.0000 -0.1942940966
N   N10       1.0  0.90670  0.93771  0.89560  1.0000 -0.1942940966
N   N11       1.0  0.90670  0.56229  0.39560  1.0000 -0.1942940966
N   N12       1.0  0.09330  0.06229  0.10440  1.0000 -0.1942940966
N   N13       1.0  0.21170  0.47820  0.81330  1.0000 -0.235360095
N   N14       1.0  0.78830  0.97820  0.68670  1.0000 -0.235360095
N   N15       1.0  0.78830  0.52180  0.18670  1.0000 -0.2338910193
N   N16       1.0  0.21170  0.02180  0.31330  1.0000 -0.235360095
O   O1        1.0  0.19710  0.03330  0.86780  1.0000 -0.5587311924
O   O2        1.0  0.80290  0.53330  0.63220  1.0000 -0.5587311924
O   O3        1.0  0.80290  0.96670  0.13220  1.0000 -0.5587311924
O   O4        1.0  0.19710  0.46670  0.36780  1.0000 -0.5587311924
O   O5        1.0  0.99120  0.11575  0.78170  1.0000 -0.5533045919
O   O6        1.0  0.00880  0.61575  0.71830  1.0000 -0.5533045919
O   O7        1.0  0.00880  0.88425  0.21830  1.0000 -0.5533045919
O   O8        1.0  0.99120  0.38425  0.28170  1.0000 -0.5533045919
O   O9        1.0  0.66800  0.07042  0.80780  1.0000 -0.5533045919
O   O10       1.0  0.33200  0.57042  0.69220  1.0000 -0.5533045919
O   O11       1.0  0.33200  0.92958  0.19220  1.0000 -0.5533045919
O   O12       1.0  0.66800  0.42958  0.30780  1.0000 -0.5533045919
O   O13       1.0  0.72660  0.18940  0.80220  1.0000 -0.5587311924
O   O14       1.0  0.27340  0.68940  0.69780  1.0000 -0.5587311924
O   O15       1.0  0.27340  0.81060  0.19780  1.0000 -0.5587311924
O   O16       1.0  0.72660  0.31060  0.30220  1.0000 -0.5587311924
