# DDEC6 charges by PACMAN v1.1 (https://github.com/mtap-research/PACMAN-charge/)
data_2015[Zn][pts]3[ASR]2
_chemical_formula_sum              "Zn4 H16 C28 O12"
_cell_length_a       9.1425
_cell_length_b       9.1425
_cell_length_c       12.663
_cell_angle_alpha    90
_cell_angle_beta     90
_cell_angle_gamma    90

_symmetry_space_group_name_H-M    "P 1"
_symmetry_Int_Tables_number       1

loop_
  _symmetry_equiv_pos_as_xyz
  'x, y, z'

loop_
  _atom_site_type_symbol
  _atom_site_label
  _atom_site_symmetry_multiplicity
  _atom_site_fract_x
  _atom_site_fract_y
  _atom_site_fract_z
  _atom_site_occupancy
  _atom_site_charge
Zn  Zn1       1.0  0.03458  0.03458  0.37500  1.0000 0.9234567106
Zn  Zn2       1.0  0.96542  0.96542  0.87500  1.0000 0.9234567106
Zn  Zn3       1.0  0.96542  0.03458  0.62500  1.0000 0.9234567106
Zn  Zn4       1.0  0.03458  0.96542  0.12500  1.0000 0.9234567106
H   H1        1.0  0.47631  0.05319  0.41647  1.0000 0.1024004704
H   H2        1.0  0.52369  0.94681  0.91647  1.0000 0.1024004704
H   H3        1.0  0.94681  0.47631  0.66647  1.0000 0.1024004704
H   H4        1.0  0.05319  0.52369  0.16647  1.0000 0.1024004704
H   H5        1.0  0.52369  0.05319  0.58353  1.0000 0.1024004704
H   H6        1.0  0.47631  0.94681  0.08353  1.0000 0.1024004704
H   H7        1.0  0.05319  0.47631  0.33353  1.0000 0.1024004704
H   H8        1.0  0.94681  0.52369  0.83353  1.0000 0.1024004704
H   H9        1.0  0.74873  0.06251  0.41443  1.0000 0.119189551
H   H10       1.0  0.25127  0.93749  0.91443  1.0000 0.119189551
H   H11       1.0  0.93749  0.74873  0.66443  1.0000 0.119189551
H   H12       1.0  0.06251  0.25127  0.16443  1.0000 0.119189551
H   H13       1.0  0.25127  0.06251  0.58557  1.0000 0.119189551
H   H14       1.0  0.74873  0.93749  0.08557  1.0000 0.119189551
H   H15       1.0  0.06251  0.74873  0.33557  1.0000 0.119189551
H   H16       1.0  0.93749  0.25127  0.83557  1.0000 0.119189551
C   C1        1.0  0.29907  0.00000  0.25000  1.0000 0.6049370587
C   C2        1.0  0.70093  0.00000  0.75000  1.0000 0.6051490725
C   C3        1.0  0.00000  0.29907  0.50000  1.0000 0.6051490725
C   C4        1.0  0.00000  0.70093  0.00000  1.0000 0.6051490725
C   C5        1.0  0.45922  0.00000  0.25000  1.0000 -0.0941898628
C   C6        1.0  0.54078  0.00000  0.75000  1.0000 -0.0941898628
C   C7        1.0  0.00000  0.45922  0.50000  1.0000 -0.0941898628
C   C8        1.0  0.00000  0.54078  0.00000  1.0000 -0.0941898628
C   C9        1.0  0.76487  0.00000  0.25000  1.0000 0.3544112564
C   C10       1.0  0.23513  0.00000  0.75000  1.0000 0.3544112564
C   C11       1.0  0.00000  0.76487  0.50000  1.0000 0.3544112564
C   C12       1.0  0.00000  0.23513  0.00000  1.0000 0.3544112564
C   C13       1.0  0.53631  0.03006  0.34370  1.0000 -0.0468700897
C   C14       1.0  0.46369  0.96994  0.84370  1.0000 -0.0468700897
C   C15       1.0  0.96994  0.53631  0.59370  1.0000 -0.0468700897
C   C16       1.0  0.03006  0.46369  0.09370  1.0000 -0.0468700897
C   C17       1.0  0.46369  0.03006  0.65630  1.0000 -0.0468700897
C   C18       1.0  0.53631  0.96994  0.15630  1.0000 -0.0468700897
C   C19       1.0  0.03006  0.53631  0.40630  1.0000 -0.0468700897
C   C20       1.0  0.96994  0.46369  0.90630  1.0000 -0.0468700897
C   C21       1.0  0.68756  0.03349  0.34319  1.0000 -0.2145167693
C   C22       1.0  0.31244  0.96651  0.84319  1.0000 -0.2145167693
C   C23       1.0  0.96651  0.68756  0.59319  1.0000 -0.2145167693
C   C24       1.0  0.03349  0.31244  0.09319  1.0000 -0.2145167693
C   C25       1.0  0.31244  0.03349  0.65681  1.0000 -0.2145167693
C   C26       1.0  0.68756  0.96651  0.15681  1.0000 -0.2145167693
C   C27       1.0  0.03349  0.68756  0.40681  1.0000 -0.2145167693
C   C28       1.0  0.96651  0.31244  0.90681  1.0000 -0.2145167693
O   O1        1.0  0.91339  0.00000  0.25000  1.0000 -0.5837170362
O   O2        1.0  0.08661  0.00000  0.75000  1.0000 -0.5837170362
O   O3        1.0  0.00000  0.91339  0.50000  1.0000 -0.5837170362
O   O4        1.0  0.00000  0.08661  0.00000  1.0000 -0.5837170362
O   O5        1.0  0.23419  0.98363  0.33994  1.0000 -0.5627317309
O   O6        1.0  0.76581  0.01637  0.83994  1.0000 -0.5627317309
O   O7        1.0  0.01637  0.23419  0.58994  1.0000 -0.5627317309
O   O8        1.0  0.98363  0.76581  0.08994  1.0000 -0.5627317309
O   O9        1.0  0.76581  0.98363  0.66006  1.0000 -0.5627317309
O   O10       1.0  0.23419  0.01637  0.16006  1.0000 -0.5627317309
O   O11       1.0  0.98363  0.23419  0.41006  1.0000 -0.5627317309
O   O12       1.0  0.01637  0.76581  0.91006  1.0000 -0.5627317309
