# DDEC6 charges by PACMAN v1.1 (https://github.com/mtap-research/PACMAN-charge/)
data_2015[Cd][bcu]3[ASR]2
_chemical_formula_sum              "Cd4 H64 C96 N8 O16"
_cell_length_a       9.727
_cell_length_b       17.0204
_cell_length_c       15.2959
_cell_angle_alpha    90
_cell_angle_beta     96.8477
_cell_angle_gamma    90

_symmetry_space_group_name_H-M    "P 1"
_symmetry_Int_Tables_number       1

loop_
  _symmetry_equiv_pos_as_xyz
  'x, y, z'

loop_
  _atom_site_type_symbol
  _atom_site_label
  _atom_site_symmetry_multiplicity
  _atom_site_fract_x
  _atom_site_fract_y
  _atom_site_fract_z
  _atom_site_occupancy
  _atom_site_charge
Cd  Cd1       1.0  0.13314  0.41974  0.48068  1.0000 0.8566369078
Cd  Cd2       1.0  0.86686  0.91974  0.01932  1.0000 0.8566369078
Cd  Cd3       1.0  0.86686  0.58026  0.51932  1.0000 0.8566369078
Cd  Cd4       1.0  0.13314  0.08026  0.98068  1.0000 0.8566369078
H   H1        1.0  0.08220  0.63070  0.72850  1.0000 0.1262675914
H   H2        1.0  0.91780  0.13070  0.77150  1.0000 0.1262675914
H   H3        1.0  0.91780  0.36930  0.27150  1.0000 0.1262675914
H   H4        1.0  0.08220  0.86930  0.22850  1.0000 0.1262675914
H   H5        1.0  0.42150  0.68380  0.89970  1.0000 0.1103720564
H   H6        1.0  0.57850  0.18380  0.60030  1.0000 0.1103720564
H   H7        1.0  0.57850  0.31620  0.10030  1.0000 0.1103720564
H   H8        1.0  0.42150  0.81620  0.39970  1.0000 0.1103720564
H   H9        1.0  0.55150  0.59380  0.82880  1.0000 0.1206795531
H   H10       1.0  0.44850  0.09380  0.67120  1.0000 0.1206795531
H   H11       1.0  0.44850  0.40620  0.17120  1.0000 0.1206795531
H   H12       1.0  0.55150  0.90620  0.32880  1.0000 0.1206795531
H   H13       1.0  0.44610  0.51810  0.71170  1.0000 0.1103720564
H   H14       1.0  0.55390  0.01810  0.78830  1.0000 0.1103720564
H   H15       1.0  0.55390  0.48190  0.28830  1.0000 0.1103720564
H   H16       1.0  0.44610  0.98190  0.21170  1.0000 0.1103720564
H   H17       1.0  0.92070  0.85790  0.83080  1.0000 0.1103720564
H   H18       1.0  0.07930  0.35790  0.66920  1.0000 0.1103720564
H   H19       1.0  0.07930  0.14210  0.16920  1.0000 0.1103720564
H   H20       1.0  0.92070  0.64210  0.33080  1.0000 0.1103720564
H   H21       1.0  0.04360  0.76900  0.75720  1.0000 0.1402623317
H   H22       1.0  0.95640  0.26900  0.74280  1.0000 0.1402623317
H   H23       1.0  0.95640  0.23100  0.24280  1.0000 0.1402623317
H   H24       1.0  0.04360  0.73100  0.25720  1.0000 0.1402623317
H   H25       1.0  0.23960  0.70100  0.99330  1.0000 0.1262675914
H   H26       1.0  0.76040  0.20100  0.50670  1.0000 0.1262675914
H   H27       1.0  0.76040  0.29900  0.00670  1.0000 0.1262675914
H   H28       1.0  0.23960  0.79900  0.49330  1.0000 0.1262675914
H   H29       1.0  0.11210  0.79170  0.06000  1.0000 0.1103720564
H   H30       1.0  0.88790  0.29170  0.44000  1.0000 0.1103720564
H   H31       1.0  0.88790  0.20830  0.94000  1.0000 0.1103720564
H   H32       1.0  0.11210  0.70830  0.56000  1.0000 0.1103720564
H   H33       1.0  0.52480  0.25570  0.43100  1.0000 0.1103720564
H   H34       1.0  0.47520  0.75570  0.06900  1.0000 0.1103720564
H   H35       1.0  0.47520  0.74430  0.56900  1.0000 0.1103720564
H   H36       1.0  0.52480  0.24430  0.93100  1.0000 0.1103720564
H   H37       1.0  0.65730  0.17570  0.35120  1.0000 0.104678627
H   H38       1.0  0.34270  0.67570  0.14880  1.0000 0.104678627
H   H39       1.0  0.34270  0.82430  0.64880  1.0000 0.104678627
H   H40       1.0  0.65730  0.32430  0.85120  1.0000 0.104678627
H   H41       1.0  0.35610  0.18310  0.14410  1.0000 0.1206795531
H   H42       1.0  0.64390  0.68310  0.35590  1.0000 0.1206795531
H   H43       1.0  0.64390  0.81690  0.85590  1.0000 0.1206795531
H   H44       1.0  0.35610  0.31690  0.64410  1.0000 0.1206795531
H   H45       1.0  0.22640  0.26420  0.22370  1.0000 0.1103720564
H   H46       1.0  0.77360  0.76420  0.27630  1.0000 0.1103720564
H   H47       1.0  0.77360  0.73580  0.77630  1.0000 0.1103720564
H   H48       1.0  0.22640  0.23580  0.72370  1.0000 0.1103720564
H   H49       1.0  0.85940  0.99410  0.20690  1.0000 0.1103720564
H   H50       1.0  0.14060  0.49410  0.29310  1.0000 0.1103720564
H   H51       1.0  0.14060  0.00590  0.79310  1.0000 0.1103720564
H   H52       1.0  0.85940  0.50590  0.70690  1.0000 0.1103720564
H   H53       1.0  0.73790  0.07480  0.29040  1.0000 0.1206795531
H   H54       1.0  0.26210  0.57480  0.20960  1.0000 0.1206795531
H   H55       1.0  0.26210  0.92520  0.70960  1.0000 0.1206795531
H   H56       1.0  0.73790  0.42520  0.79040  1.0000 0.1206795531
H   H57       1.0  0.50230  0.14000  0.06620  1.0000 0.1402623317
H   H58       1.0  0.49770  0.64000  0.43380  1.0000 0.1402623317
H   H59       1.0  0.49770  0.86000  0.93380  1.0000 0.1402623317
H   H60       1.0  0.50230  0.36000  0.56620  1.0000 0.1402623317
H   H61       1.0  0.62730  0.05580  0.99000  1.0000 0.1103720564
H   H62       1.0  0.37270  0.55580  0.51000  1.0000 0.1103720564
H   H63       1.0  0.37270  0.94420  0.01000  1.0000 0.1103720564
H   H64       1.0  0.62730  0.44420  0.49000  1.0000 0.1103720564
C   C1        1.0  0.18620  0.51733  0.63401  1.0000 0.5470222643
C   C2        1.0  0.81380  0.01733  0.86599  1.0000 0.5470222643
C   C3        1.0  0.81380  0.48267  0.36599  1.0000 0.5470222643
C   C4        1.0  0.18620  0.98267  0.13401  1.0000 0.5470222643
C   C5        1.0  0.25310  0.56705  0.70943  1.0000 -0.0176379355
C   C6        1.0  0.74690  0.06705  0.79057  1.0000 -0.0176379355
C   C7        1.0  0.74690  0.43295  0.29057  1.0000 -0.0176379355
C   C8        1.0  0.25310  0.93295  0.20943  1.0000 -0.0176379355
C   C9        1.0  0.17680  0.62247  0.74995  1.0000 -0.159950113
C   C10       1.0  0.82320  0.12247  0.75005  1.0000 -0.159950113
C   C11       1.0  0.82320  0.37753  0.25005  1.0000 -0.159950113
C   C12       1.0  0.17680  0.87753  0.24995  1.0000 -0.159950113
C   C13       1.0  0.23750  0.66626  0.82190  1.0000 0.0591249055
C   C14       1.0  0.76250  0.16626  0.67810  1.0000 0.0591249055
C   C15       1.0  0.76250  0.33374  0.17810  1.0000 0.0591249055
C   C16       1.0  0.23750  0.83374  0.32190  1.0000 0.0591249055
C   C17       1.0  0.37850  0.65450  0.85110  1.0000 -0.1386020334
C   C18       1.0  0.62150  0.15450  0.64890  1.0000 -0.1386020334
C   C19       1.0  0.62150  0.34550  0.14890  1.0000 -0.1386020334
C   C20       1.0  0.37850  0.84550  0.35110  1.0000 -0.1386020334
C   C21       1.0  0.45580  0.60040  0.80930  1.0000 -0.0850607121
C   C22       1.0  0.54420  0.10040  0.69070  1.0000 -0.0850607121
C   C23       1.0  0.54420  0.39960  0.19070  1.0000 -0.0850607121
C   C24       1.0  0.45580  0.89960  0.30930  1.0000 -0.0850607121
C   C25       1.0  0.39360  0.55590  0.73920  1.0000 -0.1064157574
C   C26       1.0  0.60640  0.05590  0.76080  1.0000 -0.1064157574
C   C27       1.0  0.60640  0.44410  0.26080  1.0000 -0.1064157574
C   C28       1.0  0.39360  0.94410  0.23920  1.0000 -0.1064157574
C   C29       1.0  0.98670  0.82541  0.86430  1.0000 0.086174812
C   C30       1.0  0.01330  0.32541  0.63570  1.0000 0.086174812
C   C31       1.0  0.01330  0.17459  0.13570  1.0000 0.086174812
C   C32       1.0  0.98670  0.67459  0.36430  1.0000 0.086174812
C   C33       1.0  0.05950  0.77233  0.81960  1.0000 -0.200599519
C   C34       1.0  0.94050  0.27233  0.68040  1.0000 -0.200599519
C   C35       1.0  0.94050  0.22767  0.18040  1.0000 -0.200599519
C   C36       1.0  0.05950  0.72767  0.31960  1.0000 -0.200599519
C   C37       1.0  0.15650  0.72364  0.86700  1.0000 0.1206795531
C   C38       1.0  0.84350  0.22364  0.63300  1.0000 0.1206795531
C   C39       1.0  0.84350  0.27636  0.13300  1.0000 0.1206795531
C   C40       1.0  0.15650  0.77636  0.36700  1.0000 0.1206795531
C   C41       1.0  0.17420  0.73270  0.95830  1.0000 -0.200599519
C   C42       1.0  0.82580  0.23270  0.54170  1.0000 -0.200599519
C   C43       1.0  0.82580  0.26730  0.04170  1.0000 -0.200599519
C   C44       1.0  0.17420  0.76730  0.45830  1.0000 -0.200599519
C   C45       1.0  0.09800  0.78690  0.99770  1.0000 0.0787496826
C   C46       1.0  0.90200  0.28690  0.50230  1.0000 0.0787496826
C   C47       1.0  0.90200  0.21310  0.00230  1.0000 0.0787496826
C   C48       1.0  0.09800  0.71310  0.49770  1.0000 0.0787496826
C   C49       1.0  0.27090  0.31540  0.38847  1.0000 0.54358704
C   C50       1.0  0.72910  0.81540  0.11153  1.0000 0.54358704
C   C51       1.0  0.72910  0.68460  0.61153  1.0000 0.54358704
C   C52       1.0  0.27090  0.18460  0.88847  1.0000 0.54358704
C   C53       1.0  0.35920  0.26620  0.33650  1.0000 -0.0176379355
C   C54       1.0  0.64080  0.76620  0.16350  1.0000 -0.0176379355
C   C55       1.0  0.64080  0.73380  0.66350  1.0000 -0.0176379355
C   C56       1.0  0.35920  0.23380  0.83650  1.0000 -0.0176379355
C   C57       1.0  0.48980  0.24040  0.37280  1.0000 -0.1064157574
C   C58       1.0  0.51020  0.74040  0.12720  1.0000 -0.1064157574
C   C59       1.0  0.51020  0.75960  0.62720  1.0000 -0.1064157574
C   C60       1.0  0.48980  0.25960  0.87280  1.0000 -0.1064157574
C   C61       1.0  0.56880  0.19280  0.32510  1.0000 -0.159950113
C   C62       1.0  0.43120  0.69280  0.17490  1.0000 -0.159950113
C   C63       1.0  0.43120  0.80720  0.67490  1.0000 -0.159950113
C   C64       1.0  0.56880  0.30720  0.82510  1.0000 -0.159950113
C   C65       1.0  0.52070  0.16963  0.23929  1.0000 0.0680723907
C   C66       1.0  0.47930  0.66963  0.26071  1.0000 0.0680723907
C   C67       1.0  0.47930  0.83037  0.76071  1.0000 0.0680723907
C   C68       1.0  0.52070  0.33037  0.73929  1.0000 0.0680723907
C   C69       1.0  0.39100  0.19740  0.20260  1.0000 -0.125527626
C   C70       1.0  0.60900  0.69740  0.29740  1.0000 -0.125527626
C   C71       1.0  0.60900  0.80260  0.79740  1.0000 -0.125527626
C   C72       1.0  0.39100  0.30260  0.70260  1.0000 -0.125527626
C   C73       1.0  0.31330  0.24520  0.25030  1.0000 -0.1064157574
C   C74       1.0  0.68670  0.74520  0.24970  1.0000 -0.1064157574
C   C75       1.0  0.68670  0.75480  0.74970  1.0000 -0.1064157574
C   C76       1.0  0.31330  0.25480  0.75030  1.0000 -0.1064157574
C   C77       1.0  0.78460  0.02370  0.17800  1.0000 0.0787496826
C   C78       1.0  0.21540  0.52370  0.32200  1.0000 0.0787496826
C   C79       1.0  0.21540  0.97630  0.82200  1.0000 0.0787496826
C   C80       1.0  0.78460  0.47630  0.67800  1.0000 0.0787496826
C   C81       1.0  0.71310  0.07218  0.22850  1.0000 -0.200599519
C   C82       1.0  0.28690  0.57218  0.27150  1.0000 -0.200599519
C   C83       1.0  0.28690  0.92782  0.77150  1.0000 -0.200599519
C   C84       1.0  0.71310  0.42782  0.72850  1.0000 -0.200599519
C   C85       1.0  0.60340  0.11760  0.18815  1.0000 0.1206795531
C   C86       1.0  0.39660  0.61760  0.31185  1.0000 0.1206795531
C   C87       1.0  0.39660  0.88240  0.81185  1.0000 0.1206795531
C   C88       1.0  0.60340  0.38240  0.68815  1.0000 0.1206795531
C   C89       1.0  0.57480  0.11000  0.09714  1.0000 -0.1786414982
C   C90       1.0  0.42520  0.61000  0.40286  1.0000 -0.1786414982
C   C91       1.0  0.42520  0.89000  0.90286  1.0000 -0.1786414982
C   C92       1.0  0.57480  0.39000  0.59714  1.0000 -0.1786414982
C   C93       1.0  0.65020  0.05990  0.05199  1.0000 0.0680723907
C   C94       1.0  0.34980  0.55990  0.44801  1.0000 0.0680723907
C   C95       1.0  0.34980  0.94010  0.94801  1.0000 0.0680723907
C   C96       1.0  0.65020  0.44010  0.55199  1.0000 0.0680723907
N   N1        1.0  0.00340  0.83394  0.95165  1.0000 -0.239367053
N   N2        1.0  0.99660  0.33394  0.54835  1.0000 -0.239367053
N   N3        1.0  0.99660  0.16606  0.04835  1.0000 -0.239367053
N   N4        1.0  0.00340  0.66606  0.45165  1.0000 -0.239367053
N   N5        1.0  0.75550  0.01573  0.09074  1.0000 -0.239367053
N   N6        1.0  0.24450  0.51573  0.40926  1.0000 -0.239367053
N   N7        1.0  0.24450  0.98427  0.90926  1.0000 -0.239367053
N   N8        1.0  0.75550  0.48427  0.59074  1.0000 -0.239367053
O   O1        1.0  0.25540  0.46110  0.61007  1.0000 -0.5310119578
O   O2        1.0  0.74460  0.96110  0.88993  1.0000 -0.5310119578
O   O3        1.0  0.74460  0.53890  0.38993  1.0000 -0.5310119578
O   O4        1.0  0.25540  0.03890  0.11007  1.0000 -0.5310119578
O   O5        1.0  0.31620  0.33224  0.46718  1.0000 -0.561343033
O   O6        1.0  0.68380  0.83224  0.03282  1.0000 -0.561343033
O   O7        1.0  0.68380  0.66776  0.53282  1.0000 -0.561343033
O   O8        1.0  0.31620  0.16776  0.96718  1.0000 -0.561343033
O   O9        1.0  0.15450  0.33848  0.35265  1.0000 -0.5675799363
O   O10       1.0  0.84550  0.83848  0.14735  1.0000 -0.5675799363
O   O11       1.0  0.84550  0.66152  0.64735  1.0000 -0.5675799363
O   O12       1.0  0.15450  0.16152  0.85265  1.0000 -0.5675799363
O   O13       1.0  0.06870  0.53398  0.59884  1.0000 -0.5675799363
O   O14       1.0  0.93130  0.03398  0.90116  1.0000 -0.5675799363
O   O15       1.0  0.93130  0.46602  0.40116  1.0000 -0.5675799363
O   O16       1.0  0.06870  0.96602  0.09884  1.0000 -0.5675799363
