# DDEC6 charges by PACMAN v1.1 (https://github.com/mtap-research/PACMAN-charge/)
data_2015[Cd][nan]3[ASR]11
_chemical_formula_sum              "Cd6 H96 C128 N20 O28"
_cell_length_a       15.081
_cell_length_b       14.538
_cell_length_c       17.935
_cell_angle_alpha    90
_cell_angle_beta     95.951
_cell_angle_gamma    90

_symmetry_space_group_name_H-M    "P 1"
_symmetry_Int_Tables_number       1

loop_
  _symmetry_equiv_pos_as_xyz
  'x, y, z'

loop_
  _atom_site_type_symbol
  _atom_site_label
  _atom_site_symmetry_multiplicity
  _atom_site_fract_x
  _atom_site_fract_y
  _atom_site_fract_z
  _atom_site_occupancy
  _atom_site_charge
Cd  Cd1       1.0  0.62162  0.18248  0.55369  1.0000 0.8737477306
Cd  Cd2       1.0  0.37838  0.68248  0.44631  1.0000 0.8737477306
Cd  Cd3       1.0  0.53418  0.89595  0.52002  1.0000 0.9123782758
Cd  Cd4       1.0  0.46582  0.39595  0.47998  1.0000 0.9123782758
Cd  Cd5       1.0  0.90657  0.86715  0.16500  1.0000 0.9587443713
Cd  Cd6       1.0  0.09343  0.36715  0.83500  1.0000 0.9587443713
H   H1        1.0  0.42060  0.02030  0.45320  1.0000 0.0991365013
H   H2        1.0  0.57940  0.52030  0.54680  1.0000 0.0991365013
H   H3        1.0  0.71330  0.88700  0.64240  1.0000 0.0991365013
H   H4        1.0  0.28670  0.38700  0.35760  1.0000 0.0991365013
H   H5        1.0  0.58760  0.15490  0.37440  1.0000 0.1112899352
H   H6        1.0  0.41240  0.65490  0.62560  1.0000 0.1112899352
H   H7        1.0  0.23780  0.20990  0.37640  1.0000 0.1203132759
H   H8        1.0  0.76220  0.70990  0.62360  1.0000 0.1203132759
H   H9        1.0  0.64890  0.18410  0.73590  1.0000 0.1203132759
H   H10       1.0  0.35110  0.68410  0.26410  1.0000 0.1203132759
H   H11       1.0  0.40850  0.17260  0.61920  1.0000 0.1203132759
H   H12       1.0  0.59150  0.67260  0.38080  1.0000 0.1203132759
H   H13       1.0  0.79510  0.84790  0.55250  1.0000 0.1203132759
H   H14       1.0  0.20490  0.34790  0.44750  1.0000 0.1203132759
H   H15       1.0  0.83430  0.94790  0.54640  1.0000 0.0991365013
H   H16       1.0  0.16570  0.44790  0.45360  1.0000 0.0991365013
H   H17       1.0  0.49770  0.18460  0.12560  1.0000 0.1112899352
H   H18       1.0  0.50230  0.68460  0.87440  1.0000 0.1112899352
H   H19       1.0  0.69050  0.93290  0.17620  1.0000 0.1403034572
H   H20       1.0  0.30950  0.43290  0.82380  1.0000 0.1403034572
H   H21       1.0  0.47890  0.90300  0.33230  1.0000 0.1112899352
H   H22       1.0  0.52110  0.40300  0.66770  1.0000 0.1112899352
H   H23       1.0  0.72540  0.98000  0.29920  1.0000 0.1403034572
H   H24       1.0  0.27460  0.48000  0.70080  1.0000 0.1403034572
H   H25       1.0  0.55600  0.93790  0.69700  1.0000 0.1203132759
H   H26       1.0  0.44400  0.43790  0.30300  1.0000 0.1203132759
H   H27       1.0  0.64990  0.94040  0.05010  1.0000 0.1203132759
H   H28       1.0  0.35010  0.44040  0.94990  1.0000 0.1203132759
H   H29       1.0  0.43980  0.24090  0.88010  1.0000 0.1203132759
H   H30       1.0  0.56020  0.74090  0.11990  1.0000 0.1203132759
H   H31       1.0  0.39450  0.96590  0.08410  1.0000 0.1203132759
H   H32       1.0  0.60550  0.46590  0.91590  1.0000 0.1203132759
H   H33       1.0  0.32550  0.92660  0.58170  1.0000 0.1203132759
H   H34       1.0  0.67450  0.42660  0.41830  1.0000 0.1203132759
H   H35       1.0  0.43050  0.96260  0.20990  1.0000 0.1287692804
H   H36       1.0  0.56950  0.46260  0.79010  1.0000 0.1287692804
H   H37       1.0  0.29310  0.94000  0.71220  1.0000 0.1287692804
H   H38       1.0  0.70690  0.44000  0.28780  1.0000 0.1287692804
H   H39       1.0  0.93170  0.99900  0.67680  1.0000 0.1112899352
H   H40       1.0  0.06830  0.49900  0.32320  1.0000 0.1112899352
H   H41       1.0  0.93850  0.92090  0.73820  1.0000 0.1203132759
H   H42       1.0  0.06150  0.42090  0.26180  1.0000 0.1203132759
H   H43       1.0  0.92150  0.12180  0.32650  1.0000 0.0991365013
H   H44       1.0  0.07850  0.62180  0.67350  1.0000 0.0991365013
H   H45       1.0  0.54010  0.20490  0.24970  1.0000 0.1203132759
H   H46       1.0  0.45990  0.70490  0.75030  1.0000 0.1203132759
H   H47       1.0  0.71160  0.96260  0.43210  1.0000 0.1203132759
H   H48       1.0  0.28840  0.46260  0.56790  1.0000 0.1203132759
H   H49       1.0  0.98290  0.10100  0.98950  1.0000 0.1403034572
H   H50       1.0  0.01710  0.60100  0.01050  1.0000 0.1403034572
H   H51       1.0  0.17940  0.94220  0.36190  1.0000 0.1287692804
H   H52       1.0  0.82060  0.44220  0.63810  1.0000 0.1287692804
H   H53       1.0  0.80450  0.26330  0.47620  1.0000 0.1287692804
H   H54       1.0  0.19550  0.76330  0.52380  1.0000 0.1287692804
H   H55       1.0  0.89570  0.11660  0.77120  1.0000 0.1203132759
H   H56       1.0  0.10430  0.61660  0.22880  1.0000 0.1203132759
H   H57       1.0  0.39060  0.18510  0.75660  1.0000 0.1287692804
H   H58       1.0  0.60940  0.68510  0.24340  1.0000 0.1287692804
H   H59       1.0  0.78820  0.93260  0.90450  1.0000 0.1203132759
H   H60       1.0  0.21180  0.43260  0.09550  1.0000 0.1203132759
H   H61       1.0  0.47270  0.23630  0.00810  1.0000 0.1112899352
H   H62       1.0  0.52730  0.73630  0.99190  1.0000 0.1112899352
H   H63       1.0  0.75280  0.17200  0.08940  1.0000 0.1287692804
H   H64       1.0  0.24720  0.67200  0.91060  1.0000 0.1287692804
H   H65       1.0  0.57550  0.88230  0.81830  1.0000 0.1287692804
H   H66       1.0  0.42450  0.38230  0.18170  1.0000 0.1287692804
H   H67       1.0  0.33820  0.99820  0.83760  1.0000 0.1287692804
H   H68       1.0  0.66180  0.49820  0.16240  1.0000 0.1287692804
H   H69       1.0  0.95900  0.87480  0.60590  1.0000 0.0991365013
H   H70       1.0  0.04100  0.37480  0.39410  1.0000 0.0991365013
H   H71       1.0  0.90080  0.80900  0.65170  1.0000 0.1112899352
H   H72       1.0  0.09920  0.30900  0.34830  1.0000 0.1112899352
H   H73       1.0  0.79190  0.19260  0.21540  1.0000 0.1403034572
H   H74       1.0  0.20810  0.69260  0.78460  1.0000 0.1403034572
H   H75       1.0  0.37220  0.00630  0.96640  1.0000 0.1203132759
H   H76       1.0  0.62780  0.50630  0.03360  1.0000 0.1203132759
H   H77       1.0  0.83730  0.06690  0.40600  1.0000 0.0991365013
H   H78       1.0  0.16270  0.56690  0.59400  1.0000 0.0991365013
H   H79       1.0  0.88550  0.97060  0.41070  1.0000 0.1112899352
H   H80       1.0  0.11450  0.47060  0.58930  1.0000 0.1112899352
H   H81       1.0  0.60730  0.90380  0.94500  1.0000 0.1203132759
H   H82       1.0  0.39270  0.40380  0.05500  1.0000 0.1203132759
H   H83       1.0  0.82240  0.26110  0.33740  1.0000 0.1287692804
H   H84       1.0  0.17760  0.76110  0.66260  1.0000 0.1287692804
H   H85       1.0  0.66650  0.11000  0.85490  1.0000 0.1287692804
H   H86       1.0  0.33350  0.61000  0.14510  1.0000 0.1287692804
H   H87       1.0  0.05540  0.96560  0.45030  1.0000 0.1112899352
H   H88       1.0  0.94460  0.46560  0.54970  1.0000 0.1112899352
H   H89       1.0  0.10180  0.05900  0.47830  1.0000 0.1112899352
H   H90       1.0  0.89820  0.55900  0.52170  1.0000 0.1112899352
H   H91       1.0  0.95250  0.13470  0.48450  1.0000 0.1112899352
H   H92       1.0  0.04750  0.63470  0.51550  1.0000 0.1112899352
H   H93       1.0  0.94010  0.03790  0.52330  1.0000 0.1112899352
H   H94       1.0  0.05990  0.53790  0.47670  1.0000 0.1112899352
H   H95       1.0  0.70310  0.11470  0.98490  1.0000 0.1203132759
H   H96       1.0  0.29690  0.61470  0.01510  1.0000 0.1203132759
C   C1        1.0  0.30650  0.96610  0.40390  1.0000 -0.0202358747
C   C2        1.0  0.69350  0.46610  0.59610  1.0000 -0.0202358747
C   C3        1.0  0.36530  0.03610  0.42870  1.0000 -0.1398647719
C   C4        1.0  0.63470  0.53610  0.57130  1.0000 -0.1398647719
C   C5        1.0  0.75640  0.93510  0.63330  1.0000 -0.0435569938
C   C6        1.0  0.24360  0.43510  0.36670  1.0000 -0.0435569938
C   C7        1.0  0.64410  0.18090  0.38240  1.0000 0.1112899352
C   C8        1.0  0.35590  0.68090  0.61760  1.0000 0.1112899352
C   C9        1.0  0.19640  0.07960  0.36830  1.0000 -0.0093081342
C   C10       1.0  0.80360  0.57960  0.63170  1.0000 -0.0093081342
C   C11       1.0  0.40750  0.20050  0.44690  1.0000 0.5507380608
C   C12       1.0  0.59250  0.70050  0.55310  1.0000 0.5507380608
C   C13       1.0  0.25470  0.14910  0.38550  1.0000 -0.1110401759
C   C14       1.0  0.74530  0.64910  0.61450  1.0000 -0.1110401759
C   C15       1.0  0.58730  0.18250  0.72480  1.0000 0.1112899352
C   C16       1.0  0.41270  0.68250  0.27520  1.0000 0.1112899352
C   C17       1.0  0.45340  0.17700  0.65870  1.0000 -0.0202358747
C   C18       1.0  0.54660  0.67700  0.34130  1.0000 -0.0202358747
C   C19       1.0  0.33120  0.86630  0.41790  1.0000 0.538809413
C   C20       1.0  0.66880  0.36630  0.58210  1.0000 0.538809413
C   C21       1.0  0.10250  0.10080  0.33470  1.0000 0.4119141195
C   C22       1.0  0.89750  0.60080  0.66530  1.0000 0.4119141195
C   C23       1.0  0.82040  0.90010  0.58100  1.0000 -0.2108726111
C   C24       1.0  0.17960  0.40010  0.41900  1.0000 -0.2108726111
C   C25       1.0  0.59720  0.18830  0.00820  1.0000 0.0619342432
C   C26       1.0  0.40280  0.68830  0.99180  1.0000 0.0619342432
C   C27       1.0  0.55790  0.18990  0.14230  1.0000 -0.1398647719
C   C28       1.0  0.44210  0.68990  0.85770  1.0000 -0.1398647719
C   C29       1.0  0.66870  0.19960  0.24630  1.0000 0.1403034572
C   C30       1.0  0.33130  0.69960  0.75370  1.0000 0.1403034572
C   C31       1.0  0.63080  0.93910  0.15800  1.0000 -0.1691583153
C   C32       1.0  0.36920  0.43910  0.84200  1.0000 -0.1691583153
C   C33       1.0  0.53860  0.91980  0.34070  1.0000 0.0991365013
C   C34       1.0  0.46140  0.41980  0.65930  1.0000 0.0991365013
C   C35       1.0  0.94210  0.12860  0.87970  1.0000 -0.0202358747
C   C36       1.0  0.05790  0.62860  0.12030  1.0000 -0.0202358747
C   C37       1.0  0.67470  0.96260  0.32120  1.0000 -0.1299458021
C   C38       1.0  0.32530  0.46260  0.67880  1.0000 -0.1299458021
C   C39       1.0  0.49460  0.93810  0.68430  1.0000 0.1112899352
C   C40       1.0  0.50540  0.43810  0.31570  1.0000 0.1112899352
C   C41       1.0  0.51780  0.95040  0.05220  1.0000 0.0619342432
C   C42       1.0  0.48220  0.45040  0.94780  1.0000 0.0619342432
C   C43       1.0  0.60580  0.94290  0.08250  1.0000 -0.1110401759
C   C44       1.0  0.39420  0.44290  0.91750  1.0000 -0.1110401759
C   C45       1.0  0.49380  0.21620  0.90070  1.0000 -0.1691583153
C   C46       1.0  0.50620  0.71620  0.09930  1.0000 -0.1691583153
C   C47       1.0  0.83360  0.01900  0.82790  1.0000 -0.0505825281
C   C48       1.0  0.16640  0.51900  0.17210  1.0000 -0.0505825281
C   C49       1.0  0.45390  0.95860  0.10280  1.0000 -0.1299458021
C   C50       1.0  0.54610  0.45860  0.89720  1.0000 -0.1299458021
C   C51       1.0  0.36840  0.93190  0.62260  1.0000 -0.0202358747
C   C52       1.0  0.63160  0.43190  0.37740  1.0000 -0.0202358747
C   C53       1.0  0.47500  0.95640  0.17810  1.0000 -0.2006661203
C   C54       1.0  0.52500  0.45640  0.82190  1.0000 -0.2006661203
C   C55       1.0  0.70730  0.02180  0.60230  1.0000 0.5507380608
C   C56       1.0  0.29270  0.52180  0.39770  1.0000 0.5507380608
C   C57       1.0  0.34870  0.93860  0.69410  1.0000 -0.1398647719
C   C58       1.0  0.65130  0.43860  0.30590  1.0000 -0.1398647719
C   C59       1.0  0.88860  0.96100  0.03660  1.0000 0.5302598718
C   C60       1.0  0.11140  0.46100  0.96340  1.0000 0.5302598718
C   C61       1.0  0.77550  0.98610  0.76320  1.0000 0.3946385626
C   C62       1.0  0.22450  0.48610  0.23680  1.0000 0.3946385626
C   C63       1.0  0.62140  0.18880  0.09060  1.0000 0.0717670266
C   C64       1.0  0.37860  0.68880  0.90940  1.0000 0.0717670266
C   C65       1.0  0.90540  0.94200  0.69210  1.0000 -0.1006831434
C   C66       1.0  0.09460  0.44200  0.30790  1.0000 -0.1006831434
C   C67       1.0  0.94130  0.06070  0.34440  1.0000 -0.0312665515
C   C68       1.0  0.05870  0.56070  0.65560  1.0000 -0.0312665515
C   C69       1.0  0.58400  0.19890  0.21730  1.0000 -0.1895295586
C   C70       1.0  0.41600  0.69890  0.78270  1.0000 -0.1895295586
C   C71       1.0  0.93010  0.99310  0.27830  1.0000 0.538809413
C   C72       1.0  0.06990  0.49310  0.72170  1.0000 0.538809413
C   C73       1.0  0.66570  0.95240  0.39430  1.0000 -0.0312665515
C   C74       1.0  0.33430  0.45240  0.60570  1.0000 -0.0312665515
C   C75       1.0  0.94290  0.08190  0.94950  1.0000 -0.08673211
C   C76       1.0  0.05710  0.58190  0.05050  1.0000 -0.08673211
C   C77       1.0  0.22060  0.98830  0.37570  1.0000 -0.1299458021
C   C78       1.0  0.77940  0.48830  0.62430  1.0000 -0.1299458021
C   C79       1.0  0.76460  0.23990  0.43790  1.0000 -0.0505825281
C   C80       1.0  0.23540  0.73990  0.56210  1.0000 -0.0505825281
C   C81       1.0  0.89150  0.09240  0.81870  1.0000 -0.1398647719
C   C82       1.0  0.10850  0.59240  0.18130  1.0000 -0.1398647719
C   C83       1.0  0.44440  0.18210  0.73560  1.0000 -0.1398647719
C   C84       1.0  0.55560  0.68210  0.26440  1.0000 -0.1398647719
C   C85       1.0  0.56420  0.94470  0.20820  1.0000 0.17452606
C   C86       1.0  0.43580  0.44470  0.79180  1.0000 0.17452606
C   C87       1.0  0.45210  0.94810  0.81370  1.0000 0.1608790401
C   C88       1.0  0.54790  0.44810  0.18630  1.0000 0.1608790401
C   C89       1.0  0.49290  0.95230  0.96900  1.0000 0.0619342432
C   C90       1.0  0.50710  0.45230  0.03100  1.0000 0.0619342432
C   C91       1.0  0.55080  0.18020  0.85520  1.0000 0.1537999753
C   C92       1.0  0.44920  0.68020  0.14480  1.0000 0.1537999753
C   C93       1.0  0.82910  0.97920  0.89820  1.0000 -0.1299458021
C   C94       1.0  0.17090  0.47920  0.10180  1.0000 -0.1299458021
C   C95       1.0  0.51470  0.21660  0.97720  1.0000 -0.1299458021
C   C96       1.0  0.48530  0.71660  0.02280  1.0000 -0.1299458021
C   C97       1.0  0.70860  0.18260  0.12080  1.0000 -0.1191185955
C   C98       1.0  0.29140  0.68260  0.87920  1.0000 -0.1191185955
C   C99       1.0  0.34500  0.12670  0.41860  1.0000 -0.0202358747
C   C100      1.0  0.65500  0.62670  0.58140  1.0000 -0.0202358747
C   C101      1.0  0.53520  0.91100  0.84660  1.0000 -0.1606473234
C   C102      1.0  0.46480  0.41100  0.15340  1.0000 -0.1606473234
C   C103      1.0  0.39400  0.97870  0.85870  1.0000 -0.1800337937
C   C104      1.0  0.60600  0.47870  0.14130  1.0000 -0.1800337937
C   C105      1.0  0.90600  0.87070  0.63200  1.0000 -0.1691583153
C   C106      1.0  0.09400  0.37070  0.36800  1.0000 -0.1691583153
C   C107      1.0  0.73190  0.19170  0.19710  1.0000 -0.1800337937
C   C108      1.0  0.26810  0.69170  0.80290  1.0000 -0.1800337937
C   C109      1.0  0.41390  0.98260  0.93680  1.0000 -0.1398647719
C   C110      1.0  0.58610  0.48260  0.06320  1.0000 -0.1398647719
C   C111      1.0  0.88740  0.01060  0.95970  1.0000 -0.0007501322
C   C112      1.0  0.11260  0.51060  0.04030  1.0000 -0.0007501322
C   C113      1.0  0.89480  0.03650  0.40880  1.0000 -0.2006661203
C   C114      1.0  0.10520  0.53650  0.59120  1.0000 -0.2006661203
C   C115      1.0  0.55110  0.92070  0.92300  1.0000 -0.1299458021
C   C116      1.0  0.44890  0.42070  0.07700  1.0000 -0.1299458021
C   C117      1.0  0.99870  0.20850  0.86860  1.0000 0.5238001588
C   C118      1.0  0.00130  0.70850  0.13140  1.0000 0.5238001588
C   C119      1.0  0.77310  0.24130  0.36020  1.0000 -0.1299458021
C   C120      1.0  0.22690  0.74130  0.63980  1.0000 -0.1299458021
C   C121      1.0  0.62920  0.13940  0.88550  1.0000 -0.1606473234
C   C122      1.0  0.37080  0.63940  0.11450  1.0000 -0.1606473234
C   C123      1.0  0.05060  0.03210  0.44910  1.0000 -0.1110401759
C   C124      1.0  0.94940  0.53210  0.55090  1.0000 -0.1110401759
C   C125      1.0  0.95400  0.06850  0.47790  1.0000 -0.1895295586
C   C126      1.0  0.04600  0.56850  0.52210  1.0000 -0.1895295586
C   C127      1.0  0.65140  0.14310  0.96350  1.0000 -0.1191185955
C   C128      1.0  0.34860  0.64310  0.03650  1.0000 -0.1191185955
N   N1        1.0  0.54560  0.18000  0.65500  1.0000 -0.2979483064
N   N2        1.0  0.45440  0.68000  0.34500  1.0000 -0.2979483064
N   N3        1.0  0.68240  0.19550  0.44530  1.0000 -0.2648187336
N   N4        1.0  0.31760  0.69550  0.55470  1.0000 -0.2652872857
N   N5        1.0  0.58200  0.92570  0.40720  1.0000 -0.2911256459
N   N6        1.0  0.41800  0.42570  0.59280  1.0000 -0.2911256459
N   N7        1.0  0.45590  0.93380  0.61650  1.0000 -0.2911256459
N   N8        1.0  0.54410  0.43380  0.38350  1.0000 -0.2911256459
N   N9        1.0  0.52960  0.18220  0.77630  1.0000 0.0009423464
N   N10       1.0  0.47040  0.68220  0.22370  1.0000 0.0009423464
N   N11       1.0  0.58950  0.94070  0.28530  1.0000 -0.0007501322
N   N12       1.0  0.41050  0.44070  0.71470  1.0000 -0.0007501322
N   N13       1.0  0.81350  0.95500  0.70230  1.0000 -0.1110401759
N   N14       1.0  0.18650  0.45500  0.29770  1.0000 -0.1110401759
N   N15       1.0  0.43350  0.94290  0.73430  1.0000 -0.0007501322
N   N16       1.0  0.56650  0.44290  0.26570  1.0000 -0.0007501322
N   N17       1.0  0.69350  0.20720  0.32440  1.0000 -0.0093081342
N   N18       1.0  0.30650  0.70720  0.67560  1.0000 -0.0093081342
N   N19       1.0  0.03960  0.06630  0.37570  1.0000 -0.1191185955
N   N20       1.0  0.96040  0.56630  0.62430  1.0000 -0.1191185955
O   O1        1.0  0.48120  0.17690  0.47490  1.0000 -0.5639092233
O   O2        1.0  0.51880  0.67690  0.52510  1.0000 -0.5639092233
O   O3        1.0  0.63230  0.01080  0.56220  1.0000 -0.5994971301
O   O4        1.0  0.36770  0.51080  0.43780  1.0000 -0.5994971301
O   O5        1.0  0.37870  0.28290  0.43900  1.0000 -0.5639092233
O   O6        1.0  0.62130  0.78290  0.56100  1.0000 -0.5639092233
O   O7        1.0  0.27730  0.80560  0.39340  1.0000 -0.5129524526
O   O8        1.0  0.72270  0.30560  0.60660  1.0000 -0.5129524526
O   O9        1.0  0.40700  0.84800  0.45350  1.0000 -0.5994971301
O   O10       1.0  0.59300  0.34800  0.54650  1.0000 -0.5994971301
O   O11       1.0  0.74000  0.09800  0.61610  1.0000 -0.487665783
O   O12       1.0  0.26000  0.59800  0.38390  1.0000 -0.487665783
O   O13       1.0  0.08660  0.14310  0.27430  1.0000 -0.487665783
O   O14       1.0  0.91340  0.64310  0.72570  1.0000 -0.487665783
O   O15       1.0  0.82450  0.91430  0.04780  1.0000 -0.5459108707
O   O16       1.0  0.17550  0.41430  0.95220  1.0000 -0.5459108707
O   O17       1.0  0.95880  0.97530  0.08010  1.0000 -0.5214996692
O   O18       1.0  0.04120  0.47530  0.91990  1.0000 -0.5214996692
O   O19       1.0  0.69310  0.98650  0.76300  1.0000 -0.5214996692
O   O20       1.0  0.30690  0.48650  0.23700  1.0000 -0.5214996692
O   O21       1.0  0.85730  0.99170  0.24150  1.0000 -0.5432777461
O   O22       1.0  0.14270  0.49170  0.75850  1.0000 -0.5432777461
O   O23       1.0  0.99090  0.93680  0.26800  1.0000 -0.5129524526
O   O24       1.0  0.00910  0.43680  0.73200  1.0000 -0.5129524526
O   O25       1.0  0.99230  0.25440  0.81040  1.0000 -0.487665783
O   O26       1.0  0.00770  0.75440  0.18960  1.0000 -0.487665783
O   O27       1.0  0.05770  0.23750  0.91850  1.0000 -0.4785467442
O   O28       1.0  0.94230  0.73750  0.08150  1.0000 -0.4785467442
