# DDEC6 charges by PACMAN v1.1 (https://github.com/mtap-research/PACMAN-charge/)
data_2015[HoAg][nan]3[ASR]1
_chemical_formula_sum              "Ho4 Ag4 H32 C56 N8 O32"
_cell_length_a       12.0481
_cell_length_b       12.0481
_cell_length_c       16.683
_cell_angle_alpha    83.9447
_cell_angle_beta     96.0553
_cell_angle_gamma    133.773

_symmetry_space_group_name_H-M    "P 1"
_symmetry_Int_Tables_number       1

loop_
  _symmetry_equiv_pos_as_xyz
  'x, y, z'

loop_
  _atom_site_type_symbol
  _atom_site_label
  _atom_site_symmetry_multiplicity
  _atom_site_fract_x
  _atom_site_fract_y
  _atom_site_fract_z
  _atom_site_occupancy
  _atom_site_charge
Ho  Ho1       1.0  0.70599  0.69657  0.43410  1.0000 2.0522678634
Ho  Ho2       1.0  0.69657  0.70599  0.06590  1.0000 2.0522678634
Ho  Ho3       1.0  0.29401  0.30343  0.56590  1.0000 2.0522678634
Ho  Ho4       1.0  0.30343  0.29401  0.93410  1.0000 2.0522678634
Ag  Ag1       1.0  0.96556  0.28240  0.41982  1.0000 0.3434763095
Ag  Ag2       1.0  0.28240  0.96556  0.08018  1.0000 0.3434763095
Ag  Ag3       1.0  0.03444  0.71760  0.58018  1.0000 0.3434763095
Ag  Ag4       1.0  0.71760  0.03444  0.91982  1.0000 0.3434763095
H   H1        1.0  0.50160  0.86740  0.38140  1.0000 0.1405176065
H   H2        1.0  0.86740  0.50160  0.11860  1.0000 0.1405176065
H   H3        1.0  0.49840  0.13260  0.61860  1.0000 0.1405176065
H   H4        1.0  0.13260  0.49840  0.88140  1.0000 0.1405176065
H   H5        1.0  0.42470  0.61430  0.72050  1.0000 0.1488235882
H   H6        1.0  0.61430  0.42470  0.77950  1.0000 0.1488235882
H   H7        1.0  0.57530  0.38570  0.27950  1.0000 0.1488235882
H   H8        1.0  0.38570  0.57530  0.22050  1.0000 0.1488235882
H   H9        1.0  0.86960  0.96640  0.66950  1.0000 0.1488235882
H   H10       1.0  0.96640  0.86960  0.83050  1.0000 0.1488235882
H   H11       1.0  0.13040  0.03360  0.33050  1.0000 0.1488235882
H   H12       1.0  0.03360  0.13040  0.16950  1.0000 0.1488235882
H   H13       1.0  0.17240  0.58680  0.54070  1.0000 0.1208729451
H   H14       1.0  0.58680  0.17240  0.95930  1.0000 0.1208729451
H   H15       1.0  0.82760  0.41320  0.45930  1.0000 0.1208729451
H   H16       1.0  0.41320  0.82760  0.04070  1.0000 0.1208729451
H   H17       1.0  0.43750  0.01070  0.36860  1.0000 0.1208729451
H   H18       1.0  0.01070  0.43750  0.13140  1.0000 0.1208729451
H   H19       1.0  0.56250  0.98930  0.63140  1.0000 0.1208729451
H   H20       1.0  0.98930  0.56250  0.86860  1.0000 0.1208729451
H   H21       1.0  0.89270  0.09050  0.77240  1.0000 0.1208729451
H   H22       1.0  0.09050  0.89270  0.72760  1.0000 0.1208729451
H   H23       1.0  0.10730  0.90950  0.22760  1.0000 0.1208729451
H   H24       1.0  0.90950  0.10730  0.27240  1.0000 0.1208729451
H   H25       1.0  0.25270  0.94810  0.44470  1.0000 0.1208729451
H   H26       1.0  0.94810  0.25270  0.05530  1.0000 0.1208729451
H   H27       1.0  0.74730  0.05190  0.55530  1.0000 0.1208729451
H   H28       1.0  0.05190  0.74730  0.94470  1.0000 0.1208729451
H   H29       1.0  0.46390  0.75590  0.81890  1.0000 0.1079118541
H   H30       1.0  0.75590  0.46390  0.68110  1.0000 0.1079118541
H   H31       1.0  0.53610  0.24410  0.18110  1.0000 0.1079118541
H   H32       1.0  0.24410  0.53610  0.31890  1.0000 0.1079118541
C   C1        1.0  0.42360  0.83960  0.41090  1.0000 -0.0561778331
C   C2        1.0  0.83960  0.42360  0.08910  1.0000 -0.0561778331
C   C3        1.0  0.57640  0.16040  0.58910  1.0000 -0.0561778331
C   C4        1.0  0.16040  0.57640  0.91090  1.0000 -0.0561778331
C   C5        1.0  0.52150  0.71150  0.72980  1.0000 -0.1405266197
C   C6        1.0  0.71150  0.52150  0.77020  1.0000 -0.1405266197
C   C7        1.0  0.47850  0.28850  0.27020  1.0000 -0.1405266197
C   C8        1.0  0.28850  0.47850  0.22980  1.0000 -0.1405266197
C   C9        1.0  0.33900  0.70640  0.46490  1.0000 -0.0966134732
C   C10       1.0  0.70640  0.33900  0.03510  1.0000 -0.0966134732
C   C11       1.0  0.66100  0.29360  0.53510  1.0000 -0.0966134732
C   C12       1.0  0.29360  0.66100  0.96490  1.0000 -0.0966134732
C   C13       1.0  0.78530  0.91970  0.70000  1.0000 -0.1561611304
C   C14       1.0  0.91970  0.78530  0.80000  1.0000 -0.1561611304
C   C15       1.0  0.21470  0.08030  0.30000  1.0000 -0.1561611304
C   C16       1.0  0.08030  0.21470  0.20000  1.0000 -0.1561611304
C   C17       1.0  0.96510  0.03470  0.48840  1.0000 0.4891992351
C   C18       1.0  0.03470  0.96510  0.01160  1.0000 0.4891992351
C   C19       1.0  0.03490  0.96530  0.51160  1.0000 0.4891992351
C   C20       1.0  0.96530  0.03490  0.98840  1.0000 0.4891992351
C   C21       1.0  0.22760  0.67360  0.50580  1.0000 0.0231097939
C   C22       1.0  0.67360  0.22760  0.99420  1.0000 0.0231097939
C   C23       1.0  0.77240  0.32640  0.49420  1.0000 0.0231097939
C   C24       1.0  0.32640  0.77240  0.00580  1.0000 0.0231097939
C   C25       1.0  0.38570  0.92510  0.40420  1.0000 -0.1405266197
C   C26       1.0  0.92510  0.38570  0.09580  1.0000 -0.1405266197
C   C27       1.0  0.61430  0.07490  0.59580  1.0000 -0.1405266197
C   C28       1.0  0.07490  0.61430  0.90420  1.0000 -0.1405266197
C   C29       1.0  0.37640  0.61180  0.47650  1.0000 0.6204556963
C   C30       1.0  0.61180  0.37640  0.02350  1.0000 0.6204556963
C   C31       1.0  0.62360  0.38820  0.52350  1.0000 0.6204556963
C   C32       1.0  0.38820  0.62360  0.97650  1.0000 0.6204556963
C   C33       1.0  0.61980  0.67260  0.62150  1.0000 0.6204556963
C   C34       1.0  0.67260  0.61980  0.87850  1.0000 0.6204556963
C   C35       1.0  0.38020  0.32740  0.37850  1.0000 0.6204556963
C   C36       1.0  0.32740  0.38020  0.12150  1.0000 0.6204556963
C   C37       1.0  0.79710  0.99350  0.76130  1.0000 0.075351446
C   C38       1.0  0.99350  0.79710  0.73870  1.0000 0.075351446
C   C39       1.0  0.20290  0.00650  0.23870  1.0000 0.0744007146
C   C40       1.0  0.00650  0.20290  0.26130  1.0000 0.0744007146
C   C41       1.0  0.27320  0.88600  0.44890  1.0000 0.075351446
C   C42       1.0  0.88600  0.27320  0.05110  1.0000 0.075351446
C   C43       1.0  0.72680  0.11400  0.55110  1.0000 0.075351446
C   C44       1.0  0.11400  0.72680  0.94890  1.0000 0.075351446
C   C45       1.0  0.70990  0.77970  0.24460  1.0000 0.4735631934
C   C46       1.0  0.77970  0.70990  0.25540  1.0000 0.4735631934
C   C47       1.0  0.29010  0.22030  0.75540  1.0000 0.4735631934
C   C48       1.0  0.22030  0.29010  0.74460  1.0000 0.4735631934
C   C49       1.0  0.54680  0.79740  0.78860  1.0000 0.054776297
C   C50       1.0  0.79740  0.54680  0.71140  1.0000 0.054776297
C   C51       1.0  0.45320  0.20260  0.21140  1.0000 0.054776297
C   C52       1.0  0.20260  0.45320  0.28860  1.0000 0.054776297
C   C53       1.0  0.64440  0.77280  0.68400  1.0000 0.0231097939
C   C54       1.0  0.77280  0.64440  0.81600  1.0000 0.0231097939
C   C55       1.0  0.35560  0.22720  0.31600  1.0000 0.0231097939
C   C56       1.0  0.22720  0.35560  0.18400  1.0000 0.0231097939
N   N1        1.0  0.19010  0.75770  0.49980  1.0000 -0.1826960305
N   N2        1.0  0.75770  0.19010  0.00020  1.0000 -0.1826960305
N   N3        1.0  0.80990  0.24230  0.50020  1.0000 -0.1826960305
N   N4        1.0  0.24230  0.80990  0.99980  1.0000 -0.1826960305
N   N5        1.0  0.68270  0.93790  0.80630  1.0000 -0.1826960305
N   N6        1.0  0.93790  0.68270  0.69370  1.0000 -0.1826960305
N   N7        1.0  0.31730  0.06210  0.19370  1.0000 -0.1826960305
N   N8        1.0  0.06210  0.31730  0.30630  1.0000 -0.1826960305
O   O1        1.0  0.84820  0.96460  0.44180  1.0000 -0.5891818752
O   O2        1.0  0.96460  0.84820  0.05820  1.0000 -0.5891818752
O   O3        1.0  0.15180  0.03540  0.55820  1.0000 -0.5891818752
O   O4        1.0  0.03540  0.15180  0.94180  1.0000 -0.5891818752
O   O5        1.0  0.66970  0.78930  0.30840  1.0000 -0.5891818752
O   O6        1.0  0.78930  0.66970  0.19160  1.0000 -0.5956131676
O   O7        1.0  0.33030  0.21070  0.69160  1.0000 -0.5891818752
O   O8        1.0  0.21070  0.33030  0.80840  1.0000 -0.5891818752
O   O9        1.0  0.72570  0.73890  0.57330  1.0000 -0.647343696
O   O10       1.0  0.73890  0.72570  0.92670  1.0000 -0.647343696
O   O11       1.0  0.27430  0.26110  0.42670  1.0000 -0.647343696
O   O12       1.0  0.26110  0.27430  0.07330  1.0000 -0.647343696
O   O13       1.0  0.50440  0.67000  0.45550  1.0000 -0.647343696
O   O14       1.0  0.67000  0.50440  0.04450  1.0000 -0.647343696
O   O15       1.0  0.49560  0.33000  0.54450  1.0000 -0.647343696
O   O16       1.0  0.33000  0.49560  0.95550  1.0000 -0.647343696
O   O17       1.0  0.49920  0.53760  0.62270  1.0000 -0.628650532
O   O18       1.0  0.53760  0.49920  0.87730  1.0000 -0.628650532
O   O19       1.0  0.50080  0.46240  0.37730  1.0000 -0.628650532
O   O20       1.0  0.46240  0.50080  0.12270  1.0000 -0.628650532
O   O21       1.0  0.27580  0.47800  0.50770  1.0000 -0.647343696
O   O22       1.0  0.47800  0.27580  0.99230  1.0000 -0.647343696
O   O23       1.0  0.72420  0.52200  0.49230  1.0000 -0.647343696
O   O24       1.0  0.52200  0.72420  0.00770  1.0000 -0.647343696
O   O25       1.0  0.69560  0.81840  0.17510  1.0000 -0.5849770167
O   O26       1.0  0.81840  0.69560  0.32490  1.0000 -0.5849770167
O   O27       1.0  0.30440  0.18160  0.82490  1.0000 -0.5849770167
O   O28       1.0  0.18160  0.30440  0.67510  1.0000 -0.5849770167
O   O29       1.0  0.03450  0.16070  0.52060  1.0000 -0.5891818752
O   O30       1.0  0.16070  0.03450  0.97940  1.0000 -0.5891818752
O   O31       1.0  0.96550  0.83930  0.47940  1.0000 -0.5891818752
O   O32       1.0  0.83930  0.96550  0.02060  1.0000 -0.5891818752
