# DDEC6 charges by PACMAN v1.1 (https://github.com/mtap-research/PACMAN-charge/)
data_2015[Tb][nan]3[ASR]14
_chemical_formula_sum              "Tb8 H96 C168 O60"
_cell_length_a       15.089
_cell_length_b       15.275
_cell_length_c       23.654
_cell_angle_alpha    85.902
_cell_angle_beta     81.506
_cell_angle_gamma    86.813

_symmetry_space_group_name_H-M    "P 1"
_symmetry_Int_Tables_number       1

loop_
  _symmetry_equiv_pos_as_xyz
  'x, y, z'

loop_
  _atom_site_type_symbol
  _atom_site_label
  _atom_site_symmetry_multiplicity
  _atom_site_fract_x
  _atom_site_fract_y
  _atom_site_fract_z
  _atom_site_occupancy
  _atom_site_charge
Tb  Tb1       1.0  0.29822  0.63673  0.77349  1.0000 2.0818671466
Tb  Tb2       1.0  0.70178  0.36327  0.22651  1.0000 2.0868132195
Tb  Tb3       1.0  0.27207  0.38906  0.73259  1.0000 2.053624042
Tb  Tb4       1.0  0.72793  0.61094  0.26741  1.0000 2.053624042
Tb  Tb5       1.0  0.15819  0.16721  0.71893  1.0000 2.0818671466
Tb  Tb6       1.0  0.84181  0.83279  0.28107  1.0000 2.0818671466
Tb  Tb7       1.0  0.18799  0.90959  0.72785  1.0000 2.0585225901
Tb  Tb8       1.0  0.81201  0.09041  0.27215  1.0000 2.0585225901
H   H1        1.0  0.86060  0.93100  0.70030  1.0000 0.1206232837
H   H2        1.0  0.13940  0.06900  0.29970  1.0000 0.1206232837
H   H3        1.0  0.94260  0.08350  0.81160  1.0000 0.1308025199
H   H4        1.0  0.05740  0.91650  0.18840  1.0000 0.1308025199
H   H5        1.0  0.81630  0.20700  0.44330  1.0000 0.1206232837
H   H6        1.0  0.18370  0.79300  0.55670  1.0000 0.1206232837
H   H7        1.0  0.67340  0.41490  0.38740  1.0000 0.1308025199
H   H8        1.0  0.32660  0.58510  0.61260  1.0000 0.1308025199
H   H9        1.0  0.68100  0.48060  0.47060  1.0000 0.1308025199
H   H10       1.0  0.31900  0.51940  0.52940  1.0000 0.1308025199
H   H11       1.0  0.81750  0.27270  0.52790  1.0000 0.1401241589
H   H12       1.0  0.18250  0.72730  0.47210  1.0000 0.1401241589
H   H13       1.0  0.44550  0.73940  0.31210  1.0000 0.1206232837
H   H14       1.0  0.55450  0.26060  0.68790  1.0000 0.1206232837
H   H15       1.0  0.31590  0.82390  0.34230  1.0000 0.1401241589
H   H16       1.0  0.68410  0.17610  0.65770  1.0000 0.1401241589
H   H17       1.0  0.94780  0.28310  0.29490  1.0000 0.1308025199
H   H18       1.0  0.05220  0.71690  0.70510  1.0000 0.1308025199
H   H19       1.0  0.95190  0.50520  0.37030  1.0000 0.1206232837
H   H20       1.0  0.04810  0.49480  0.62970  1.0000 0.1206232837
H   H21       1.0  0.06380  0.22430  0.33840  1.0000 0.1401241589
H   H22       1.0  0.93620  0.77570  0.66160  1.0000 0.1401241589
H   H23       1.0  0.15190  0.14920  0.13690  1.0000 0.1308025199
H   H24       1.0  0.84810  0.85080  0.86310  1.0000 0.1308025199
H   H25       1.0  0.91820  0.29840  0.06080  1.0000 0.1128695651
H   H26       1.0  0.08180  0.70160  0.93920  1.0000 0.1128695651
H   H27       1.0  0.05170  0.26460  0.00340  1.0000 0.1308025199
H   H28       1.0  0.94830  0.73540  0.99660  1.0000 0.1401241589
H   H29       1.0  0.45960  0.42670  0.62400  1.0000 0.1308025199
H   H30       1.0  0.54040  0.57330  0.37600  1.0000 0.1308025199
H   H31       1.0  0.58100  0.37780  0.56310  1.0000 0.1308025199
H   H32       1.0  0.41900  0.62220  0.43690  1.0000 0.1308025199
H   H33       1.0  0.61750  0.56720  0.70010  1.0000 0.1206232837
H   H34       1.0  0.38250  0.43280  0.29990  1.0000 0.1206232837
H   H35       1.0  0.74220  0.52120  0.63850  1.0000 0.1401241589
H   H36       1.0  0.25780  0.47880  0.36150  1.0000 0.1401241589
H   H37       1.0  0.08040  0.31660  0.59290  1.0000 0.1206232837
H   H38       1.0  0.91960  0.68340  0.40710  1.0000 0.1206232837
H   H39       1.0  0.33920  0.36550  0.94000  1.0000 0.1206232837
H   H40       1.0  0.66080  0.63450  0.06000  1.0000 0.1206232837
H   H41       1.0  0.09660  0.54980  0.99820  1.0000 0.1206232837
H   H42       1.0  0.90340  0.45020  0.00180  1.0000 0.1206232837
H   H43       1.0  0.33700  0.34040  0.52210  1.0000 0.1206232837
H   H44       1.0  0.66300  0.65960  0.47790  1.0000 0.1206232837
H   H45       1.0  0.17780  0.13920  0.51780  1.0000 0.1128695651
H   H46       1.0  0.82220  0.86080  0.48220  1.0000 0.1128695651
H   H47       1.0  0.13780  0.53070  0.90150  1.0000 0.1206232837
H   H48       1.0  0.86220  0.46930  0.09850  1.0000 0.1206232837
H   H49       1.0  0.03930  0.30520  0.50000  1.0000 0.1308025199
H   H50       1.0  0.96070  0.69480  0.50000  1.0000 0.1308025199
H   H51       1.0  0.29760  0.32270  0.43190  1.0000 0.1308025199
H   H52       1.0  0.70240  0.67730  0.56810  1.0000 0.1308025199
H   H53       1.0  0.16910  0.64640  0.07370  1.0000 0.1308025199
H   H54       1.0  0.83090  0.35360  0.92630  1.0000 0.1308025199
H   H55       1.0  0.30950  0.92370  0.56990  1.0000 0.1308025199
H   H56       1.0  0.69050  0.07630  0.43010  1.0000 0.1308025199
H   H57       1.0  0.21380  0.10490  0.42300  1.0000 0.1401241589
H   H58       1.0  0.78620  0.89510  0.57700  1.0000 0.1401241589
H   H59       1.0  0.29620  0.38670  0.03710  1.0000 0.1401241589
H   H60       1.0  0.70380  0.61330  0.96290  1.0000 0.1401241589
H   H61       1.0  0.02240  0.45010  0.14810  1.0000 0.1401241589
H   H62       1.0  0.97760  0.54990  0.85190  1.0000 0.1401241589
H   H63       1.0  0.91580  0.55170  0.19060  1.0000 0.1206232837
H   H64       1.0  0.08420  0.44830  0.80940  1.0000 0.1206232837
H   H65       1.0  0.01910  0.18250  0.19630  1.0000 0.1206232837
H   H66       1.0  0.98090  0.81750  0.80370  1.0000 0.1206232837
H   H67       1.0  0.27710  0.15250  0.84780  1.0000 0.1308025199
H   H68       1.0  0.72290  0.84750  0.15220  1.0000 0.1308025199
H   H69       1.0  0.27920  0.22230  0.93080  1.0000 0.1308025199
H   H70       1.0  0.72080  0.77770  0.06920  1.0000 0.1308025199
H   H71       1.0  0.06440  0.74940  0.11510  1.0000 0.1206232837
H   H72       1.0  0.93560  0.25060  0.88490  1.0000 0.1206232837
H   H73       1.0  0.10280  0.98180  0.93060  1.0000 0.1206232837
H   H74       1.0  0.89720  0.01820  0.06940  1.0000 0.1206232837
H   H75       1.0  0.07140  0.44940  0.41580  1.0000 0.1308025199
H   H76       1.0  0.92860  0.55060  0.58420  1.0000 0.1308025199
H   H77       1.0  0.34580  0.88550  0.47620  1.0000 0.1308025199
H   H78       1.0  0.65420  0.11450  0.52380  1.0000 0.1308025199
H   H79       1.0  0.45770  0.01210  0.38170  1.0000 0.1308025199
H   H80       1.0  0.54230  0.98790  0.61830  1.0000 0.1308025199
H   H81       1.0  0.79510  0.10210  0.85790  1.0000 0.1308025199
H   H82       1.0  0.20490  0.89790  0.14210  1.0000 0.1308025199
H   H83       1.0  0.71440  0.95160  0.74560  1.0000 0.1308025199
H   H84       1.0  0.28560  0.04840  0.25440  1.0000 0.1308025199
H   H85       1.0  0.59400  0.93090  0.34510  1.0000 0.1308025199
H   H86       1.0  0.40600  0.06910  0.65490  1.0000 0.1308025199
H   H87       1.0  0.10510  0.05270  0.01480  1.0000 0.1308025199
H   H88       1.0  0.89490  0.94730  0.98520  1.0000 0.1308025199
H   H89       1.0  0.40460  0.01070  0.77010  1.0000 0.1206232837
H   H90       1.0  0.59540  0.98930  0.22990  1.0000 0.1206232837
H   H91       1.0  0.52140  0.09020  0.79130  1.0000 0.1308025199
H   H92       1.0  0.47860  0.90980  0.20870  1.0000 0.1308025199
H   H93       1.0  0.52060  0.78910  0.83190  1.0000 0.1206232837
H   H94       1.0  0.47940  0.21090  0.16810  1.0000 0.1206232837
H   H95       1.0  0.62830  0.86760  0.86330  1.0000 0.1401241589
H   H96       1.0  0.37170  0.13240  0.13670  1.0000 0.1401241589
C   C1        1.0  0.01170  0.98720  0.72730  1.0000 0.6002278111
C   C2        1.0  0.98830  0.01280  0.27270  1.0000 0.6002278111
C   C3        1.0  0.91310  0.00500  0.75200  1.0000 -0.0304770093
C   C4        1.0  0.08690  0.99500  0.24800  1.0000 -0.0304770093
C   C5        1.0  0.84780  0.96510  0.73180  1.0000 -0.0794729932
C   C6        1.0  0.15220  0.03490  0.26820  1.0000 -0.0794729932
C   C7        1.0  0.89600  0.05650  0.79890  1.0000 -0.0794729932
C   C8        1.0  0.10400  0.94350  0.20110  1.0000 -0.0794729932
C   C9        1.0  0.73900  0.25900  0.34950  1.0000 0.6366254768
C   C10       1.0  0.26100  0.74100  0.65050  1.0000 0.6366254768
C   C11       1.0  0.74470  0.30180  0.40580  1.0000 -0.0411909443
C   C12       1.0  0.25530  0.69820  0.59420  1.0000 -0.0411909443
C   C13       1.0  0.78720  0.26180  0.44850  1.0000 -0.0866186464
C   C14       1.0  0.21280  0.73820  0.55150  1.0000 -0.0866186464
C   C15       1.0  0.70320  0.38560  0.41540  1.0000 -0.0710697484
C   C16       1.0  0.29680  0.61440  0.58460  1.0000 -0.0710697484
C   C17       1.0  0.70620  0.42420  0.46570  1.0000 -0.1989101995
C   C18       1.0  0.29380  0.57580  0.53430  1.0000 -0.1989101995
C   C19       1.0  0.78790  0.30120  0.49950  1.0000 -0.1989101995
C   C20       1.0  0.21210  0.69880  0.50050  1.0000 -0.1989101995
C   C21       1.0  0.74580  0.38090  0.50830  1.0000 0.2241213303
C   C22       1.0  0.25420  0.61910  0.49170  1.0000 0.2241213303
C   C23       1.0  0.53160  0.83010  0.32210  1.0000 -0.0540478531
C   C24       1.0  0.46840  0.16990  0.67790  1.0000 -0.0540478531
C   C25       1.0  0.44960  0.79540  0.32420  1.0000 -0.0794729932
C   C26       1.0  0.55040  0.20460  0.67580  1.0000 -0.0794729932
C   C27       1.0  0.37220  0.84430  0.34450  1.0000 -0.1905422726
C   C28       1.0  0.62780  0.15570  0.65550  1.0000 -0.1905422726
C   C29       1.0  0.97310  0.31690  0.31900  1.0000 -0.0710697484
C   C30       1.0  0.02690  0.68310  0.68100  1.0000 -0.0710697484
C   C31       1.0  0.86400  0.44180  0.29510  1.0000 0.6322475951
C   C32       1.0  0.13600  0.55820  0.70490  1.0000 0.6322475951
C   C33       1.0  0.93890  0.40330  0.32650  1.0000 -0.0411909443
C   C34       1.0  0.06110  0.59670  0.67350  1.0000 -0.0411909443
C   C35       1.0  0.97520  0.44880  0.36340  1.0000 -0.0866186464
C   C36       1.0  0.02480  0.55120  0.63660  1.0000 -0.0866186464
C   C37       1.0  0.04080  0.28100  0.34500  1.0000 -0.1773881832
C   C38       1.0  0.95920  0.71900  0.65500  1.0000 -0.1773881832
C   C39       1.0  0.86690  0.25700  0.17150  1.0000 0.6366254768
C   C40       1.0  0.13310  0.74300  0.82850  1.0000 0.6366254768
C   C41       1.0  0.95400  0.23990  0.13450  1.0000 -0.0411909443
C   C42       1.0  0.04600  0.76010  0.86550  1.0000 -0.0411909443
C   C43       1.0  0.10450  0.17900  0.12160  1.0000 -0.1989101995
C   C44       1.0  0.89550  0.82100  0.87840  1.0000 -0.1989101995
C   C45       1.0  0.96450  0.26730  0.07640  1.0000 -0.0794729932
C   C46       1.0  0.03550  0.73270  0.92360  1.0000 -0.0794729932
C   C47       1.0  0.04520  0.24740  0.04220  1.0000 -0.2189880827
C   C48       1.0  0.95480  0.75260  0.95780  1.0000 -0.2189880827
C   C49       1.0  0.91380  0.72510  0.18830  1.0000 0.6075465362
C   C50       1.0  0.08620  0.27490  0.81170  1.0000 0.6075465362
C   C51       1.0  0.97940  0.66100  0.15610  1.0000 -0.0304770093
C   C52       1.0  0.02060  0.33900  0.84390  1.0000 -0.0304770093
C   C53       1.0  0.51610  0.44570  0.62690  1.0000 -0.0710697484
C   C54       1.0  0.48390  0.55430  0.37310  1.0000 -0.0710697484
C   C55       1.0  0.44540  0.53890  0.70700  1.0000 0.6206112585
C   C56       1.0  0.55460  0.46110  0.29300  1.0000 0.6206112585
C   C57       1.0  0.67240  0.44510  0.59400  1.0000 0.2583372574
C   C58       1.0  0.32760  0.55490  0.40600  1.0000 0.2583372574
C   C59       1.0  0.52510  0.50250  0.66780  1.0000 -0.0304770093
C   C60       1.0  0.47490  0.49750  0.33220  1.0000 -0.0304770093
C   C61       1.0  0.58830  0.41670  0.59040  1.0000 -0.2189880827
C   C62       1.0  0.41170  0.58330  0.40960  1.0000 -0.2189880827
C   C63       1.0  0.61080  0.52970  0.67200  1.0000 -0.0794729932
C   C64       1.0  0.38920  0.47030  0.32800  1.0000 -0.0794729932
C   C65       1.0  0.68550  0.50240  0.63560  1.0000 -0.2121255914
C   C66       1.0  0.31450  0.49760  0.36440  1.0000 -0.2121255914
C   C67       1.0  0.27090  0.43430  0.84710  1.0000 0.5815817794
C   C68       1.0  0.72910  0.56570  0.15290  1.0000 0.5815817794
C   C69       1.0  0.23720  0.33920  0.62370  1.0000 0.6075465362
C   C70       1.0  0.76280  0.66080  0.37630  1.0000 0.6075465362
C   C71       1.0  0.24410  0.44760  0.91050  1.0000 -0.0304770093
C   C72       1.0  0.75590  0.55240  0.08950  1.0000 -0.0304770093
C   C73       1.0  0.21180  0.32960  0.56540  1.0000 -0.0411909443
C   C74       1.0  0.78820  0.67040  0.43460  1.0000 -0.0411909443
C   C75       1.0  0.12360  0.31870  0.56050  1.0000 -0.0710697484
C   C76       1.0  0.87640  0.68130  0.43950  1.0000 -0.0710697484
C   C77       1.0  0.29050  0.40330  0.95150  1.0000 -0.0794729932
C   C78       1.0  0.70950  0.59670  0.04850  1.0000 -0.0794729932
C   C79       1.0  0.14550  0.51240  0.98630  1.0000 -0.2121255914
C   C80       1.0  0.85450  0.48760  0.01370  1.0000 -0.2121255914
C   C81       1.0  0.10180  0.53860  0.10590  1.0000 0.2291737518
C   C82       1.0  0.89820  0.46140  0.89410  1.0000 0.2291737518
C   C83       1.0  0.21490  0.05930  0.61450  1.0000 0.6322475951
C   C84       1.0  0.78510  0.94070  0.38550  1.0000 0.6322475951
C   C85       1.0  0.27770  0.33210  0.51810  1.0000 -0.0794729932
C   C86       1.0  0.72230  0.66790  0.48190  1.0000 -0.0794729932
C   C87       1.0  0.21240  0.08830  0.50900  1.0000 -0.0710697484
C   C88       1.0  0.78760  0.91170  0.49100  1.0000 -0.0710697484
C   C89       1.0  0.17040  0.50170  0.92820  1.0000 -0.0794729932
C   C90       1.0  0.82960  0.49830  0.07180  1.0000 -0.0794729932
C   C91       1.0  0.09890  0.31070  0.50450  1.0000 -0.2303365488
C   C92       1.0  0.90110  0.68930  0.49550  1.0000 -0.2303365488
C   C93       1.0  0.19040  0.47000  0.02550  1.0000 0.2291737518
C   C94       1.0  0.80960  0.53000  0.97450  1.0000 0.2291737518
C   C95       1.0  0.24200  0.03460  0.55340  1.0000 -0.0411909443
C   C96       1.0  0.75800  0.96540  0.44660  1.0000 -0.0411909443
C   C97       1.0  0.25360  0.32200  0.46380  1.0000 -0.2121255914
C   C98       1.0  0.74640  0.67800  0.53620  1.0000 -0.2121255914
C   C99       1.0  0.16630  0.31120  0.45720  1.0000 0.2477287134
C   C100      1.0  0.83370  0.68880  0.54280  1.0000 0.2477287134
C   C101      1.0  0.11720  0.62790  0.09660  1.0000 -0.1989101995
C   C102      1.0  0.88280  0.37210  0.90340  1.0000 -0.1989101995
C   C103      1.0  0.29030  0.96030  0.54050  1.0000 -0.0794729932
C   C104      1.0  0.70970  0.03970  0.45950  1.0000 -0.0794729932
C   C105      1.0  0.23290  0.06790  0.45220  1.0000 -0.2121255914
C   C106      1.0  0.76710  0.93210  0.54780  1.0000 -0.2121255914
C   C107      1.0  0.26450  0.41500  0.00970  1.0000 -0.1989101995
C   C108      1.0  0.73550  0.58500  0.99030  1.0000 -0.1989101995
C   C109      1.0  0.03010  0.51000  0.14080  1.0000 -0.1989101995
C   C110      1.0  0.96990  0.49000  0.85920  1.0000 -0.1989101995
C   C111      1.0  0.96640  0.57110  0.16660  1.0000 -0.0794729932
C   C112      1.0  0.03360  0.42890  0.83340  1.0000 -0.0710697484
C   C113      1.0  0.38490  0.84230  0.78120  1.0000 0.6206112585
C   C114      1.0  0.61510  0.15770  0.21880  1.0000 0.6206112585
C   C115      1.0  0.44950  0.89400  0.79750  1.0000 -0.1132971266
C   C116      1.0  0.55050  0.10600  0.20250  1.0000 -0.1132971266
C   C117      1.0  0.07450  0.33080  0.38160  1.0000 0.2241213303
C   C118      1.0  0.92550  0.66920  0.61840  1.0000 0.2291737518
C   C119      1.0  0.02450  0.19810  0.15720  1.0000 -0.0794729932
C   C120      1.0  0.97550  0.80190  0.84280  1.0000 -0.0794729932
C   C121      1.0  0.19000  0.06200  0.87940  1.0000 -0.0411909443
C   C122      1.0  0.81000  0.93800  0.12060  1.0000 -0.0411909443
C   C123      1.0  0.24170  0.13230  0.88120  1.0000 -0.0710697484
C   C124      1.0  0.75830  0.86770  0.11880  1.0000 -0.0710697484
C   C125      1.0  0.24350  0.17460  0.93080  1.0000 -0.1905422726
C   C126      1.0  0.75650  0.82540  0.06920  1.0000 -0.1905422726
C   C127      1.0  0.18860  0.01660  0.82580  1.0000 0.6075465362
C   C128      1.0  0.81140  0.98340  0.17420  1.0000 0.6075465362
C   C129      1.0  0.19070  0.14370  0.98020  1.0000 0.2405480128
C   C130      1.0  0.80930  0.85630  0.01980  1.0000 0.2405480128
C   C131      1.0  0.05500  0.68960  0.12160  1.0000 -0.0866186464
C   C132      1.0  0.94500  0.31040  0.87840  1.0000 -0.0866186464
C   C133      1.0  0.13760  0.03010  0.93040  1.0000 -0.0710697484
C   C134      1.0  0.86240  0.96990  0.06960  1.0000 -0.0710697484
C   C135      1.0  0.11410  0.20410  0.06350  1.0000 0.2405480128
C   C136      1.0  0.88590  0.79590  0.93650  1.0000 0.2405480128
C   C137      1.0  0.04560  0.41600  0.39170  1.0000 -0.2121255914
C   C138      1.0  0.95440  0.58400  0.60830  1.0000 -0.2121255914
C   C139      1.0  0.28280  0.99100  0.44040  1.0000 0.2583372574
C   C140      1.0  0.71720  0.00900  0.55960  1.0000 0.2583372574
C   C141      1.0  0.31190  0.93700  0.48430  1.0000 -0.2121255914
C   C142      1.0  0.68810  0.06300  0.51570  1.0000 -0.2121255914
C   C143      1.0  0.37930  0.91830  0.36620  1.0000 0.201155082
C   C144      1.0  0.62070  0.08170  0.63380  1.0000 0.201155082
C   C145      1.0  0.45640  0.95720  0.36720  1.0000 -0.1989101995
C   C146      1.0  0.54360  0.04280  0.63280  1.0000 -0.1989101995
C   C147      1.0  0.80850  0.06730  0.82670  1.0000 -0.1989101995
C   C148      1.0  0.19150  0.93270  0.17330  1.0000 -0.1989101995
C   C149      1.0  0.76080  0.97690  0.75960  1.0000 -0.2121255914
C   C150      1.0  0.23920  0.02310  0.24040  1.0000 -0.2121255914
C   C151      1.0  0.74160  0.02430  0.80640  1.0000 0.2405480128
C   C152      1.0  0.25840  0.97570  0.19360  1.0000 0.2405480128
C   C153      1.0  0.53810  0.90850  0.34440  1.0000 -0.0710697484
C   C154      1.0  0.46190  0.09150  0.65560  1.0000 -0.0710697484
C   C155      1.0  0.13920  0.07280  0.98080  1.0000 -0.2303365488
C   C156      1.0  0.86080  0.92720  0.01920  1.0000 -0.2303365488
C   C157      1.0  0.61390  0.78160  0.29610  1.0000 0.6322475951
C   C158      1.0  0.38610  0.21840  0.70390  1.0000 0.6322475951
C   C159      1.0  0.45090  0.98150  0.78690  1.0000 -0.0540478531
C   C160      1.0  0.54910  0.01850  0.21310  1.0000 -0.0540478531
C   C161      1.0  0.52020  0.02990  0.80030  1.0000 -0.2189880827
C   C162      1.0  0.47980  0.97010  0.19970  1.0000 -0.2189880827
C   C163      1.0  0.58780  0.98540  0.82750  1.0000 0.2583372574
C   C164      1.0  0.41220  0.01460  0.17250  1.0000 0.2583372574
C   C165      1.0  0.52000  0.84990  0.82540  1.0000 -0.0643529029
C   C166      1.0  0.48000  0.15010  0.17460  1.0000 -0.0643529029
C   C167      1.0  0.58610  0.89560  0.84240  1.0000 -0.2303365488
C   C168      1.0  0.41390  0.10440  0.15760  1.0000 -0.2303365488
O   O1        1.0  0.32860  0.88160  0.74740  1.0000 -0.7540749231
O   O2        1.0  0.67140  0.11840  0.25260  1.0000 -0.7540749231
O   O3        1.0  0.85160  0.21990  0.22040  1.0000 -0.6910498658
O   O4        1.0  0.14840  0.78010  0.77960  1.0000 -0.6910498658
O   O5        1.0  0.03440  0.91660  0.70470  1.0000 -0.5905340979
O   O6        1.0  0.96560  0.08340  0.29530  1.0000 -0.5905340979
O   O7        1.0  0.06900  0.03990  0.73400  1.0000 -0.714507691
O   O8        1.0  0.93100  0.96010  0.26600  1.0000 -0.714507691
O   O9        1.0  0.68610  0.29490  0.31710  1.0000 -0.6810310402
O   O10       1.0  0.31390  0.70510  0.68290  1.0000 -0.6695732791
O   O11       1.0  0.60540  0.70820  0.27820  1.0000 -0.6198963144
O   O12       1.0  0.39460  0.29180  0.72180  1.0000 -0.6198963144
O   O13       1.0  0.83030  0.39130  0.26500  1.0000 -0.6695732791
O   O14       1.0  0.16970  0.60870  0.73500  1.0000 -0.6695732791
O   O15       1.0  0.83930  0.52080  0.30110  1.0000 -0.6501972446
O   O16       1.0  0.16070  0.47920  0.69890  1.0000 -0.6501972446
O   O17       1.0  0.81180  0.31410  0.15240  1.0000 -0.6501972446
O   O18       1.0  0.18820  0.68590  0.84760  1.0000 -0.6501972446
O   O19       1.0  0.84110  0.69830  0.21650  1.0000 -0.726736001
O   O20       1.0  0.15890  0.30170  0.78350  1.0000 -0.726736001
O   O21       1.0  0.93390  0.80380  0.18840  1.0000 -0.6198963144
O   O22       1.0  0.06610  0.19620  0.81160  1.0000 -0.6198963144
O   O23       1.0  0.45610  0.60230  0.73540  1.0000 -0.6018143215
O   O24       1.0  0.54390  0.39770  0.26460  1.0000 -0.6018143215
O   O25       1.0  0.36880  0.50460  0.70960  1.0000 -0.7612099865
O   O26       1.0  0.63120  0.49540  0.29040  1.0000 -0.7612099865
O   O27       1.0  0.75060  0.41820  0.56010  1.0000 -0.2303365488
O   O28       1.0  0.24940  0.58180  0.43990  1.0000 -0.2303365488
O   O29       1.0  0.22030  0.05730  0.77820  1.0000 -0.7401347775
O   O30       1.0  0.77970  0.94270  0.22180  1.0000 -0.7401347775
O   O31       1.0  0.24250  0.49210  0.81180  1.0000 -0.7401347775
O   O32       1.0  0.75750  0.50790  0.18820  1.0000 -0.7401347775
O   O33       1.0  0.31670  0.36770  0.83200  1.0000 -0.5739135662
O   O34       1.0  0.68330  0.63230  0.16800  1.0000 -0.5754241267
O   O35       1.0  0.30290  0.38130  0.62840  1.0000 -0.5754241267
O   O36       1.0  0.69710  0.61870  0.37160  1.0000 -0.5754241267
O   O37       1.0  0.18990  0.30530  0.66850  1.0000 -0.7401347775
O   O38       1.0  0.81010  0.69470  0.33150  1.0000 -0.7401347775
O   O39       1.0  0.17060  0.13050  0.62330  1.0000 -0.6376282641
O   O40       1.0  0.82940  0.86950  0.37670  1.0000 -0.6376282641
O   O41       1.0  0.23820  0.00860  0.65390  1.0000 -0.6810310402
O   O42       1.0  0.76180  0.99140  0.34610  1.0000 -0.6810310402
O   O43       1.0  0.16860  0.47800  0.08430  1.0000 -0.2303365488
O   O44       1.0  0.83140  0.52200  0.91570  1.0000 -0.2303365488
O   O45       1.0  0.16080  0.94200  0.82700  1.0000 -0.5905340979
O   O46       1.0  0.83920  0.05800  0.17300  1.0000 -0.5905340979
O   O47       1.0  0.78140  0.18820  0.34350  1.0000 -0.6376282641
O   O48       1.0  0.21860  0.81180  0.65650  1.0000 -0.6376282641
O   O49       1.0  0.37290  0.76090  0.79400  1.0000 -0.6564969936
O   O50       1.0  0.62710  0.23910  0.20600  1.0000 -0.6564969936
O   O51       1.0  0.14920  0.29250  0.40400  1.0000 -0.2303365488
O   O52       1.0  0.85080  0.70750  0.59600  1.0000 -0.2303365488
O   O53       1.0  0.19460  0.18550  0.03050  1.0000 -0.2303365488
O   O54       1.0  0.80540  0.81450  0.96950  1.0000 -0.2303365488
O   O55       1.0  0.65640  0.03550  0.83920  1.0000 -0.2303365488
O   O56       1.0  0.34360  0.96450  0.16080  1.0000 -0.2303365488
O   O57       1.0  0.68880  0.81590  0.29620  1.0000 -0.6910498658
O   O58       1.0  0.31120  0.18410  0.70380  1.0000 -0.6910498658
O   O59       1.0  0.29950  0.96950  0.38460  1.0000 -0.2303365488
O   O60       1.0  0.70050  0.03050  0.61540  1.0000 -0.2303365488
