# DDEC6 charges by PACMAN v1.1 (https://github.com/mtap-research/PACMAN-charge/)
data_2015[Zn][nan]3[ASR]27
_chemical_formula_sum              "Zn6 H36 C56 O20"
_cell_length_a       15.5889
_cell_length_b       15.5889
_cell_length_c       12.0021
_cell_angle_alpha    74.1401
_cell_angle_beta     105.86
_cell_angle_gamma    95.7169

_symmetry_space_group_name_H-M    "P 1"
_symmetry_Int_Tables_number       1

loop_
  _symmetry_equiv_pos_as_xyz
  'x, y, z'

loop_
  _atom_site_type_symbol
  _atom_site_label
  _atom_site_symmetry_multiplicity
  _atom_site_fract_x
  _atom_site_fract_y
  _atom_site_fract_z
  _atom_site_occupancy
  _atom_site_charge
Zn  Zn1       1.0  0.00000  0.00000  0.00000  1.0000 1.0298326618
Zn  Zn2       1.0  0.00000  0.00000  0.50000  1.0000 1.0298326618
Zn  Zn3       1.0  0.92910  0.92910  0.75000  1.0000 0.9689255959
Zn  Zn4       1.0  0.07090  0.07090  0.25000  1.0000 0.9689255959
Zn  Zn5       1.0  0.06820  0.06820  0.75000  1.0000 0.9689255959
Zn  Zn6       1.0  0.93180  0.93180  0.25000  1.0000 0.9689255959
H   H1        1.0  0.92220  0.64600  0.92140  1.0000 0.118199173
H   H2        1.0  0.64600  0.92220  0.57860  1.0000 0.118199173
H   H3        1.0  0.07780  0.35400  0.07860  1.0000 0.118199173
H   H4        1.0  0.35400  0.07780  0.42140  1.0000 0.118199173
H   H5        1.0  0.93530  0.50270  0.04590  1.0000 0.1116764618
H   H6        1.0  0.50270  0.93530  0.45410  1.0000 0.1116764618
H   H7        1.0  0.06470  0.49730  0.95410  1.0000 0.1116764618
H   H8        1.0  0.49730  0.06470  0.54590  1.0000 0.1116764618
H   H9        1.0  0.00480  0.60900  0.33230  1.0000 0.1116764618
H   H10       1.0  0.60900  0.00480  0.16770  1.0000 0.1116764618
H   H11       1.0  0.99520  0.39100  0.66770  1.0000 0.1116764618
H   H12       1.0  0.39100  0.99520  0.83230  1.0000 0.1116764618
H   H13       1.0  0.98600  0.75220  0.20540  1.0000 0.118199173
H   H14       1.0  0.75220  0.98600  0.29460  1.0000 0.118199173
H   H15       1.0  0.01400  0.24780  0.79460  1.0000 0.1116764618
H   H16       1.0  0.24780  0.01400  0.70540  1.0000 0.1116764618
H   H17       1.0  0.88020  0.38520  0.18450  1.0000 0.118199173
H   H18       1.0  0.38520  0.88020  0.31550  1.0000 0.118199173
H   H19       1.0  0.11980  0.61480  0.81550  1.0000 0.118199173
H   H20       1.0  0.61480  0.11980  0.68450  1.0000 0.118199173
H   H21       1.0  0.90270  0.24190  0.31670  1.0000 0.118199173
H   H22       1.0  0.24190  0.90270  0.18330  1.0000 0.118199173
H   H23       1.0  0.09730  0.75810  0.68330  1.0000 0.118199173
H   H24       1.0  0.75810  0.09730  0.81670  1.0000 0.118199173
H   H25       1.0  0.09310  0.34010  0.54960  1.0000 0.118199173
H   H26       1.0  0.34010  0.09310  0.95040  1.0000 0.118199173
H   H27       1.0  0.90690  0.65990  0.45040  1.0000 0.118199173
H   H28       1.0  0.65990  0.90690  0.04960  1.0000 0.118199173
H   H29       1.0  0.07830  0.48370  0.42330  1.0000 0.118199173
H   H30       1.0  0.48370  0.07830  0.07670  1.0000 0.118199173
H   H31       1.0  0.92170  0.51630  0.57670  1.0000 0.118199173
H   H32       1.0  0.51630  0.92170  0.92330  1.0000 0.118199173
H   H33       1.0  0.91770  0.08170  0.78230  1.0000 0.4068389615
H   H34       1.0  0.08170  0.91770  0.71770  1.0000 0.4068389615
H   H35       1.0  0.08230  0.91830  0.21770  1.0000 0.4068389615
H   H36       1.0  0.91830  0.08230  0.28230  1.0000 0.4068389615
C   C1        1.0  0.94870  0.80490  0.97200  1.0000 0.5853571898
C   C2        1.0  0.80490  0.94870  0.52800  1.0000 0.5853571898
C   C3        1.0  0.05130  0.19510  0.02800  1.0000 0.5853571898
C   C4        1.0  0.19510  0.05130  0.47200  1.0000 0.5853571898
C   C5        1.0  0.95370  0.71250  0.04700  1.0000 -0.0463963648
C   C6        1.0  0.71250  0.95370  0.45300  1.0000 -0.0463963648
C   C7        1.0  0.04630  0.28750  0.95300  1.0000 -0.0463963648
C   C8        1.0  0.28750  0.04630  0.54700  1.0000 -0.0463963648
C   C9        1.0  0.93860  0.63860  0.00600  1.0000 -0.080350987
C   C10       1.0  0.63860  0.93860  0.49400  1.0000 -0.080350987
C   C11       1.0  0.06140  0.36140  0.99400  1.0000 -0.080350987
C   C12       1.0  0.36140  0.06140  0.50600  1.0000 -0.080350987
C   C13       1.0  0.94560  0.55280  0.07900  1.0000 -0.1572678381
C   C14       1.0  0.55280  0.94560  0.42100  1.0000 -0.1572678381
C   C15       1.0  0.05440  0.44720  0.92100  1.0000 -0.1572678381
C   C16       1.0  0.44720  0.05440  0.57900  1.0000 -0.1572678381
C   C17       1.0  0.96840  0.54100  0.20600  1.0000 0.0790836147
C   C18       1.0  0.54100  0.96840  0.29400  1.0000 0.0790836147
C   C19       1.0  0.03160  0.45900  0.79400  1.0000 0.0790836147
C   C20       1.0  0.45900  0.03160  0.70600  1.0000 0.0790836147
C   C21       1.0  0.98580  0.61600  0.24800  1.0000 -0.1427135163
C   C22       1.0  0.61600  0.98580  0.25200  1.0000 -0.1427135163
C   C23       1.0  0.01420  0.38400  0.75200  1.0000 -0.1427135163
C   C24       1.0  0.38400  0.01420  0.74800  1.0000 -0.1427135163
C   C25       1.0  0.97690  0.70170  0.17300  1.0000 -0.0956736747
C   C26       1.0  0.70170  0.97690  0.32700  1.0000 -0.0956736747
C   C27       1.0  0.02310  0.29830  0.82700  1.0000 -0.0956736747
C   C28       1.0  0.29830  0.02310  0.67300  1.0000 -0.0891152142
C   C29       1.0  0.97800  0.44900  0.28700  1.0000 0.0790836147
C   C30       1.0  0.44900  0.97800  0.21300  1.0000 0.0790836147
C   C31       1.0  0.02200  0.55100  0.71300  1.0000 0.0790836147
C   C32       1.0  0.55100  0.02200  0.78700  1.0000 0.0790836147
C   C33       1.0  0.92490  0.37690  0.25800  1.0000 -0.1546202296
C   C34       1.0  0.37690  0.92490  0.24200  1.0000 -0.1572678381
C   C35       1.0  0.07510  0.62310  0.74200  1.0000 -0.1546202296
C   C36       1.0  0.62310  0.07510  0.75800  1.0000 -0.1572678381
C   C37       1.0  0.93740  0.29140  0.33800  1.0000 -0.0891152142
C   C38       1.0  0.29140  0.93740  0.16200  1.0000 -0.0891152142
C   C39       1.0  0.06260  0.70860  0.66200  1.0000 -0.0891152142
C   C40       1.0  0.70860  0.06260  0.83800  1.0000 -0.0891152142
C   C41       1.0  0.99880  0.27900  0.44700  1.0000 -0.0463963648
C   C42       1.0  0.27900  0.99880  0.05300  1.0000 -0.0463963648
C   C43       1.0  0.00120  0.72100  0.55300  1.0000 -0.0463963648
C   C44       1.0  0.72100  0.00120  0.94700  1.0000 -0.0463963648
C   C45       1.0  0.05000  0.35000  0.47500  1.0000 -0.0891152142
C   C46       1.0  0.35000  0.05000  0.02500  1.0000 -0.0891152142
C   C47       1.0  0.95000  0.65000  0.52500  1.0000 -0.0891152142
C   C48       1.0  0.65000  0.95000  0.97500  1.0000 -0.0891152142
C   C49       1.0  0.04210  0.43570  0.40000  1.0000 -0.1657497579
C   C50       1.0  0.43570  0.04210  0.10000  1.0000 -0.1657497579
C   C51       1.0  0.95790  0.56430  0.60000  1.0000 -0.1657497579
C   C52       1.0  0.56430  0.95790  0.90000  1.0000 -0.1657497579
C   C53       1.0  0.00730  0.18870  0.53200  1.0000 0.5954503423
C   C54       1.0  0.18870  0.00730  0.96800  1.0000 0.5954503423
C   C55       1.0  0.99270  0.81130  0.46800  1.0000 0.5954503423
C   C56       1.0  0.81130  0.99270  0.03200  1.0000 0.5954503423
O   O1        1.0  0.96180  0.03740  0.81450  1.0000 -0.8651853794
O   O2        1.0  0.03740  0.96180  0.68550  1.0000 -0.8647195691
O   O3        1.0  0.03820  0.96260  0.18550  1.0000 -0.8651853794
O   O4        1.0  0.96260  0.03820  0.31450  1.0000 -0.8647195691
O   O5        1.0  0.94140  0.80940  0.85600  1.0000 -0.5863766813
O   O6        1.0  0.80940  0.94140  0.64400  1.0000 -0.5863766813
O   O7        1.0  0.05860  0.19060  0.14400  1.0000 -0.5863766813
O   O8        1.0  0.19060  0.05860  0.35600  1.0000 -0.5863766813
O   O9        1.0  0.95150  0.86890  0.01300  1.0000 -0.530588805
O   O10       1.0  0.86890  0.95150  0.48700  1.0000 -0.530588805
O   O11       1.0  0.04850  0.13110  0.98700  1.0000 -0.530588805
O   O12       1.0  0.13110  0.04850  0.51300  1.0000 -0.530588805
O   O13       1.0  0.06590  0.18230  0.63390  1.0000 -0.5468366438
O   O14       1.0  0.18230  0.06590  0.86610  1.0000 -0.5468366438
O   O15       1.0  0.93410  0.81770  0.36610  1.0000 -0.5468366438
O   O16       1.0  0.81770  0.93410  0.13390  1.0000 -0.5468366438
O   O17       1.0  0.96260  0.12400  0.50280  1.0000 -0.563104301
O   O18       1.0  0.12400  0.96260  0.99720  1.0000 -0.563104301
O   O19       1.0  0.03740  0.87600  0.49720  1.0000 -0.563104301
O   O20       1.0  0.87600  0.03740  0.00280  1.0000 -0.563104301
