# DDEC6 charges by PACMAN v1.1 (https://github.com/mtap-research/PACMAN-charge/)
data_2015[Zn][nan]3[ASR]50
_chemical_formula_sum              "Zn16 H80 C96 N64 O32"
_cell_length_a       13.393
_cell_length_b       13.393
_cell_length_c       27.338
_cell_angle_alpha    90
_cell_angle_beta     90
_cell_angle_gamma    90

_symmetry_space_group_name_H-M    "P 1"
_symmetry_Int_Tables_number       1

loop_
  _symmetry_equiv_pos_as_xyz
  'x, y, z'

loop_
  _atom_site_type_symbol
  _atom_site_label
  _atom_site_symmetry_multiplicity
  _atom_site_fract_x
  _atom_site_fract_y
  _atom_site_fract_z
  _atom_site_occupancy
  _atom_site_charge
Zn  Zn1       1.0  0.16117  0.77289  0.44664  1.0000 0.6645946757
Zn  Zn2       1.0  0.83883  0.22711  0.44664  1.0000 0.6645946757
Zn  Zn3       1.0  0.66117  0.72711  0.05336  1.0000 0.6645946757
Zn  Zn4       1.0  0.33883  0.27289  0.05336  1.0000 0.6645946757
Zn  Zn5       1.0  0.22711  0.83883  0.05336  1.0000 0.6645946757
Zn  Zn6       1.0  0.77289  0.16117  0.05336  1.0000 0.6645946757
Zn  Zn7       1.0  0.27289  0.33883  0.44664  1.0000 0.6645946757
Zn  Zn8       1.0  0.72711  0.66117  0.44664  1.0000 0.6645946757
Zn  Zn9       1.0  0.33883  0.72711  0.55336  1.0000 0.6645946757
Zn  Zn10      1.0  0.66117  0.27289  0.55336  1.0000 0.6645946757
Zn  Zn11      1.0  0.83883  0.77289  0.94664  1.0000 0.6645946757
Zn  Zn12      1.0  0.16117  0.22711  0.94664  1.0000 0.6645946757
Zn  Zn13      1.0  0.27289  0.66117  0.94664  1.0000 0.6645946757
Zn  Zn14      1.0  0.72711  0.33883  0.94664  1.0000 0.6645946757
Zn  Zn15      1.0  0.22711  0.16117  0.55336  1.0000 0.6645946757
Zn  Zn16      1.0  0.77289  0.83883  0.55336  1.0000 0.6645946757
H   H1        1.0  0.35350  0.95240  0.19340  1.0000 0.3078060106
H   H2        1.0  0.64650  0.04760  0.19340  1.0000 0.3078060106
H   H3        1.0  0.85350  0.54760  0.30660  1.0000 0.3078060106
H   H4        1.0  0.14650  0.45240  0.30660  1.0000 0.3078060106
H   H5        1.0  0.04760  0.64650  0.30660  1.0000 0.3078060106
H   H6        1.0  0.95240  0.35350  0.30660  1.0000 0.3078060106
H   H7        1.0  0.45240  0.14650  0.19340  1.0000 0.3078060106
H   H8        1.0  0.54760  0.85350  0.19340  1.0000 0.3078060106
H   H9        1.0  0.14650  0.54760  0.80660  1.0000 0.3078060106
H   H10       1.0  0.85350  0.45240  0.80660  1.0000 0.3078060106
H   H11       1.0  0.64650  0.95240  0.69340  1.0000 0.3078060106
H   H12       1.0  0.35350  0.04760  0.69340  1.0000 0.3078060106
H   H13       1.0  0.45240  0.85350  0.69340  1.0000 0.3078060106
H   H14       1.0  0.54760  0.14650  0.69340  1.0000 0.3078060106
H   H15       1.0  0.04760  0.35350  0.80660  1.0000 0.3078060106
H   H16       1.0  0.95240  0.64650  0.80660  1.0000 0.3078060106
H   H17       1.0  0.37160  0.97180  0.24630  1.0000 0.2659760781
H   H18       1.0  0.62840  0.02820  0.24630  1.0000 0.2659760781
H   H19       1.0  0.87160  0.52820  0.25370  1.0000 0.2659760781
H   H20       1.0  0.12840  0.47180  0.25370  1.0000 0.2659760781
H   H21       1.0  0.02820  0.62840  0.25370  1.0000 0.2659760781
H   H22       1.0  0.97180  0.37160  0.25370  1.0000 0.2659760781
H   H23       1.0  0.47180  0.12840  0.24630  1.0000 0.2659760781
H   H24       1.0  0.52820  0.87160  0.24630  1.0000 0.2659760781
H   H25       1.0  0.12840  0.52820  0.75370  1.0000 0.2659760781
H   H26       1.0  0.87160  0.47180  0.75370  1.0000 0.2659760781
H   H27       1.0  0.62840  0.97180  0.74630  1.0000 0.2659760781
H   H28       1.0  0.37160  0.02820  0.74630  1.0000 0.2659760781
H   H29       1.0  0.47180  0.87160  0.74630  1.0000 0.2659760781
H   H30       1.0  0.52820  0.12840  0.74630  1.0000 0.2659760781
H   H31       1.0  0.02820  0.37160  0.75370  1.0000 0.2659760781
H   H32       1.0  0.97180  0.62840  0.75370  1.0000 0.2659760781
H   H33       1.0  0.00160  0.85250  0.52490  1.0000 0.1105326519
H   H34       1.0  0.99840  0.14750  0.52490  1.0000 0.1105326519
H   H35       1.0  0.50160  0.64750  0.97510  1.0000 0.1105326519
H   H36       1.0  0.49840  0.35250  0.97510  1.0000 0.1105326519
H   H37       1.0  0.14750  0.99840  0.97510  1.0000 0.1105326519
H   H38       1.0  0.85250  0.00160  0.97510  1.0000 0.1105326519
H   H39       1.0  0.35250  0.49840  0.52490  1.0000 0.1105326519
H   H40       1.0  0.64750  0.50160  0.52490  1.0000 0.1105326519
H   H41       1.0  0.49840  0.64750  0.47510  1.0000 0.1105326519
H   H42       1.0  0.50160  0.35250  0.47510  1.0000 0.1105326519
H   H43       1.0  0.99840  0.85250  0.02490  1.0000 0.1105326519
H   H44       1.0  0.00160  0.14750  0.02490  1.0000 0.1105326519
H   H45       1.0  0.35250  0.50160  0.02490  1.0000 0.1105326519
H   H46       1.0  0.64750  0.49840  0.02490  1.0000 0.1105326519
H   H47       1.0  0.14750  0.00160  0.47510  1.0000 0.1105326519
H   H48       1.0  0.85250  0.99840  0.47510  1.0000 0.1105326519
H   H49       1.0  0.95280  0.67510  0.41490  1.0000 0.128009643
H   H50       1.0  0.04720  0.32490  0.41490  1.0000 0.128009643
H   H51       1.0  0.45280  0.82490  0.08510  1.0000 0.128009643
H   H52       1.0  0.54720  0.17510  0.08510  1.0000 0.128009643
H   H53       1.0  0.32490  0.04720  0.08510  1.0000 0.128009643
H   H54       1.0  0.67510  0.95280  0.08510  1.0000 0.128009643
H   H55       1.0  0.17510  0.54720  0.41490  1.0000 0.128009643
H   H56       1.0  0.82490  0.45280  0.41490  1.0000 0.128009643
H   H57       1.0  0.54720  0.82490  0.58510  1.0000 0.128009643
H   H58       1.0  0.45280  0.17510  0.58510  1.0000 0.128009643
H   H59       1.0  0.04720  0.67510  0.91490  1.0000 0.128009643
H   H60       1.0  0.95280  0.32490  0.91490  1.0000 0.128009643
H   H61       1.0  0.17510  0.45280  0.91490  1.0000 0.128009643
H   H62       1.0  0.82490  0.54720  0.91490  1.0000 0.128009643
H   H63       1.0  0.32490  0.95280  0.58510  1.0000 0.128009643
H   H64       1.0  0.67510  0.04720  0.58510  1.0000 0.128009643
H   H65       1.0  0.28450  0.89170  0.30850  1.0000 0.128009643
H   H66       1.0  0.71550  0.10830  0.30850  1.0000 0.128009643
H   H67       1.0  0.78450  0.60830  0.19150  1.0000 0.128009643
H   H68       1.0  0.21550  0.39170  0.19150  1.0000 0.128009643
H   H69       1.0  0.10830  0.71550  0.19150  1.0000 0.128009643
H   H70       1.0  0.89170  0.28450  0.19150  1.0000 0.128009643
H   H71       1.0  0.39170  0.21550  0.30850  1.0000 0.128009643
H   H72       1.0  0.60830  0.78450  0.30850  1.0000 0.128009643
H   H73       1.0  0.21550  0.60830  0.69150  1.0000 0.128009643
H   H74       1.0  0.78450  0.39170  0.69150  1.0000 0.128009643
H   H75       1.0  0.71550  0.89170  0.80850  1.0000 0.128009643
H   H76       1.0  0.28450  0.10830  0.80850  1.0000 0.128009643
H   H77       1.0  0.39170  0.78450  0.80850  1.0000 0.128009643
H   H78       1.0  0.60830  0.21550  0.80850  1.0000 0.128009643
H   H79       1.0  0.10830  0.28450  0.69150  1.0000 0.128009643
H   H80       1.0  0.89170  0.71550  0.69150  1.0000 0.128009643
C   C1        1.0  0.97000  0.81070  0.50249  1.0000 0.128009643
C   C2        1.0  0.03000  0.18930  0.50249  1.0000 0.128009643
C   C3        1.0  0.47000  0.68930  0.99751  1.0000 0.128009643
C   C4        1.0  0.53000  0.31070  0.99751  1.0000 0.128009643
C   C5        1.0  0.18930  0.03000  0.99751  1.0000 0.128009643
C   C6        1.0  0.81070  0.97000  0.99751  1.0000 0.128009643
C   C7        1.0  0.31070  0.53000  0.50249  1.0000 0.128009643
C   C8        1.0  0.68930  0.47000  0.50249  1.0000 0.128009643
C   C9        1.0  0.53000  0.68930  0.49751  1.0000 0.128009643
C   C10       1.0  0.47000  0.31070  0.49751  1.0000 0.128009643
C   C11       1.0  0.03000  0.81070  0.00249  1.0000 0.128009643
C   C12       1.0  0.97000  0.18930  0.00249  1.0000 0.128009643
C   C13       1.0  0.31070  0.47000  0.00249  1.0000 0.128009643
C   C14       1.0  0.68930  0.53000  0.00249  1.0000 0.128009643
C   C15       1.0  0.18930  0.97000  0.49751  1.0000 0.128009643
C   C16       1.0  0.81070  0.03000  0.49751  1.0000 0.128009643
C   C17       1.0  0.94360  0.71420  0.44268  1.0000 0.1609536282
C   C18       1.0  0.05640  0.28580  0.44268  1.0000 0.1609536282
C   C19       1.0  0.44360  0.78580  0.05732  1.0000 0.1609536282
C   C20       1.0  0.55640  0.21420  0.05732  1.0000 0.1609536282
C   C21       1.0  0.28580  0.05640  0.05732  1.0000 0.1609536282
C   C22       1.0  0.71420  0.94360  0.05732  1.0000 0.1609536282
C   C23       1.0  0.21420  0.55640  0.44268  1.0000 0.1609536282
C   C24       1.0  0.78580  0.44360  0.44268  1.0000 0.1609536282
C   C25       1.0  0.55640  0.78580  0.55732  1.0000 0.1609536282
C   C26       1.0  0.44360  0.21420  0.55732  1.0000 0.1609536282
C   C27       1.0  0.05640  0.71420  0.94268  1.0000 0.1609536282
C   C28       1.0  0.94360  0.28580  0.94268  1.0000 0.1609536282
C   C29       1.0  0.21420  0.44360  0.94268  1.0000 0.1609536282
C   C30       1.0  0.78580  0.55640  0.94268  1.0000 0.1609536282
C   C31       1.0  0.28580  0.94360  0.55732  1.0000 0.1609536282
C   C32       1.0  0.71420  0.05640  0.55732  1.0000 0.1609536282
C   C33       1.0  0.16250  0.76660  0.35288  1.0000 0.5614630834
C   C34       1.0  0.83750  0.23340  0.35288  1.0000 0.5614630834
C   C35       1.0  0.66250  0.73340  0.14712  1.0000 0.5614630834
C   C36       1.0  0.33750  0.26660  0.14712  1.0000 0.5614630834
C   C37       1.0  0.23340  0.83750  0.14712  1.0000 0.5614630834
C   C38       1.0  0.76660  0.16250  0.14712  1.0000 0.5614630834
C   C39       1.0  0.26660  0.33750  0.35288  1.0000 0.5614630834
C   C40       1.0  0.73340  0.66250  0.35288  1.0000 0.5614630834
C   C41       1.0  0.33750  0.73340  0.64712  1.0000 0.5614630834
C   C42       1.0  0.66250  0.26660  0.64712  1.0000 0.5614630834
C   C43       1.0  0.83750  0.76660  0.85288  1.0000 0.5614630834
C   C44       1.0  0.16250  0.23340  0.85288  1.0000 0.5614630834
C   C45       1.0  0.26660  0.66250  0.85288  1.0000 0.5614630834
C   C46       1.0  0.73340  0.33750  0.85288  1.0000 0.5614630834
C   C47       1.0  0.23340  0.16250  0.64712  1.0000 0.5614630834
C   C48       1.0  0.76660  0.83750  0.64712  1.0000 0.5614630834
C   C49       1.0  0.17970  0.78530  0.29994  1.0000 -0.1152262583
C   C50       1.0  0.82030  0.21470  0.29994  1.0000 -0.1145941361
C   C51       1.0  0.67970  0.71470  0.20006  1.0000 -0.1152262583
C   C52       1.0  0.32030  0.28530  0.20006  1.0000 -0.1145941361
C   C53       1.0  0.21470  0.82030  0.20006  1.0000 -0.1152262583
C   C54       1.0  0.78530  0.17970  0.20006  1.0000 -0.1145941361
C   C55       1.0  0.28530  0.32030  0.29994  1.0000 -0.1145941361
C   C56       1.0  0.71470  0.67970  0.29994  1.0000 -0.1152262583
C   C57       1.0  0.32030  0.71470  0.70006  1.0000 -0.1152262583
C   C58       1.0  0.67970  0.28530  0.70006  1.0000 -0.1145941361
C   C59       1.0  0.82030  0.78530  0.79994  1.0000 -0.1152262583
C   C60       1.0  0.17970  0.21470  0.79994  1.0000 -0.1145941361
C   C61       1.0  0.28530  0.67970  0.79994  1.0000 -0.1152262583
C   C62       1.0  0.71470  0.32030  0.79994  1.0000 -0.1145941361
C   C63       1.0  0.21470  0.17970  0.70006  1.0000 -0.1145941361
C   C64       1.0  0.78530  0.82030  0.70006  1.0000 -0.1152262583
C   C65       1.0  0.24960  0.85560  0.28500  1.0000 -0.2187116144
C   C66       1.0  0.75040  0.14440  0.28500  1.0000 -0.2187116144
C   C67       1.0  0.74960  0.64440  0.21500  1.0000 -0.2187116144
C   C68       1.0  0.25040  0.35560  0.21500  1.0000 -0.2187116144
C   C69       1.0  0.14440  0.75040  0.21500  1.0000 -0.2187116144
C   C70       1.0  0.85560  0.24960  0.21500  1.0000 -0.2187116144
C   C71       1.0  0.35560  0.25040  0.28500  1.0000 -0.2187116144
C   C72       1.0  0.64440  0.74960  0.28500  1.0000 -0.2187116144
C   C73       1.0  0.25040  0.64440  0.71500  1.0000 -0.2187116144
C   C74       1.0  0.74960  0.35560  0.71500  1.0000 -0.2187116144
C   C75       1.0  0.75040  0.85560  0.78500  1.0000 -0.2187116144
C   C76       1.0  0.24960  0.14440  0.78500  1.0000 -0.2187116144
C   C77       1.0  0.35560  0.74960  0.78500  1.0000 -0.2187116144
C   C78       1.0  0.64440  0.25040  0.78500  1.0000 -0.2187116144
C   C79       1.0  0.14440  0.24960  0.71500  1.0000 -0.2187116144
C   C80       1.0  0.85560  0.75040  0.71500  1.0000 -0.2187116144
C   C81       1.0  0.26880  0.87340  0.23533  1.0000 0.2521932342
C   C82       1.0  0.73120  0.12660  0.23533  1.0000 0.2521932342
C   C83       1.0  0.76880  0.62660  0.26467  1.0000 0.2521932342
C   C84       1.0  0.23120  0.37340  0.26467  1.0000 0.2521932342
C   C85       1.0  0.12660  0.73120  0.26467  1.0000 0.2521932342
C   C86       1.0  0.87340  0.26880  0.26467  1.0000 0.2521932342
C   C87       1.0  0.37340  0.23120  0.23533  1.0000 0.2521932342
C   C88       1.0  0.62660  0.76880  0.23533  1.0000 0.2521932342
C   C89       1.0  0.23120  0.62660  0.76467  1.0000 0.2521932342
C   C90       1.0  0.76880  0.37340  0.76467  1.0000 0.2521932342
C   C91       1.0  0.73120  0.87340  0.73533  1.0000 0.2521932342
C   C92       1.0  0.26880  0.12660  0.73533  1.0000 0.2521932342
C   C93       1.0  0.37340  0.76880  0.73533  1.0000 0.2521932342
C   C94       1.0  0.62660  0.23120  0.73533  1.0000 0.2521932342
C   C95       1.0  0.12660  0.26880  0.76467  1.0000 0.2521932342
C   C96       1.0  0.87340  0.73120  0.76467  1.0000 0.2521932342
N   N1        1.0  0.01720  0.76610  0.46469  1.0000 -0.3241818591
N   N2        1.0  0.98280  0.23390  0.46469  1.0000 -0.3241818591
N   N3        1.0  0.51720  0.73390  0.03531  1.0000 -0.3253758296
N   N4        1.0  0.48280  0.26610  0.03531  1.0000 -0.3253758296
N   N5        1.0  0.23390  0.98280  0.03531  1.0000 -0.3253758296
N   N6        1.0  0.76610  0.01720  0.03531  1.0000 -0.3253758296
N   N7        1.0  0.26610  0.48280  0.46469  1.0000 -0.3241818591
N   N8        1.0  0.73390  0.51720  0.46469  1.0000 -0.3241818591
N   N9        1.0  0.48280  0.73390  0.53531  1.0000 -0.3253758296
N   N10       1.0  0.51720  0.26610  0.53531  1.0000 -0.3253758296
N   N11       1.0  0.98280  0.76610  0.96469  1.0000 -0.3253758296
N   N12       1.0  0.01720  0.23390  0.96469  1.0000 -0.3253758296
N   N13       1.0  0.26610  0.51720  0.96469  1.0000 -0.3253758296
N   N14       1.0  0.73390  0.48280  0.96469  1.0000 -0.3253758296
N   N15       1.0  0.23390  0.01720  0.53531  1.0000 -0.3253758296
N   N16       1.0  0.76610  0.98280  0.53531  1.0000 -0.3253758296
N   N17       1.0  0.87400  0.78830  0.50405  1.0000 -0.1979155733
N   N18       1.0  0.12600  0.21170  0.50405  1.0000 -0.1979155733
N   N19       1.0  0.37400  0.71170  0.99595  1.0000 -0.1979155733
N   N20       1.0  0.62600  0.28830  0.99595  1.0000 -0.1979155733
N   N21       1.0  0.21170  0.12600  0.99595  1.0000 -0.1979155733
N   N22       1.0  0.78830  0.87400  0.99595  1.0000 -0.1979155733
N   N23       1.0  0.28830  0.62600  0.50405  1.0000 -0.1979155733
N   N24       1.0  0.71170  0.37400  0.50405  1.0000 -0.1979155733
N   N25       1.0  0.62600  0.71170  0.49595  1.0000 -0.1979155733
N   N26       1.0  0.37400  0.28830  0.49595  1.0000 -0.1979155733
N   N27       1.0  0.12600  0.78830  0.00405  1.0000 -0.1979155733
N   N28       1.0  0.87400  0.21170  0.00405  1.0000 -0.1979155733
N   N29       1.0  0.28830  0.37400  0.00405  1.0000 -0.1979155733
N   N30       1.0  0.71170  0.62600  0.00405  1.0000 -0.1979155733
N   N31       1.0  0.21170  0.87400  0.49595  1.0000 -0.1979155733
N   N32       1.0  0.78830  0.12600  0.49595  1.0000 -0.1979155733
N   N33       1.0  0.85730  0.72530  0.46508  1.0000 -0.1979155733
N   N34       1.0  0.14270  0.27470  0.46508  1.0000 -0.1979155733
N   N35       1.0  0.35730  0.77470  0.03492  1.0000 -0.1979155733
N   N36       1.0  0.64270  0.22530  0.03492  1.0000 -0.1979155733
N   N37       1.0  0.27470  0.14270  0.03492  1.0000 -0.1979155733
N   N38       1.0  0.72530  0.85730  0.03492  1.0000 -0.1979155733
N   N39       1.0  0.22530  0.64270  0.46508  1.0000 -0.1979155733
N   N40       1.0  0.77470  0.35730  0.46508  1.0000 -0.1979155733
N   N41       1.0  0.64270  0.77470  0.53492  1.0000 -0.1979155733
N   N42       1.0  0.35730  0.22530  0.53492  1.0000 -0.1979155733
N   N43       1.0  0.14270  0.72530  0.96508  1.0000 -0.1979155733
N   N44       1.0  0.85730  0.27470  0.96508  1.0000 -0.1979155733
N   N45       1.0  0.22530  0.35730  0.96508  1.0000 -0.1979155733
N   N46       1.0  0.77470  0.64270  0.96508  1.0000 -0.1979155733
N   N47       1.0  0.27470  0.85730  0.53492  1.0000 -0.1979155733
N   N48       1.0  0.72530  0.14270  0.53492  1.0000 -0.1979155733
N   N49       1.0  0.33990  0.94070  0.22360  1.0000 -0.5636120781
N   N50       1.0  0.66010  0.05930  0.22360  1.0000 -0.5636120781
N   N51       1.0  0.83990  0.55930  0.27640  1.0000 -0.5636120781
N   N52       1.0  0.16010  0.44070  0.27640  1.0000 -0.5636120781
N   N53       1.0  0.05930  0.66010  0.27640  1.0000 -0.5636120781
N   N54       1.0  0.94070  0.33990  0.27640  1.0000 -0.5636120781
N   N55       1.0  0.44070  0.16010  0.22360  1.0000 -0.5636120781
N   N56       1.0  0.55930  0.83990  0.22360  1.0000 -0.5636120781
N   N57       1.0  0.16010  0.55930  0.77640  1.0000 -0.5636120781
N   N58       1.0  0.83990  0.44070  0.77640  1.0000 -0.5636120781
N   N59       1.0  0.66010  0.94070  0.72360  1.0000 -0.5636120781
N   N60       1.0  0.33990  0.05930  0.72360  1.0000 -0.5636120781
N   N61       1.0  0.44070  0.83990  0.72360  1.0000 -0.5636120781
N   N62       1.0  0.55930  0.16010  0.72360  1.0000 -0.5636120781
N   N63       1.0  0.05930  0.33990  0.77640  1.0000 -0.5636120781
N   N64       1.0  0.94070  0.66010  0.77640  1.0000 -0.5636120781
O   O1        1.0  0.11060  0.69560  0.36719  1.0000 -0.5510333075
O   O2        1.0  0.88940  0.30440  0.36719  1.0000 -0.5510333075
O   O3        1.0  0.61060  0.80440  0.13281  1.0000 -0.5510333075
O   O4        1.0  0.38940  0.19560  0.13281  1.0000 -0.5510333075
O   O5        1.0  0.30440  0.88940  0.13281  1.0000 -0.5510333075
O   O6        1.0  0.69560  0.11060  0.13281  1.0000 -0.5510333075
O   O7        1.0  0.19560  0.38940  0.36719  1.0000 -0.5510333075
O   O8        1.0  0.80440  0.61060  0.36719  1.0000 -0.5510333075
O   O9        1.0  0.38940  0.80440  0.63281  1.0000 -0.5510333075
O   O10       1.0  0.61060  0.19560  0.63281  1.0000 -0.5510333075
O   O11       1.0  0.88940  0.69560  0.86719  1.0000 -0.5510333075
O   O12       1.0  0.11060  0.30440  0.86719  1.0000 -0.5510333075
O   O13       1.0  0.19560  0.61060  0.86719  1.0000 -0.5510333075
O   O14       1.0  0.80440  0.38940  0.86719  1.0000 -0.5510333075
O   O15       1.0  0.30440  0.11060  0.63281  1.0000 -0.5510333075
O   O16       1.0  0.69560  0.88940  0.63281  1.0000 -0.5510333075
O   O17       1.0  0.20330  0.82670  0.38332  1.0000 -0.5383726104
O   O18       1.0  0.79670  0.17330  0.38332  1.0000 -0.5383726104
O   O19       1.0  0.70330  0.67330  0.11668  1.0000 -0.5383726104
O   O20       1.0  0.29670  0.32670  0.11668  1.0000 -0.5383726104
O   O21       1.0  0.17330  0.79670  0.11668  1.0000 -0.5383726104
O   O22       1.0  0.82670  0.20330  0.11668  1.0000 -0.5383726104
O   O23       1.0  0.32670  0.29670  0.38332  1.0000 -0.5383726104
O   O24       1.0  0.67330  0.70330  0.38332  1.0000 -0.5383726104
O   O25       1.0  0.29670  0.67330  0.61668  1.0000 -0.5383726104
O   O26       1.0  0.70330  0.32670  0.61668  1.0000 -0.5383726104
O   O27       1.0  0.79670  0.82670  0.88332  1.0000 -0.5383726104
O   O28       1.0  0.20330  0.17330  0.88332  1.0000 -0.5383726104
O   O29       1.0  0.32670  0.70330  0.88332  1.0000 -0.5383726104
O   O30       1.0  0.67330  0.29670  0.88332  1.0000 -0.5383726104
O   O31       1.0  0.17330  0.20330  0.61668  1.0000 -0.5383726104
O   O32       1.0  0.82670  0.79670  0.61668  1.0000 -0.5383726104
