# DDEC6 charges by PACMAN v1.1 (https://github.com/mtap-research/PACMAN-charge/)
data_2015[Tb][nan]3[ASR]11
_chemical_formula_sum              "Tb28 H212 C340 O140"
_cell_length_a       24.6579
_cell_length_b       20.65
_cell_length_c       24.9448
_cell_angle_alpha    90
_cell_angle_beta     99.497
_cell_angle_gamma    90

_symmetry_space_group_name_H-M    "P 1"
_symmetry_Int_Tables_number       1

loop_
  _symmetry_equiv_pos_as_xyz
  'x, y, z'

loop_
  _atom_site_type_symbol
  _atom_site_label
  _atom_site_symmetry_multiplicity
  _atom_site_fract_x
  _atom_site_fract_y
  _atom_site_fract_z
  _atom_site_occupancy
  _atom_site_charge
Tb  Tb1       1.0  0.21118  0.46405  0.12435  1.0000 1.971929398
Tb  Tb2       1.0  0.78882  0.96405  0.37565  1.0000 1.971929398
Tb  Tb3       1.0  0.78882  0.53595  0.87565  1.0000 1.971929398
Tb  Tb4       1.0  0.21118  0.03595  0.62435  1.0000 1.971929398
Tb  Tb5       1.0  0.15805  0.62392  0.16416  1.0000 2.0448923973
Tb  Tb6       1.0  0.84195  0.12392  0.33584  1.0000 2.0456856159
Tb  Tb7       1.0  0.84195  0.37608  0.83584  1.0000 2.0456856159
Tb  Tb8       1.0  0.15805  0.87608  0.66416  1.0000 2.0448923973
Tb  Tb9       1.0  0.08653  0.46578  0.19285  1.0000 2.1242988972
Tb  Tb10      1.0  0.91347  0.96578  0.30715  1.0000 2.1242988972
Tb  Tb11      1.0  0.91347  0.53422  0.80715  1.0000 2.1242988972
Tb  Tb12      1.0  0.08653  0.03422  0.69285  1.0000 2.1242988972
Tb  Tb13      1.0  0.22817  0.50556  0.27681  1.0000 2.1927081017
Tb  Tb14      1.0  0.77183  0.00556  0.22319  1.0000 2.1927081017
Tb  Tb15      1.0  0.77183  0.49444  0.72319  1.0000 2.1927081017
Tb  Tb16      1.0  0.22817  0.99444  0.77681  1.0000 2.1927081017
Tb  Tb17      1.0  0.31787  0.54892  0.41552  1.0000 2.1015300421
Tb  Tb18      1.0  0.68213  0.04892  0.08448  1.0000 2.1015300421
Tb  Tb19      1.0  0.68213  0.45108  0.58448  1.0000 2.1015300421
Tb  Tb20      1.0  0.31787  0.95108  0.91552  1.0000 2.1015300421
Tb  Tb21      1.0  0.34225  0.38964  0.34284  1.0000 2.1015300421
Tb  Tb22      1.0  0.65775  0.88964  0.15716  1.0000 2.1015300421
Tb  Tb23      1.0  0.65775  0.61036  0.65716  1.0000 2.1015300421
Tb  Tb24      1.0  0.34225  0.11036  0.84284  1.0000 2.1015300421
Tb  Tb25      1.0  0.38348  0.54823  0.29212  1.0000 2.0767887501
Tb  Tb26      1.0  0.61652  0.04823  0.20788  1.0000 2.0767887501
Tb  Tb27      1.0  0.61652  0.45177  0.70788  1.0000 2.0767887501
Tb  Tb28      1.0  0.38348  0.95177  0.79212  1.0000 2.0767887501
H   H1        1.0  0.41250  0.48690  0.39170  1.0000 0.3989812998
H   H2        1.0  0.58750  0.98690  0.10830  1.0000 0.3989812998
H   H3        1.0  0.58750  0.51310  0.60830  1.0000 0.3989812998
H   H4        1.0  0.41250  0.01310  0.89170  1.0000 0.3989812998
H   H5        1.0  0.29000  0.61410  0.31000  1.0000 0.3989812998
H   H6        1.0  0.71000  0.11410  0.19000  1.0000 0.3989812998
H   H7        1.0  0.71000  0.38590  0.69000  1.0000 0.3989812998
H   H8        1.0  0.29000  0.88590  0.81000  1.0000 0.3989812998
H   H9        1.0  0.25110  0.44410  0.38010  1.0000 0.3989812998
H   H10       1.0  0.74890  0.94410  0.11990  1.0000 0.3989812998
H   H11       1.0  0.74890  0.55590  0.61990  1.0000 0.3989812998
H   H12       1.0  0.25110  0.05590  0.88010  1.0000 0.3989812998
H   H13       1.0  0.31890  0.44500  0.23810  1.0000 0.3989812998
H   H14       1.0  0.68110  0.94500  0.26190  1.0000 0.3989812998
H   H15       1.0  0.68110  0.55500  0.76190  1.0000 0.3989812998
H   H16       1.0  0.31890  0.05500  0.73810  1.0000 0.3989812998
H   H17       1.0  0.12770  0.56720  0.25900  1.0000 0.3894297188
H   H18       1.0  0.87230  0.06720  0.24100  1.0000 0.3894297188
H   H19       1.0  0.87230  0.43280  0.74100  1.0000 0.3894297188
H   H20       1.0  0.12770  0.93280  0.75900  1.0000 0.3894297188
H   H21       1.0  0.19140  0.39570  0.21460  1.0000 0.3989812998
H   H22       1.0  0.80860  0.89570  0.28540  1.0000 0.3989812998
H   H23       1.0  0.80860  0.60430  0.78540  1.0000 0.3989812998
H   H24       1.0  0.19140  0.10430  0.71460  1.0000 0.3989812998
H   H25       1.0  0.26560  0.56580  0.18640  1.0000 0.3894297188
H   H26       1.0  0.73440  0.06580  0.31360  1.0000 0.3894297188
H   H27       1.0  0.73440  0.43420  0.81360  1.0000 0.3894297188
H   H28       1.0  0.26560  0.93420  0.68640  1.0000 0.3894297188
H   H29       1.0  0.10840  0.52340  0.09810  1.0000 0.4094574718
H   H30       1.0  0.89160  0.02340  0.40190  1.0000 0.4094574718
H   H31       1.0  0.89160  0.47660  0.90190  1.0000 0.4094574718
H   H32       1.0  0.10840  0.97660  0.59810  1.0000 0.4094574718
H   H33       1.0  0.26870  0.46140  0.54410  1.0000 0.1198981726
H   H34       1.0  0.73130  0.96140  0.95590  1.0000 0.1198981726
H   H35       1.0  0.73130  0.53860  0.45590  1.0000 0.1198981726
H   H36       1.0  0.26870  0.03860  0.04410  1.0000 0.1198981726
H   H37       1.0  0.22710  0.42190  0.61410  1.0000 0.1102429103
H   H38       1.0  0.77290  0.92190  0.88590  1.0000 0.1102429103
H   H39       1.0  0.77290  0.57810  0.38590  1.0000 0.1102429103
H   H40       1.0  0.22710  0.07810  0.11410  1.0000 0.1102429103
H   H41       1.0  0.25910  0.23730  0.56710  1.0000 0.1198981726
H   H42       1.0  0.74090  0.73730  0.93290  1.0000 0.1198981726
H   H43       1.0  0.74090  0.76270  0.43290  1.0000 0.1198981726
H   H44       1.0  0.25910  0.26270  0.06710  1.0000 0.1198981726
H   H45       1.0  0.30010  0.27990  0.49670  1.0000 0.1102429103
H   H46       1.0  0.69990  0.77990  0.00330  1.0000 0.1102429103
H   H47       1.0  0.69990  0.72010  0.50330  1.0000 0.1102429103
H   H48       1.0  0.30010  0.22010  0.99670  1.0000 0.1102429103
H   H49       1.0  0.28880  0.24320  0.67240  1.0000 0.1198981726
H   H50       1.0  0.71120  0.74320  0.82760  1.0000 0.1198981726
H   H51       1.0  0.71120  0.75680  0.32760  1.0000 0.1198981726
H   H52       1.0  0.28880  0.25680  0.17240  1.0000 0.1198981726
H   H53       1.0  0.17490  0.23030  0.77240  1.0000 0.1198981726
H   H54       1.0  0.82510  0.73030  0.72760  1.0000 0.1198981726
H   H55       1.0  0.82510  0.76970  0.22760  1.0000 0.1198981726
H   H56       1.0  0.17490  0.26970  0.27240  1.0000 0.1198981726
H   H57       1.0  0.14680  0.34400  0.63970  1.0000 0.1102429103
H   H58       1.0  0.85320  0.84400  0.86030  1.0000 0.1102429103
H   H59       1.0  0.85320  0.65600  0.36030  1.0000 0.1102429103
H   H60       1.0  0.14680  0.15600  0.13970  1.0000 0.1102429103
H   H61       1.0  0.11140  0.40940  0.71000  1.0000 0.1102429103
H   H62       1.0  0.88860  0.90940  0.79000  1.0000 0.1102429103
H   H63       1.0  0.88860  0.59060  0.29000  1.0000 0.1102429103
H   H64       1.0  0.11140  0.09060  0.21000  1.0000 0.1102429103
H   H65       1.0  0.03810  0.44790  0.75020  1.0000 0.1198981726
H   H66       1.0  0.96190  0.94790  0.74980  1.0000 0.1198981726
H   H67       1.0  0.96190  0.55210  0.24980  1.0000 0.1198981726
H   H68       1.0  0.03810  0.05210  0.25020  1.0000 0.1198981726
H   H69       1.0  0.00060  0.26340  0.78620  1.0000 0.1198981726
H   H70       1.0  0.99940  0.76340  0.71380  1.0000 0.1198981726
H   H71       1.0  0.99940  0.73660  0.21380  1.0000 0.1198981726
H   H72       1.0  0.00060  0.23660  0.28620  1.0000 0.1198981726
H   H73       1.0  0.07580  0.22870  0.74970  1.0000 0.1198981726
H   H74       1.0  0.92420  0.72870  0.75030  1.0000 0.1198981726
H   H75       1.0  0.92420  0.77130  0.25030  1.0000 0.1198981726
H   H76       1.0  0.07580  0.27130  0.24970  1.0000 0.1198981726
H   H77       1.0  0.10520  0.65260  0.31760  1.0000 0.1198981726
H   H78       1.0  0.89480  0.15260  0.18240  1.0000 0.1198981726
H   H79       1.0  0.89480  0.34740  0.68240  1.0000 0.1198981726
H   H80       1.0  0.10520  0.84740  0.81760  1.0000 0.1198981726
H   H81       1.0  0.02920  0.70800  0.34210  1.0000 0.1025547663
H   H82       1.0  0.97080  0.20800  0.15790  1.0000 0.1025547663
H   H83       1.0  0.97080  0.29200  0.65790  1.0000 0.1025547663
H   H84       1.0  0.02920  0.79200  0.84210  1.0000 0.1025547663
H   H85       1.0  0.08980  0.68440  0.50050  1.0000 0.1025547663
H   H86       1.0  0.91020  0.18440  0.99950  1.0000 0.1025547663
H   H87       1.0  0.91020  0.31560  0.49950  1.0000 0.1025547663
H   H88       1.0  0.08980  0.81560  0.00050  1.0000 0.1025547663
H   H89       1.0  0.16680  0.63090  0.47790  1.0000 0.1198981726
H   H90       1.0  0.83320  0.13090  0.02210  1.0000 0.1198981726
H   H91       1.0  0.83320  0.36910  0.52210  1.0000 0.1198981726
H   H92       1.0  0.16680  0.86910  0.97790  1.0000 0.1198981726
H   H93       1.0  0.97960  0.78640  0.37440  1.0000 0.1198981726
H   H94       1.0  0.02040  0.28640  0.12560  1.0000 0.1198981726
H   H95       1.0  0.02040  0.21360  0.62560  1.0000 0.1198981726
H   H96       1.0  0.97960  0.71360  0.87440  1.0000 0.1198981726
H   H97       1.0  0.86880  0.79000  0.47590  1.0000 0.1290179236
H   H98       1.0  0.13120  0.29000  0.02410  1.0000 0.1290179236
H   H99       1.0  0.13120  0.21000  0.52410  1.0000 0.1290179236
H   H100      1.0  0.86880  0.71000  0.97590  1.0000 0.1290179236
H   H101      1.0  0.00130  0.67260  0.50670  1.0000 0.1025547663
H   H102      1.0  0.99870  0.17260  0.99330  1.0000 0.1025547663
H   H103      1.0  0.99870  0.32740  0.49330  1.0000 0.1025547663
H   H104      1.0  0.00130  0.82740  0.00670  1.0000 0.1025547663
H   H105      1.0  0.83190  0.68540  0.51640  1.0000 0.1102429103
H   H106      1.0  0.16810  0.18540  0.98360  1.0000 0.1102429103
H   H107      1.0  0.16810  0.31460  0.48360  1.0000 0.1102429103
H   H108      1.0  0.83190  0.81460  0.01640  1.0000 0.1102429103
H   H109      1.0  0.80980  0.62630  0.59040  1.0000 0.1198981726
H   H110      1.0  0.19020  0.12630  0.90960  1.0000 0.1198981726
H   H111      1.0  0.19020  0.37370  0.40960  1.0000 0.1198981726
H   H112      1.0  0.80980  0.87370  0.09040  1.0000 0.1198981726
H   H113      1.0  0.96470  0.65070  0.67060  1.0000 0.1198981726
H   H114      1.0  0.03530  0.15070  0.82940  1.0000 0.1198981726
H   H115      1.0  0.03530  0.34930  0.32940  1.0000 0.1198981726
H   H116      1.0  0.96470  0.84930  0.17060  1.0000 0.1198981726
H   H117      1.0  0.98710  0.70540  0.59460  1.0000 0.1102429103
H   H118      1.0  0.01290  0.20540  0.90540  1.0000 0.1025547663
H   H119      1.0  0.01290  0.29460  0.40540  1.0000 0.1102429103
H   H120      1.0  0.98710  0.79460  0.09460  1.0000 0.1102429103
H   H121      1.0  0.32130  0.85110  0.61120  1.0000 0.1290179236
H   H122      1.0  0.67870  0.35110  0.88880  1.0000 0.1290179236
H   H123      1.0  0.67870  0.14890  0.38880  1.0000 0.1290179236
H   H124      1.0  0.32130  0.64890  0.11120  1.0000 0.1290179236
H   H125      1.0  0.33900  0.80990  0.52960  1.0000 0.1102429103
H   H126      1.0  0.66100  0.30990  0.97040  1.0000 0.1102429103
H   H127      1.0  0.66100  0.19010  0.47040  1.0000 0.1102429103
H   H128      1.0  0.33900  0.69010  0.02960  1.0000 0.1102429103
H   H129      1.0  0.49920  0.79250  0.59330  1.0000 0.1102429103
H   H130      1.0  0.50080  0.29250  0.90670  1.0000 0.1102429103
H   H131      1.0  0.50080  0.20750  0.40670  1.0000 0.1102429103
H   H132      1.0  0.49920  0.70750  0.09330  1.0000 0.1102429103
H   H133      1.0  0.48320  0.82940  0.67570  1.0000 0.1198981726
H   H134      1.0  0.51680  0.32940  0.82430  1.0000 0.1198981726
H   H135      1.0  0.51680  0.17060  0.32430  1.0000 0.1198981726
H   H136      1.0  0.48320  0.67060  0.17570  1.0000 0.1198981726
H   H137      1.0  0.36670  0.72770  0.47160  1.0000 0.1198981726
H   H138      1.0  0.63330  0.22770  0.02840  1.0000 0.1198981726
H   H139      1.0  0.63330  0.27230  0.52840  1.0000 0.1198981726
H   H140      1.0  0.36670  0.77230  0.97160  1.0000 0.1198981726
H   H141      1.0  0.47310  0.72870  0.36600  1.0000 0.1198981726
H   H142      1.0  0.52690  0.22870  0.13400  1.0000 0.1198981726
H   H143      1.0  0.52690  0.27130  0.63400  1.0000 0.1198981726
H   H144      1.0  0.47310  0.77130  0.86600  1.0000 0.1198981726
H   H145      1.0  0.50920  0.82800  0.50640  1.0000 0.1102429103
H   H146      1.0  0.49080  0.32800  0.99360  1.0000 0.1102429103
H   H147      1.0  0.49080  0.17200  0.49360  1.0000 0.1102429103
H   H148      1.0  0.50920  0.67200  0.00640  1.0000 0.1102429103
H   H149      1.0  0.52610  0.81410  0.33740  1.0000 0.1102429103
H   H150      1.0  0.47390  0.31410  0.16260  1.0000 0.1102429103
H   H151      1.0  0.47390  0.18590  0.66260  1.0000 0.1102429103
H   H152      1.0  0.52610  0.68590  0.83740  1.0000 0.1102429103
H   H153      1.0  0.61190  0.85450  0.31840  1.0000 0.1290179236
H   H154      1.0  0.38810  0.35450  0.18160  1.0000 0.1290179236
H   H155      1.0  0.38810  0.14550  0.68160  1.0000 0.1290179236
H   H156      1.0  0.61190  0.64550  0.81840  1.0000 0.1290179236
H   H157      1.0  0.67600  0.84240  0.47650  1.0000 0.1198981726
H   H158      1.0  0.32400  0.34240  0.02350  1.0000 0.1198981726
H   H159      1.0  0.32400  0.15760  0.52350  1.0000 0.1198981726
H   H160      1.0  0.67600  0.65760  0.97650  1.0000 0.1198981726
H   H161      1.0  0.59350  0.80450  0.49640  1.0000 0.1102429103
H   H162      1.0  0.40650  0.30450  0.00360  1.0000 0.1102429103
H   H163      1.0  0.40650  0.19550  0.50360  1.0000 0.1102429103
H   H164      1.0  0.59350  0.69550  0.99640  1.0000 0.1102429103
H   H165      1.0  0.52520  0.47340  0.23200  1.0000 0.1198981726
H   H166      1.0  0.47480  0.97340  0.26800  1.0000 0.1198981726
H   H167      1.0  0.47480  0.52660  0.76800  1.0000 0.1198981726
H   H168      1.0  0.52520  0.02660  0.73200  1.0000 0.1198981726
H   H169      1.0  0.60500  0.43500  0.20130  1.0000 0.1102429103
H   H170      1.0  0.39500  0.93500  0.29870  1.0000 0.1102429103
H   H171      1.0  0.39500  0.56500  0.79870  1.0000 0.1102429103
H   H172      1.0  0.60500  0.06500  0.70130  1.0000 0.1102429103
H   H173      1.0  0.57490  0.25720  0.26220  1.0000 0.1102429103
H   H174      1.0  0.42510  0.75720  0.23780  1.0000 0.1102429103
H   H175      1.0  0.42510  0.74280  0.73780  1.0000 0.1102429103
H   H176      1.0  0.57490  0.24280  0.76220  1.0000 0.1102429103
H   H177      1.0  0.49790  0.29570  0.29270  1.0000 0.1198981726
H   H178      1.0  0.50210  0.79570  0.20730  1.0000 0.1198981726
H   H179      1.0  0.50210  0.70430  0.70730  1.0000 0.1198981726
H   H180      1.0  0.49790  0.20430  0.79270  1.0000 0.1198981726
H   H181      1.0  0.64440  0.36640  0.14120  1.0000 0.1102429103
H   H182      1.0  0.35560  0.86640  0.35880  1.0000 0.1102429103
H   H183      1.0  0.35560  0.63360  0.85880  1.0000 0.1102429103
H   H184      1.0  0.64440  0.13360  0.64120  1.0000 0.1102429103
H   H185      1.0  0.77870  0.25080  0.17080  1.0000 0.1198981726
H   H186      1.0  0.22130  0.75080  0.32920  1.0000 0.1198981726
H   H187      1.0  0.22130  0.74920  0.82920  1.0000 0.1198981726
H   H188      1.0  0.77870  0.24920  0.67080  1.0000 0.1198981726
H   H189      1.0  0.67440  0.25790  0.28000  1.0000 0.1198981726
H   H190      1.0  0.32560  0.75790  0.22000  1.0000 0.1198981726
H   H191      1.0  0.32560  0.74210  0.72000  1.0000 0.1198981726
H   H192      1.0  0.67440  0.24210  0.78000  1.0000 0.1198981726
H   H193      1.0  0.70330  0.42920  0.10140  1.0000 0.1102429103
H   H194      1.0  0.29670  0.92920  0.39860  1.0000 0.1102429103
H   H195      1.0  0.29670  0.57080  0.89860  1.0000 0.1102429103
H   H196      1.0  0.70330  0.07080  0.60140  1.0000 0.1102429103
H   H197      1.0  0.73360  0.47000  0.02320  1.0000 0.1198981726
H   H198      1.0  0.26640  0.97000  0.47680  1.0000 0.1198981726
H   H199      1.0  0.26640  0.53000  0.97680  1.0000 0.1198981726
H   H200      1.0  0.73360  0.03000  0.52320  1.0000 0.1198981726
H   H201      1.0  0.79980  0.29320  0.99960  1.0000 0.1198981726
H   H202      1.0  0.20020  0.79320  0.50040  1.0000 0.1198981726
H   H203      1.0  0.20020  0.70680  0.00040  1.0000 0.1198981726
H   H204      1.0  0.79980  0.20680  0.49960  1.0000 0.1198981726
H   H205      1.0  0.76970  0.25510  0.07840  1.0000 0.1102429103
H   H206      1.0  0.23030  0.75510  0.42160  1.0000 0.1102429103
H   H207      1.0  0.23030  0.74490  0.92160  1.0000 0.1102429103
H   H208      1.0  0.76970  0.24490  0.57840  1.0000 0.1102429103
H   H209      1.0  0.06850  0.72270  0.05740  1.0000 0.0935552852
H   H210      1.0  0.93150  0.22270  0.44260  1.0000 0.0935552852
H   H211      1.0  0.93150  0.27730  0.94260  1.0000 0.0935552852
H   H212      1.0  0.06850  0.77730  0.55740  1.0000 0.0935552852
C   C1        1.0  0.31720  0.40380  0.47050  1.0000 0.6329059271
C   C2        1.0  0.68280  0.90380  0.02950  1.0000 0.6329059271
C   C3        1.0  0.68280  0.59620  0.52950  1.0000 0.6329059271
C   C4        1.0  0.31720  0.09620  0.97050  1.0000 0.6329059271
C   C5        1.0  0.28860  0.37510  0.51520  1.0000 -0.028964634
C   C6        1.0  0.71140  0.87510  0.98480  1.0000 -0.028964634
C   C7        1.0  0.71140  0.62490  0.48480  1.0000 -0.028964634
C   C8        1.0  0.28860  0.12490  0.01520  1.0000 -0.028964634
C   C9        1.0  0.26690  0.41600  0.54950  1.0000 -0.1009220162
C   C10       1.0  0.73310  0.91600  0.95050  1.0000 -0.1009220162
C   C11       1.0  0.73310  0.58400  0.45050  1.0000 -0.1009220162
C   C12       1.0  0.26690  0.08400  0.04950  1.0000 -0.1009220162
C   C13       1.0  0.24280  0.39310  0.59120  1.0000 -0.1680298604
C   C14       1.0  0.75720  0.89310  0.90880  1.0000 -0.1680298604
C   C15       1.0  0.75720  0.60690  0.40880  1.0000 -0.1680298604
C   C16       1.0  0.24280  0.10690  0.09120  1.0000 -0.1680298604
C   C17       1.0  0.24180  0.32460  0.59970  1.0000 0.0777377855
C   C18       1.0  0.75820  0.82460  0.90030  1.0000 0.0777377855
C   C19       1.0  0.75820  0.67540  0.40030  1.0000 0.0777377855
C   C20       1.0  0.24180  0.17540  0.09970  1.0000 0.0777377855
C   C21       1.0  0.26190  0.28290  0.56300  1.0000 -0.1612672484
C   C22       1.0  0.73810  0.78290  0.93700  1.0000 -0.1612672484
C   C23       1.0  0.73810  0.71710  0.43700  1.0000 -0.1612672484
C   C24       1.0  0.26190  0.21710  0.06300  1.0000 -0.1612672484
C   C25       1.0  0.28580  0.30790  0.52110  1.0000 -0.1009220162
C   C26       1.0  0.71420  0.80790  0.97890  1.0000 -0.1009220162
C   C27       1.0  0.71420  0.69210  0.47890  1.0000 -0.1009220162
C   C28       1.0  0.28580  0.19210  0.02110  1.0000 -0.1009220162
C   C29       1.0  0.22100  0.29640  0.64810  1.0000 0.0637164084
C   C30       1.0  0.77900  0.79640  0.85190  1.0000 0.0637164084
C   C31       1.0  0.77900  0.70360  0.35190  1.0000 0.0637164084
C   C32       1.0  0.22100  0.20360  0.14810  1.0000 0.0637164084
C   C33       1.0  0.25430  0.25600  0.68130  1.0000 -0.1493924977
C   C34       1.0  0.74570  0.75600  0.81870  1.0000 -0.1493924977
C   C35       1.0  0.74570  0.74400  0.31870  1.0000 -0.1493924977
C   C36       1.0  0.25430  0.24400  0.18130  1.0000 -0.1493924977
C   C37       1.0  0.23770  0.23300  0.72920  1.0000 0.0163261226
C   C38       1.0  0.76230  0.73300  0.77080  1.0000 0.0163261226
C   C39       1.0  0.76230  0.76700  0.27080  1.0000 0.0163261226
C   C40       1.0  0.23770  0.26700  0.22920  1.0000 0.0163261226
C   C41       1.0  0.18710  0.24900  0.74170  1.0000 -0.1612672484
C   C42       1.0  0.81290  0.74900  0.75830  1.0000 -0.1612672484
C   C43       1.0  0.81290  0.75100  0.25830  1.0000 -0.1612672484
C   C44       1.0  0.18710  0.25100  0.24170  1.0000 -0.1612672484
C   C45       1.0  0.15410  0.29300  0.70890  1.0000 0.0716934648
C   C46       1.0  0.84590  0.79300  0.79110  1.0000 0.0716934648
C   C47       1.0  0.84590  0.70700  0.29110  1.0000 0.0716934648
C   C48       1.0  0.15410  0.20700  0.20890  1.0000 0.0716934648
C   C49       1.0  0.17010  0.31530  0.66260  1.0000 -0.1926722782
C   C50       1.0  0.82990  0.81530  0.83740  1.0000 -0.1926722782
C   C51       1.0  0.82990  0.68470  0.33740  1.0000 -0.1926722782
C   C52       1.0  0.17010  0.18470  0.16260  1.0000 -0.1926722782
C   C53       1.0  0.27640  0.18990  0.76910  1.0000 0.5581088928
C   C54       1.0  0.72360  0.68990  0.73090  1.0000 0.5581088928
C   C55       1.0  0.72360  0.81010  0.23090  1.0000 0.5581088928
C   C56       1.0  0.27640  0.31010  0.26910  1.0000 0.5581088928
C   C57       1.0  0.10150  0.31300  0.72770  1.0000 0.0716934648
C   C58       1.0  0.89850  0.81300  0.77230  1.0000 0.0716934648
C   C59       1.0  0.89850  0.68700  0.27230  1.0000 0.0716934648
C   C60       1.0  0.10150  0.18700  0.22770  1.0000 0.0716934648
C   C61       1.0  0.08950  0.38010  0.72650  1.0000 -0.1612672484
C   C62       1.0  0.91050  0.88010  0.77350  1.0000 -0.1612672484
C   C63       1.0  0.91050  0.61990  0.27350  1.0000 -0.1612672484
C   C64       1.0  0.08950  0.11990  0.22650  1.0000 -0.1612672484
C   C65       1.0  0.04570  0.40290  0.74950  1.0000 -0.1009220162
C   C66       1.0  0.95430  0.90290  0.75050  1.0000 -0.1009220162
C   C67       1.0  0.95430  0.59710  0.25050  1.0000 -0.1009220162
C   C68       1.0  0.04570  0.09710  0.24950  1.0000 -0.1009220162
C   C69       1.0  0.01330  0.35870  0.77130  1.0000 -0.0203446386
C   C70       1.0  0.98670  0.85870  0.72870  1.0000 -0.0203446386
C   C71       1.0  0.98670  0.64130  0.22870  1.0000 -0.0203446386
C   C72       1.0  0.01330  0.14130  0.27130  1.0000 -0.0203446386
C   C73       1.0  0.02340  0.29340  0.77150  1.0000 -0.1060800938
C   C74       1.0  0.97660  0.79340  0.72850  1.0000 -0.1060800938
C   C75       1.0  0.97660  0.70660  0.22850  1.0000 -0.1060800938
C   C76       1.0  0.02340  0.20660  0.27150  1.0000 -0.1060800938
C   C77       1.0  0.06800  0.27370  0.74950  1.0000 -0.1493924977
C   C78       1.0  0.93200  0.77370  0.75050  1.0000 -0.1493924977
C   C79       1.0  0.93200  0.72630  0.25050  1.0000 -0.1493924977
C   C80       1.0  0.06800  0.22630  0.24950  1.0000 -0.1493924977
C   C81       1.0  0.96590  0.38550  0.79900  1.0000 0.6207028248
C   C82       1.0  0.03410  0.88550  0.70100  1.0000 0.6207028248
C   C83       1.0  0.03410  0.61450  0.20100  1.0000 0.6207028248
C   C84       1.0  0.96590  0.11450  0.29900  1.0000 0.6207028248
C   C85       1.0  0.18950  0.59700  0.38190  1.0000 0.6207028248
C   C86       1.0  0.81050  0.09700  0.11810  1.0000 0.6207028248
C   C87       1.0  0.81050  0.40300  0.61810  1.0000 0.6207028248
C   C88       1.0  0.18950  0.90300  0.88190  1.0000 0.6207028248
C   C89       1.0  0.14370  0.63650  0.39610  1.0000 -0.0435740253
C   C90       1.0  0.85630  0.13650  0.10390  1.0000 -0.0435740253
C   C91       1.0  0.85630  0.36350  0.60390  1.0000 -0.0435740253
C   C92       1.0  0.14370  0.86350  0.89610  1.0000 -0.0435740253
C   C93       1.0  0.10230  0.65860  0.35470  1.0000 -0.0909330141
C   C94       1.0  0.89770  0.15860  0.14530  1.0000 -0.0909330141
C   C95       1.0  0.89770  0.34140  0.64530  1.0000 -0.0909330141
C   C96       1.0  0.10230  0.84140  0.85470  1.0000 -0.0909330141
C   C97       1.0  0.05620  0.69010  0.36970  1.0000 -0.1612672484
C   C98       1.0  0.94380  0.19010  0.13030  1.0000 -0.1612672484
C   C99       1.0  0.94380  0.30990  0.63030  1.0000 -0.1612672484
C   C100      1.0  0.05620  0.80990  0.86970  1.0000 -0.1612672484
C   C101      1.0  0.04930  0.69540  0.42380  1.0000 0.0716934648
C   C102      1.0  0.95070  0.19540  0.07620  1.0000 0.0716934648
C   C103      1.0  0.95070  0.30460  0.57620  1.0000 0.0716934648
C   C104      1.0  0.04930  0.80460  0.92380  1.0000 0.0716934648
C   C105      1.0  0.09200  0.67650  0.46340  1.0000 -0.1680298604
C   C106      1.0  0.90800  0.17650  0.03660  1.0000 -0.1680298604
C   C107      1.0  0.90800  0.32350  0.53660  1.0000 -0.1680298604
C   C108      1.0  0.09200  0.82350  0.96340  1.0000 -0.1680298604
C   C109      1.0  0.13860  0.64560  0.44990  1.0000 -0.1009220162
C   C110      1.0  0.86140  0.14560  0.05010  1.0000 -0.1009220162
C   C111      1.0  0.86140  0.35440  0.55010  1.0000 -0.1009220162
C   C112      1.0  0.13860  0.85440  0.94990  1.0000 -0.1009220162
C   C113      1.0  0.99800  0.72660  0.43660  1.0000 0.0716934648
C   C114      1.0  0.00200  0.22660  0.06340  1.0000 0.0716934648
C   C115      1.0  0.00200  0.27340  0.56340  1.0000 0.0716934648
C   C116      1.0  0.99800  0.77340  0.93660  1.0000 0.0716934648
C   C117      1.0  0.96780  0.77080  0.40640  1.0000 -0.1612672484
C   C118      1.0  0.03220  0.27080  0.09360  1.0000 -0.1612672484
C   C119      1.0  0.03220  0.22920  0.59360  1.0000 -0.1612672484
C   C120      1.0  0.96780  0.72920  0.90640  1.0000 -0.1612672484
C   C121      1.0  0.91900  0.79490  0.42070  1.0000 -0.0107303514
C   C122      1.0  0.08100  0.29490  0.07930  1.0000 -0.0107303514
C   C123      1.0  0.08100  0.20510  0.57930  1.0000 -0.0107303514
C   C124      1.0  0.91900  0.70510  0.92070  1.0000 -0.0107303514
C   C125      1.0  0.90140  0.77280  0.46590  1.0000 -0.1493924977
C   C126      1.0  0.09860  0.27280  0.03410  1.0000 -0.1493924977
C   C127      1.0  0.09860  0.22720  0.53410  1.0000 -0.1493924977
C   C128      1.0  0.90140  0.72720  0.96590  1.0000 -0.1493924977
C   C129      1.0  0.92940  0.72680  0.49670  1.0000 0.0716934648
C   C130      1.0  0.07060  0.22680  0.00330  1.0000 0.0716934648
C   C131      1.0  0.07060  0.27320  0.50330  1.0000 0.0716934648
C   C132      1.0  0.92940  0.77320  0.99670  1.0000 0.0716934648
C   C133      1.0  0.98000  0.70330  0.48390  1.0000 -0.222512457
C   C134      1.0  0.02000  0.20330  0.01610  1.0000 -0.222512457
C   C135      1.0  0.02000  0.29670  0.51610  1.0000 -0.222512457
C   C136      1.0  0.98000  0.79670  0.98390  1.0000 -0.222512457
C   C137      1.0  0.88950  0.85140  0.38720  1.0000 0.6068952052
C   C138      1.0  0.11050  0.35140  0.11280  1.0000 0.6068952052
C   C139      1.0  0.11050  0.14860  0.61280  1.0000 0.6068952052
C   C140      1.0  0.88950  0.64860  0.88720  1.0000 0.6068952052
C   C141      1.0  0.91250  0.69640  0.54660  1.0000 0.0716934648
C   C142      1.0  0.08750  0.19640  0.95340  1.0000 0.0716934648
C   C143      1.0  0.08750  0.30360  0.45340  1.0000 0.0716934648
C   C144      1.0  0.91250  0.80360  0.04660  1.0000 0.0716934648
C   C145      1.0  0.85960  0.67640  0.54680  1.0000 -0.1493924977
C   C146      1.0  0.14040  0.17640  0.95320  1.0000 -0.1493924977
C   C147      1.0  0.14040  0.32360  0.45320  1.0000 -0.1493924977
C   C148      1.0  0.85960  0.82360  0.04680  1.0000 -0.1493924977
C   C149      1.0  0.84600  0.64280  0.59160  1.0000 -0.0909330141
C   C150      1.0  0.15400  0.14280  0.90840  1.0000 -0.0909330141
C   C151      1.0  0.15400  0.35720  0.40840  1.0000 -0.0909330141
C   C152      1.0  0.84600  0.85720  0.09160  1.0000 -0.0909330141
C   C153      1.0  0.88490  0.63350  0.63760  1.0000 -0.028964634
C   C154      1.0  0.11510  0.13350  0.86240  1.0000 -0.028964634
C   C155      1.0  0.11510  0.36650  0.36240  1.0000 -0.028964634
C   C156      1.0  0.88490  0.86650  0.13760  1.0000 -0.028964634
C   C157      1.0  0.93780  0.65660  0.63910  1.0000 -0.1009220162
C   C158      1.0  0.06220  0.15660  0.86090  1.0000 -0.1009220162
C   C159      1.0  0.06220  0.34340  0.36090  1.0000 -0.1009220162
C   C160      1.0  0.93780  0.84340  0.13910  1.0000 -0.1009220162
C   C161      1.0  0.95110  0.68860  0.59340  1.0000 -0.1612672484
C   C162      1.0  0.04890  0.18860  0.90660  1.0000 -0.1612672484
C   C163      1.0  0.04890  0.31140  0.40660  1.0000 -0.1612672484
C   C164      1.0  0.95110  0.81140  0.09340  1.0000 -0.1612672484
C   C165      1.0  0.87190  0.59180  0.68340  1.0000 0.6352369754
C   C166      1.0  0.12810  0.09180  0.81660  1.0000 0.6352369754
C   C167      1.0  0.12810  0.40820  0.31660  1.0000 0.6352369754
C   C168      1.0  0.87190  0.90820  0.18340  1.0000 0.6352369754
C   C169      1.0  0.39310  0.88080  0.70180  1.0000 0.5581088928
C   C170      1.0  0.60690  0.38080  0.79820  1.0000 0.5581088928
C   C171      1.0  0.60690  0.11920  0.29820  1.0000 0.5581088928
C   C172      1.0  0.39310  0.61920  0.20180  1.0000 0.5581088928
C   C173      1.0  0.40000  0.84840  0.65050  1.0000 -0.028964634
C   C174      1.0  0.60000  0.34840  0.84950  1.0000 -0.028964634
C   C175      1.0  0.60000  0.15160  0.34950  1.0000 -0.028964634
C   C176      1.0  0.40000  0.65160  0.15050  1.0000 -0.028964634
C   C177      1.0  0.35790  0.84030  0.60730  1.0000 -0.0909330141
C   C178      1.0  0.64210  0.34030  0.89270  1.0000 -0.0909330141
C   C179      1.0  0.64210  0.15970  0.39270  1.0000 -0.0909330141
C   C180      1.0  0.35790  0.65970  0.10730  1.0000 -0.0909330141
C   C181      1.0  0.36870  0.81660  0.55860  1.0000 -0.1493924977
C   C182      1.0  0.63130  0.31660  0.94140  1.0000 -0.1493924977
C   C183      1.0  0.63130  0.18340  0.44140  1.0000 -0.1493924977
C   C184      1.0  0.36870  0.68340  0.05860  1.0000 -0.1493924977
C   C185      1.0  0.42170  0.80220  0.55070  1.0000 0.0716934648
C   C186      1.0  0.57830  0.30220  0.94930  1.0000 0.0716934648
C   C187      1.0  0.57830  0.19780  0.44930  1.0000 0.0716934648
C   C188      1.0  0.42170  0.69780  0.05070  1.0000 0.0716934648
C   C189      1.0  0.46310  0.80600  0.59680  1.0000 -0.1493924977
C   C190      1.0  0.53690  0.30600  0.90320  1.0000 -0.1493924977
C   C191      1.0  0.53690  0.19400  0.40320  1.0000 -0.1493924977
C   C192      1.0  0.46310  0.69400  0.09680  1.0000 -0.1493924977
C   C193      1.0  0.45420  0.82780  0.64550  1.0000 -0.1060800938
C   C194      1.0  0.54580  0.32780  0.85450  1.0000 -0.1060800938
C   C195      1.0  0.54580  0.17220  0.35450  1.0000 -0.1060800938
C   C196      1.0  0.45420  0.67220  0.14550  1.0000 -0.1060800938
C   C197      1.0  0.43450  0.78270  0.49820  1.0000 0.0716934648
C   C198      1.0  0.56550  0.28270  0.00180  1.0000 0.0716934648
C   C199      1.0  0.56550  0.21730  0.50180  1.0000 0.0716934648
C   C200      1.0  0.43450  0.71730  0.99820  1.0000 0.0716934648
C   C201      1.0  0.40050  0.74220  0.46200  1.0000 -0.1612672484
C   C202      1.0  0.59950  0.24220  0.03800  1.0000 -0.1612672484
C   C203      1.0  0.59950  0.25780  0.53800  1.0000 -0.1612672484
C   C204      1.0  0.40050  0.75780  0.96200  1.0000 -0.1612672484
C   C205      1.0  0.41410  0.72270  0.41360  1.0000 -0.0107303514
C   C206      1.0  0.58590  0.22270  0.08640  1.0000 -0.0107303514
C   C207      1.0  0.58590  0.27730  0.58640  1.0000 -0.0107303514
C   C208      1.0  0.41410  0.77730  0.91360  1.0000 -0.0107303514
C   C209      1.0  0.46330  0.74300  0.39940  1.0000 -0.1612672484
C   C210      1.0  0.53670  0.24300  0.10060  1.0000 -0.1612672484
C   C211      1.0  0.53670  0.25700  0.60060  1.0000 -0.1612672484
C   C212      1.0  0.46330  0.75700  0.89940  1.0000 -0.1612672484
C   C213      1.0  0.49830  0.78340  0.43250  1.0000 0.0777377855
C   C214      1.0  0.50170  0.28340  0.06750  1.0000 0.0777377855
C   C215      1.0  0.50170  0.21660  0.56750  1.0000 0.0777377855
C   C216      1.0  0.49830  0.71660  0.93250  1.0000 0.0777377855
C   C217      1.0  0.48430  0.80180  0.48240  1.0000 -0.2039585313
C   C218      1.0  0.51570  0.30180  0.01760  1.0000 -0.2039585313
C   C219      1.0  0.51570  0.19820  0.51760  1.0000 -0.2039585313
C   C220      1.0  0.48430  0.69820  0.98240  1.0000 -0.2039585313
C   C221      1.0  0.37890  0.67190  0.38120  1.0000 0.597722259
C   C222      1.0  0.62110  0.17190  0.11880  1.0000 0.597722259
C   C223      1.0  0.62110  0.32810  0.61880  1.0000 0.597722259
C   C224      1.0  0.37890  0.82810  0.88120  1.0000 0.597722259
C   C225      1.0  0.55280  0.80590  0.41790  1.0000 0.0777377855
C   C226      1.0  0.44720  0.30590  0.08210  1.0000 0.0777377855
C   C227      1.0  0.44720  0.19410  0.58210  1.0000 0.0777377855
C   C228      1.0  0.55280  0.69410  0.91790  1.0000 0.0777377855
C   C229      1.0  0.55650  0.82020  0.36580  1.0000 -0.1493924977
C   C230      1.0  0.44350  0.32020  0.13420  1.0000 -0.1493924977
C   C231      1.0  0.44350  0.17980  0.63420  1.0000 -0.1493924977
C   C232      1.0  0.55650  0.67980  0.86580  1.0000 -0.1493924977
C   C233      1.0  0.60750  0.84490  0.35470  1.0000 -0.0799263077
C   C234      1.0  0.39250  0.34490  0.14530  1.0000 -0.0799263077
C   C235      1.0  0.39250  0.15510  0.64530  1.0000 -0.0799263077
C   C236      1.0  0.60750  0.65510  0.85470  1.0000 -0.0799263077
C   C237      1.0  0.65020  0.85480  0.39640  1.0000 -0.028964634
C   C238      1.0  0.34980  0.35480  0.10360  1.0000 -0.028964634
C   C239      1.0  0.34980  0.14520  0.60360  1.0000 -0.028964634
C   C240      1.0  0.65020  0.64520  0.89640  1.0000 -0.028964634
C   C241      1.0  0.64530  0.83780  0.44820  1.0000 -0.0909330141
C   C242      1.0  0.35470  0.33780  0.05180  1.0000 -0.0909330141
C   C243      1.0  0.35470  0.16220  0.55180  1.0000 -0.0909330141
C   C244      1.0  0.64530  0.66220  0.94820  1.0000 -0.0909330141
C   C245      1.0  0.59700  0.81460  0.46000  1.0000 -0.1493924977
C   C246      1.0  0.40300  0.31460  0.04000  1.0000 -0.1493924977
C   C247      1.0  0.40300  0.18540  0.54000  1.0000 -0.1493924977
C   C248      1.0  0.59700  0.68540  0.96000  1.0000 -0.1493924977
C   C249      1.0  0.70230  0.88520  0.38630  1.0000 0.5581088928
C   C250      1.0  0.29770  0.38520  0.11370  1.0000 0.5581088928
C   C251      1.0  0.29770  0.11480  0.61370  1.0000 0.5581088928
C   C252      1.0  0.70230  0.61480  0.88630  1.0000 0.5581088928
C   C253      1.0  0.45040  0.41410  0.27770  1.0000 0.6207028248
C   C254      1.0  0.54960  0.91410  0.22230  1.0000 0.6207028248
C   C255      1.0  0.54960  0.58590  0.72230  1.0000 0.6207028248
C   C256      1.0  0.45040  0.08590  0.77770  1.0000 0.6207028248
C   C257      1.0  0.50350  0.38940  0.26280  1.0000 -0.0435740253
C   C258      1.0  0.49650  0.88940  0.23720  1.0000 -0.0435740253
C   C259      1.0  0.49650  0.61060  0.73720  1.0000 -0.0435740253
C   C260      1.0  0.50350  0.11060  0.76280  1.0000 -0.0435740253
C   C261      1.0  0.53550  0.42930  0.23760  1.0000 -0.1060800938
C   C262      1.0  0.46450  0.92930  0.26240  1.0000 -0.1060800938
C   C263      1.0  0.46450  0.57070  0.76240  1.0000 -0.1060800938
C   C264      1.0  0.53550  0.07070  0.73760  1.0000 -0.1060800938
C   C265      1.0  0.58360  0.40680  0.21940  1.0000 -0.1775869089
C   C266      1.0  0.41640  0.90680  0.28060  1.0000 -0.1775869089
C   C267      1.0  0.41640  0.59320  0.78060  1.0000 -0.1775869089
C   C268      1.0  0.58360  0.09320  0.71940  1.0000 -0.1775869089
C   C269      1.0  0.59920  0.34040  0.22910  1.0000 0.0716934648
C   C270      1.0  0.40080  0.84040  0.27090  1.0000 0.0716934648
C   C271      1.0  0.40080  0.65960  0.77090  1.0000 0.0716934648
C   C272      1.0  0.59920  0.15960  0.72910  1.0000 0.0716934648
C   C273      1.0  0.56510  0.30140  0.25610  1.0000 -0.1493924977
C   C274      1.0  0.43490  0.80140  0.24390  1.0000 -0.1493924977
C   C275      1.0  0.43490  0.69860  0.74390  1.0000 -0.1493924977
C   C276      1.0  0.56510  0.19860  0.75610  1.0000 -0.1493924977
C   C277      1.0  0.51910  0.32340  0.27370  1.0000 -0.1009220162
C   C278      1.0  0.48090  0.82340  0.22630  1.0000 -0.1009220162
C   C279      1.0  0.48090  0.67660  0.72630  1.0000 -0.1009220162
C   C280      1.0  0.51910  0.17660  0.77370  1.0000 -0.1009220162
C   C281      1.0  0.64980  0.31590  0.21340  1.0000 0.0637164084
C   C282      1.0  0.35020  0.81590  0.28660  1.0000 0.0716934648
C   C283      1.0  0.35020  0.68410  0.78660  1.0000 0.0637164084
C   C284      1.0  0.64980  0.18410  0.71340  1.0000 0.0637164084
C   C285      1.0  0.66690  0.33700  0.16440  1.0000 -0.2039585313
C   C286      1.0  0.33310  0.83700  0.33560  1.0000 -0.2039585313
C   C287      1.0  0.33310  0.66300  0.83560  1.0000 -0.2039585313
C   C288      1.0  0.66690  0.16300  0.66440  1.0000 -0.2039585313
C   C289      1.0  0.71570  0.31560  0.14990  1.0000 0.0777377855
C   C290      1.0  0.28430  0.81560  0.35010  1.0000 0.0777377855
C   C291      1.0  0.28430  0.68440  0.85010  1.0000 0.0777377855
C   C292      1.0  0.71570  0.18440  0.64990  1.0000 0.0777377855
C   C293      1.0  0.74730  0.26930  0.18240  1.0000 -0.1612672484
C   C294      1.0  0.25270  0.76930  0.31760  1.0000 -0.1612672484
C   C295      1.0  0.25270  0.73070  0.81760  1.0000 -0.1612672484
C   C296      1.0  0.74730  0.23070  0.68240  1.0000 -0.1612672484
C   C297      1.0  0.73270  0.25120  0.23050  1.0000 0.0100932704
C   C298      1.0  0.26730  0.75120  0.26950  1.0000 0.0100932704
C   C299      1.0  0.26730  0.74880  0.76950  1.0000 0.0100932704
C   C300      1.0  0.73270  0.24880  0.73050  1.0000 0.0100932704
C   C301      1.0  0.68410  0.27250  0.24670  1.0000 -0.1612672484
C   C302      1.0  0.31590  0.77250  0.25330  1.0000 -0.1612672484
C   C303      1.0  0.31590  0.72750  0.75330  1.0000 -0.1612672484
C   C304      1.0  0.68410  0.22750  0.74670  1.0000 -0.1612672484
C   C305      1.0  0.77080  0.20680  0.26840  1.0000 0.554643598
C   C306      1.0  0.22920  0.70680  0.23160  1.0000 0.554643598
C   C307      1.0  0.22920  0.79320  0.73160  1.0000 0.554643598
C   C308      1.0  0.77080  0.29320  0.76840  1.0000 0.554643598
C   C309      1.0  0.73180  0.33810  0.09740  1.0000 0.0716934648
C   C310      1.0  0.26820  0.83810  0.40260  1.0000 0.0716934648
C   C311      1.0  0.26820  0.66190  0.90260  1.0000 0.0716934648
C   C312      1.0  0.73180  0.16190  0.59740  1.0000 0.0716934648
C   C313      1.0  0.72250  0.40130  0.08070  1.0000 -0.1680298604
C   C314      1.0  0.27750  0.90130  0.41930  1.0000 -0.1680298604
C   C315      1.0  0.27750  0.59870  0.91930  1.0000 -0.1680298604
C   C316      1.0  0.72250  0.09870  0.58070  1.0000 -0.1680298604
C   C317      1.0  0.74040  0.42620  0.03370  1.0000 -0.1009220162
C   C318      1.0  0.25960  0.92620  0.46630  1.0000 -0.1009220162
C   C319      1.0  0.25960  0.57380  0.96630  1.0000 -0.1009220162
C   C320      1.0  0.74040  0.07380  0.53370  1.0000 -0.1009220162
C   C321      1.0  0.76850  0.38480  0.00300  1.0000 -0.0107303514
C   C322      1.0  0.23150  0.88480  0.49700  1.0000 -0.0107303514
C   C323      1.0  0.23150  0.61520  0.99700  1.0000 -0.0107303514
C   C324      1.0  0.76850  0.11520  0.50300  1.0000 -0.0107303514
C   C325      1.0  0.78000  0.32090  0.01980  1.0000 -0.1060800938
C   C326      1.0  0.22000  0.82090  0.48020  1.0000 -0.1060800938
C   C327      1.0  0.22000  0.67910  0.98020  1.0000 -0.1060800938
C   C328      1.0  0.78000  0.17910  0.51980  1.0000 -0.1060800938
C   C329      1.0  0.76170  0.29840  0.06680  1.0000 -0.1493924977
C   C330      1.0  0.23830  0.79840  0.43320  1.0000 -0.1493924977
C   C331      1.0  0.23830  0.70160  0.93320  1.0000 -0.1493924977
C   C332      1.0  0.76170  0.20160  0.56680  1.0000 -0.1493924977
C   C333      1.0  0.78850  0.41230  0.95130  1.0000 0.4944426087
C   C334      1.0  0.21150  0.91230  0.54870  1.0000 0.4944426087
C   C335      1.0  0.21150  0.58770  0.04870  1.0000 0.4944426087
C   C336      1.0  0.78850  0.08770  0.45130  1.0000 0.4944426087
C   C337      1.0  0.08970  0.69750  0.08510  1.0000 0.4581405787
C   C338      1.0  0.91030  0.19750  0.41490  1.0000 0.4581405787
C   C339      1.0  0.91030  0.30250  0.91490  1.0000 0.4581405787
C   C340      1.0  0.08970  0.80250  0.58510  1.0000 0.4581405787
O   O1        1.0  0.38090  0.49050  0.37220  1.0000 -1.2214410337
O   O2        1.0  0.61910  0.99050  0.12780  1.0000 -1.2214410337
O   O3        1.0  0.61910  0.50950  0.62780  1.0000 -1.2214410337
O   O4        1.0  0.38090  0.00950  0.87220  1.0000 -1.2214410337
O   O5        1.0  0.29820  0.57450  0.31600  1.0000 -1.1175814655
O   O6        1.0  0.70180  0.07450  0.18400  1.0000 -1.112719688
O   O7        1.0  0.70180  0.42550  0.68400  1.0000 -1.1175814655
O   O8        1.0  0.29820  0.92550  0.81600  1.0000 -1.1175814655
O   O9        1.0  0.27390  0.46290  0.36320  1.0000 -1.1329964729
O   O10       1.0  0.72610  0.96290  0.13680  1.0000 -1.1329964729
O   O11       1.0  0.72610  0.53710  0.63680  1.0000 -1.1329964729
O   O12       1.0  0.27390  0.03710  0.86320  1.0000 -1.1329964729
O   O13       1.0  0.31780  0.46230  0.26880  1.0000 -1.0980244609
O   O14       1.0  0.68220  0.96230  0.23120  1.0000 -1.0980244609
O   O15       1.0  0.68220  0.53770  0.73120  1.0000 -1.0980244609
O   O16       1.0  0.31780  0.03770  0.76880  1.0000 -1.0980244609
O   O17       1.0  0.14330  0.54810  0.23540  1.0000 -1.1175814655
O   O18       1.0  0.85670  0.04810  0.26460  1.0000 -1.1175814655
O   O19       1.0  0.85670  0.45190  0.76460  1.0000 -1.1175814655
O   O20       1.0  0.14330  0.95190  0.73540  1.0000 -1.1175814655
O   O21       1.0  0.18600  0.43560  0.20690  1.0000 -1.1175814655
O   O22       1.0  0.81400  0.93560  0.29310  1.0000 -1.1175814655
O   O23       1.0  0.81400  0.56440  0.79310  1.0000 -1.1175814655
O   O24       1.0  0.18600  0.06440  0.70690  1.0000 -1.1175814655
O   O25       1.0  0.23460  0.54860  0.18810  1.0000 -1.0759221645
O   O26       1.0  0.76540  0.04860  0.31190  1.0000 -1.0759221645
O   O27       1.0  0.76540  0.45140  0.81190  1.0000 -1.0759221645
O   O28       1.0  0.23460  0.95140  0.68810  1.0000 -1.0759221645
O   O29       1.0  0.12910  0.52080  0.12880  1.0000 -1.1608456703
O   O30       1.0  0.87090  0.02080  0.37120  1.0000 -1.1608456703
O   O31       1.0  0.87090  0.47920  0.87120  1.0000 -1.1608456703
O   O32       1.0  0.12910  0.97920  0.62880  1.0000 -1.1608456703
O   O33       1.0  0.32910  0.36760  0.43500  1.0000 -0.6284168394
O   O34       1.0  0.67090  0.86760  0.06500  1.0000 -0.6284168394
O   O35       1.0  0.67090  0.63240  0.56500  1.0000 -0.6284168394
O   O36       1.0  0.32910  0.13240  0.93500  1.0000 -0.6284168394
O   O37       1.0  0.32810  0.46410  0.47530  1.0000 -0.7174301701
O   O38       1.0  0.67190  0.96410  0.02470  1.0000 -0.7174301701
O   O39       1.0  0.67190  0.53590  0.52470  1.0000 -0.7174301701
O   O40       1.0  0.32810  0.03590  0.97530  1.0000 -0.7174301701
O   O41       1.0  0.32530  0.18140  0.76110  1.0000 -0.620840426
O   O42       1.0  0.67470  0.68140  0.73890  1.0000 -0.620840426
O   O43       1.0  0.67470  0.81860  0.23890  1.0000 -0.620840426
O   O44       1.0  0.32530  0.31860  0.26110  1.0000 -0.620840426
O   O45       1.0  0.25850  0.16590  0.80940  1.0000 -0.6541273328
O   O46       1.0  0.74150  0.66590  0.69060  1.0000 -0.6541273328
O   O47       1.0  0.74150  0.83410  0.19060  1.0000 -0.6541273328
O   O48       1.0  0.25850  0.33410  0.30940  1.0000 -0.6541273328
O   O49       1.0  0.96990  0.44510  0.80950  1.0000 -0.6971455696
O   O50       1.0  0.03010  0.94510  0.69050  1.0000 -0.6971455696
O   O51       1.0  0.03010  0.55490  0.19050  1.0000 -0.6971455696
O   O52       1.0  0.96990  0.05490  0.30950  1.0000 -0.6971455696
O   O53       1.0  0.92810  0.34830  0.80360  1.0000 -0.5725408526
O   O54       1.0  0.07190  0.84830  0.69640  1.0000 -0.5725408526
O   O55       1.0  0.07190  0.65170  0.19640  1.0000 -0.5725408526
O   O56       1.0  0.92810  0.15170  0.30360  1.0000 -0.5725408526
O   O57       1.0  0.23040  0.58760  0.41980  1.0000 -0.6813280316
O   O58       1.0  0.76960  0.08760  0.08020  1.0000 -0.6813280316
O   O59       1.0  0.76960  0.41240  0.58020  1.0000 -0.6813280316
O   O60       1.0  0.23040  0.91240  0.91980  1.0000 -0.6813280316
O   O61       1.0  0.18540  0.57600  0.33590  1.0000 -0.6022090981
O   O62       1.0  0.81460  0.07600  0.16410  1.0000 -0.6022090981
O   O63       1.0  0.81460  0.42400  0.66410  1.0000 -0.6022090981
O   O64       1.0  0.18540  0.92400  0.83590  1.0000 -0.6022090981
O   O65       1.0  0.90580  0.86350  0.34240  1.0000 -0.6894329967
O   O66       1.0  0.09420  0.36350  0.15760  1.0000 -0.6894329967
O   O67       1.0  0.09420  0.13650  0.65760  1.0000 -0.6894329967
O   O68       1.0  0.90580  0.63650  0.84240  1.0000 -0.6894329967
O   O69       1.0  0.85030  0.87460  0.40260  1.0000 -0.5900951954
O   O70       1.0  0.14970  0.37460  0.09740  1.0000 -0.5900951954
O   O71       1.0  0.14970  0.12540  0.59740  1.0000 -0.5900951954
O   O72       1.0  0.85030  0.62540  0.90260  1.0000 -0.5900951954
O   O73       1.0  0.82820  0.56190  0.67660  1.0000 -0.620840426
O   O74       1.0  0.17180  0.06190  0.82340  1.0000 -0.620840426
O   O75       1.0  0.17180  0.43810  0.32340  1.0000 -0.620840426
O   O76       1.0  0.82820  0.93810  0.17660  1.0000 -0.620840426
O   O77       1.0  0.90880  0.59060  0.72710  1.0000 -0.7174301701
O   O78       1.0  0.09120  0.09060  0.77290  1.0000 -0.7174301701
O   O79       1.0  0.09120  0.40940  0.27290  1.0000 -0.7174301701
O   O80       1.0  0.90880  0.90940  0.22710  1.0000 -0.7174301701
O   O81       1.0  0.34740  0.90490  0.70680  1.0000 -0.6082355785
O   O82       1.0  0.65260  0.40490  0.79320  1.0000 -0.6082355785
O   O83       1.0  0.65260  0.09510  0.29320  1.0000 -0.6082355785
O   O84       1.0  0.34740  0.59510  0.20680  1.0000 -0.6082355785
O   O85       1.0  0.43300  0.88360  0.73960  1.0000 -0.6022090981
O   O86       1.0  0.56700  0.38360  0.76040  1.0000 -0.6022090981
O   O87       1.0  0.56700  0.11640  0.26040  1.0000 -0.6022090981
O   O88       1.0  0.43300  0.61640  0.23960  1.0000 -0.6022090981
O   O89       1.0  0.33580  0.65760  0.39820  1.0000 -0.6434306087
O   O90       1.0  0.66420  0.15760  0.10180  1.0000 -0.6434306087
O   O91       1.0  0.66420  0.34240  0.60180  1.0000 -0.6434306087
O   O92       1.0  0.33580  0.84240  0.89820  1.0000 -0.6434306087
O   O93       1.0  0.39670  0.64910  0.34280  1.0000 -0.6082355785
O   O94       1.0  0.60330  0.14910  0.15720  1.0000 -0.6082355785
O   O95       1.0  0.60330  0.35090  0.65720  1.0000 -0.6082355785
O   O96       1.0  0.39670  0.85090  0.84280  1.0000 -0.6082355785
O   O97       1.0  0.70570  0.90840  0.34050  1.0000 -0.6022090981
O   O98       1.0  0.29430  0.40840  0.15950  1.0000 -0.6022090981
O   O99       1.0  0.29430  0.09160  0.65950  1.0000 -0.6022090981
O   O100      1.0  0.70570  0.59160  0.84050  1.0000 -0.6022090981
O   O101      1.0  0.74170  0.89020  0.42530  1.0000 -0.6082355785
O   O102      1.0  0.25830  0.39020  0.07470  1.0000 -0.6082355785
O   O103      1.0  0.25830  0.10980  0.57470  1.0000 -0.6082355785
O   O104      1.0  0.74170  0.60980  0.92530  1.0000 -0.6082355785
O   O105      1.0  0.43140  0.46620  0.25540  1.0000 -0.6640231641
O   O106      1.0  0.56860  0.96620  0.24460  1.0000 -0.6640231641
O   O107      1.0  0.56860  0.53380  0.74460  1.0000 -0.6640231641
O   O108      1.0  0.43140  0.03380  0.75540  1.0000 -0.6640231641
O   O109      1.0  0.42730  0.38260  0.31110  1.0000 -0.6813280316
O   O110      1.0  0.57270  0.88260  0.18890  1.0000 -0.6813280316
O   O111      1.0  0.57270  0.61740  0.68890  1.0000 -0.6813280316
O   O112      1.0  0.42730  0.11740  0.81110  1.0000 -0.6813280316
O   O113      1.0  0.76020  0.19410  0.31500  1.0000 -0.6022090981
O   O114      1.0  0.23980  0.69410  0.18500  1.0000 -0.6022090981
O   O115      1.0  0.23980  0.80590  0.68500  1.0000 -0.6022090981
O   O116      1.0  0.76020  0.30590  0.81500  1.0000 -0.6022090981
O   O117      1.0  0.81140  0.18170  0.25210  1.0000 -0.6082355785
O   O118      1.0  0.18860  0.68170  0.24790  1.0000 -0.6082355785
O   O119      1.0  0.18860  0.81830  0.74790  1.0000 -0.6082355785
O   O120      1.0  0.81140  0.31830  0.75210  1.0000 -0.6082355785
O   O121      1.0  0.80400  0.37380  0.92070  1.0000 -0.5515060755
O   O122      1.0  0.19600  0.87380  0.57930  1.0000 -0.5515060755
O   O123      1.0  0.19600  0.62620  0.07930  1.0000 -0.5515060755
O   O124      1.0  0.80400  0.12620  0.42070  1.0000 -0.5515060755
O   O125      1.0  0.12500  0.72650  0.12070  1.0000 -0.5900951954
O   O126      1.0  0.87500  0.22650  0.37930  1.0000 -0.5900951954
O   O127      1.0  0.87500  0.27350  0.87930  1.0000 -0.5900951954
O   O128      1.0  0.12500  0.77350  0.62070  1.0000 -0.5900951954
O   O129      1.0  0.08190  0.63790  0.08500  1.0000 -0.5515060755
O   O130      1.0  0.91810  0.13790  0.41500  1.0000 -0.5515060755
O   O131      1.0  0.91810  0.36210  0.91500  1.0000 -0.5515060755
O   O132      1.0  0.08190  0.86210  0.58500  1.0000 -0.5515060755
O   O133      1.0  0.80120  0.47470  0.95360  1.0000 -0.222512457
O   O134      1.0  0.19880  0.97470  0.54640  1.0000 -0.222512457
O   O135      1.0  0.19880  0.52530  0.04640  1.0000 -0.222512457
O   O136      1.0  0.80120  0.02530  0.45360  1.0000 -0.222512457
O   O137      1.0  0.76190  0.46320  0.93350  1.0000 -0.2675319346
O   O138      1.0  0.23810  0.96320  0.56650  1.0000 -0.2675319346
O   O139      1.0  0.23810  0.53680  0.06650  1.0000 -0.2675319346
O   O140      1.0  0.76190  0.03680  0.43350  1.0000 -0.2675319346
