# DDEC6 charges by PACMAN v1.1 (https://github.com/mtap-research/PACMAN-charge/)
data_2015[Cu][qtz]3[ASR]2
_chemical_formula_sum              "Cu6 H24 C12 N24 O6"
_cell_length_a       11.9286
_cell_length_b       11.9286
_cell_length_c       10.469
_cell_angle_alpha    90
_cell_angle_beta     90
_cell_angle_gamma    120

_symmetry_space_group_name_H-M    "P 1"
_symmetry_Int_Tables_number       1

loop_
  _symmetry_equiv_pos_as_xyz
  'x, y, z'

loop_
  _atom_site_type_symbol
  _atom_site_label
  _atom_site_symmetry_multiplicity
  _atom_site_fract_x
  _atom_site_fract_y
  _atom_site_fract_z
  _atom_site_occupancy
  _atom_site_charge
Cu  Cu1       1.0  0.43765  0.49782  0.15982  1.0000 0.6608078186
Cu  Cu2       1.0  0.50218  0.93983  0.82649  1.0000 0.6608078186
Cu  Cu3       1.0  0.06017  0.56235  0.49315  1.0000 0.6608078186
Cu  Cu4       1.0  0.49782  0.43765  0.84018  1.0000 0.6608078186
Cu  Cu5       1.0  0.93983  0.50218  0.17351  1.0000 0.6608078186
Cu  Cu6       1.0  0.56235  0.06017  0.50685  1.0000 0.6608078186
H   H1        1.0  0.18570  0.49950  0.06360  1.0000 0.1139917701
H   H2        1.0  0.50050  0.68620  0.73027  1.0000 0.1139917701
H   H3        1.0  0.31380  0.81430  0.39693  1.0000 0.1139917701
H   H4        1.0  0.49950  0.18570  0.93640  1.0000 0.1139917701
H   H5        1.0  0.68620  0.50050  0.26973  1.0000 0.1139917701
H   H6        1.0  0.81430  0.31380  0.60307  1.0000 0.1139917701
H   H7        1.0  0.29980  0.53440  0.52490  1.0000 0.2837259277
H   H8        1.0  0.46560  0.76540  0.19157  1.0000 0.2837259277
H   H9        1.0  0.23460  0.70020  0.85823  1.0000 0.2837259277
H   H10       1.0  0.53440  0.29980  0.47510  1.0000 0.2837259277
H   H11       1.0  0.76540  0.46560  0.80843  1.0000 0.2837259277
H   H12       1.0  0.70020  0.23460  0.14177  1.0000 0.2837259277
H   H13       1.0  0.39900  0.53070  0.44140  1.0000 0.3128741487
H   H14       1.0  0.46930  0.86830  0.10807  1.0000 0.3128741487
H   H15       1.0  0.13170  0.60100  0.77473  1.0000 0.3128741487
H   H16       1.0  0.53070  0.39900  0.55860  1.0000 0.3128741487
H   H17       1.0  0.86830  0.46930  0.89193  1.0000 0.3128741487
H   H18       1.0  0.60100  0.13170  0.22527  1.0000 0.3128741487
H   H19       1.0  0.45390  0.34220  0.29380  1.0000 0.3623844588
H   H20       1.0  0.65780  0.11170  0.96047  1.0000 0.3623844588
H   H21       1.0  0.88830  0.54610  0.62713  1.0000 0.3623844588
H   H22       1.0  0.34220  0.45390  0.70620  1.0000 0.3623844588
H   H23       1.0  0.11170  0.65780  0.03953  1.0000 0.3623844588
H   H24       1.0  0.54610  0.88830  0.37287  1.0000 0.3623844588
C   C1        1.0  0.26030  0.53010  0.34510  1.0000 0.5085265442
C   C2        1.0  0.46990  0.73020  0.01177  1.0000 0.5085265442
C   C3        1.0  0.26980  0.73970  0.67843  1.0000 0.5085265442
C   C4        1.0  0.53010  0.26030  0.65490  1.0000 0.5085265442
C   C5        1.0  0.73020  0.46990  0.98823  1.0000 0.5085265442
C   C6        1.0  0.73970  0.26980  0.32157  1.0000 0.5085265442
C   C7        1.0  0.19200  0.50870  0.15190  1.0000 0.1336509167
C   C8        1.0  0.49130  0.68330  0.81857  1.0000 0.1336509167
C   C9        1.0  0.31670  0.80800  0.48523  1.0000 0.1336509167
C   C10       1.0  0.50870  0.19200  0.84810  1.0000 0.1336509167
C   C11       1.0  0.68330  0.49130  0.18143  1.0000 0.1336509167
C   C12       1.0  0.80800  0.31670  0.51477  1.0000 0.1336509167
N   N1        1.0  0.10644  0.51732  0.22491  1.0000 -0.2136781658
N   N2        1.0  0.48268  0.58912  0.89158  1.0000 -0.2136781658
N   N3        1.0  0.41088  0.89356  0.55824  1.0000 -0.2136781658
N   N4        1.0  0.51732  0.10644  0.77509  1.0000 -0.2136781658
N   N5        1.0  0.58912  0.48268  0.10842  1.0000 -0.2136781658
N   N6        1.0  0.89356  0.41088  0.44176  1.0000 -0.2136781658
N   N7        1.0  0.15051  0.53182  0.34931  1.0000 -0.3272400544
N   N8        1.0  0.46818  0.61869  0.01598  1.0000 -0.3272400544
N   N9        1.0  0.38131  0.84949  0.68264  1.0000 -0.3272400544
N   N10       1.0  0.53182  0.15051  0.65069  1.0000 -0.3272400544
N   N11       1.0  0.61869  0.46818  0.98402  1.0000 -0.3272400544
N   N12       1.0  0.84949  0.38131  0.31736  1.0000 -0.3272400544
N   N13       1.0  0.29002  0.51490  0.22215  1.0000 -0.4121353771
N   N14       1.0  0.48510  0.77512  0.88882  1.0000 -0.4121353771
N   N15       1.0  0.22488  0.70998  0.55548  1.0000 -0.4121353771
N   N16       1.0  0.51490  0.29002  0.77785  1.0000 -0.4121353771
N   N17       1.0  0.77512  0.48510  0.11118  1.0000 -0.4121353771
N   N18       1.0  0.70998  0.22488  0.44452  1.0000 -0.4121353771
N   N19       1.0  0.32790  0.53200  0.44990  1.0000 -0.6265452202
N   N20       1.0  0.46800  0.79590  0.11657  1.0000 -0.6265452202
N   N21       1.0  0.20410  0.67210  0.78323  1.0000 -0.6265452202
N   N22       1.0  0.53200  0.32790  0.55010  1.0000 -0.6265452202
N   N23       1.0  0.79590  0.46800  0.88343  1.0000 -0.6265452202
N   N24       1.0  0.67210  0.20410  0.21677  1.0000 -0.6265452202
O   O1        1.0  0.40170  0.36773  0.29860  1.0000 -0.7963627672
O   O2        1.0  0.63227  0.03397  0.96527  1.0000 -0.7963627672
O   O3        1.0  0.96603  0.59830  0.63193  1.0000 -0.7963627672
O   O4        1.0  0.36773  0.40170  0.70140  1.0000 -0.7963627672
O   O5        1.0  0.03397  0.63227  0.03473  1.0000 -0.7963627672
O   O6        1.0  0.59830  0.96603  0.36807  1.0000 -0.7963627672
