# DDEC6 charges by PACMAN v1.1 (https://github.com/mtap-research/PACMAN-charge/)
data_2015[La][nan]3[ASR]2
_chemical_formula_sum              "La4 H12 C36 O24"
_cell_length_a       10.438
_cell_length_b       10.438
_cell_length_c       13.853
_cell_angle_alpha    90
_cell_angle_beta     90
_cell_angle_gamma    90

_symmetry_space_group_name_H-M    "P 1"
_symmetry_Int_Tables_number       1

loop_
  _symmetry_equiv_pos_as_xyz
  'x, y, z'

loop_
  _atom_site_type_symbol
  _atom_site_label
  _atom_site_symmetry_multiplicity
  _atom_site_fract_x
  _atom_site_fract_y
  _atom_site_fract_z
  _atom_site_occupancy
  _atom_site_charge
La  La1       1.0  0.60683  0.36681  0.18913  1.0000 1.8964313808
La  La2       1.0  0.39317  0.63319  0.68913  1.0000 1.8964313808
La  La3       1.0  0.63319  0.60683  0.93913  1.0000 1.8964313808
La  La4       1.0  0.36681  0.39317  0.43913  1.0000 1.8964313808
H   H1        1.0  0.95390  0.50880  0.40260  1.0000 0.1397240329
H   H2        1.0  0.04610  0.49120  0.90260  1.0000 0.1397240329
H   H3        1.0  0.49120  0.95390  0.15260  1.0000 0.1397240329
H   H4        1.0  0.50880  0.04610  0.65260  1.0000 0.1397240329
H   H5        1.0  0.96990  0.61030  0.68400  1.0000 0.1397240329
H   H6        1.0  0.03010  0.38970  0.18400  1.0000 0.1397240329
H   H7        1.0  0.38970  0.96990  0.43400  1.0000 0.1397240329
H   H8        1.0  0.61030  0.03010  0.93400  1.0000 0.1397240329
H   H9        1.0  0.63430  0.50830  0.56560  1.0000 0.1151358466
H   H10       1.0  0.36570  0.49170  0.06560  1.0000 0.1151358466
H   H11       1.0  0.49170  0.63430  0.31560  1.0000 0.1151358466
H   H12       1.0  0.50830  0.36570  0.81560  1.0000 0.1151358466
C   C1        1.0  0.70790  0.47230  0.38210  1.0000 0.5986384693
C   C2        1.0  0.29210  0.52770  0.88210  1.0000 0.5986384693
C   C3        1.0  0.52770  0.70790  0.13210  1.0000 0.5986384693
C   C4        1.0  0.47230  0.29210  0.63210  1.0000 0.5986384693
C   C5        1.0  0.78060  0.50990  0.46880  1.0000 -0.0451096502
C   C6        1.0  0.21940  0.49010  0.96880  1.0000 -0.0451096502
C   C7        1.0  0.49010  0.78060  0.21880  1.0000 -0.0451096502
C   C8        1.0  0.50990  0.21940  0.71880  1.0000 -0.0451096502
C   C9        1.0  0.91280  0.52420  0.46180  1.0000 -0.0870455337
C   C10       1.0  0.08720  0.47580  0.96180  1.0000 -0.0870455337
C   C11       1.0  0.47580  0.91280  0.21180  1.0000 -0.0870455337
C   C12       1.0  0.52420  0.08720  0.71180  1.0000 -0.0870455337
C   C13       1.0  0.98430  0.56120  0.54160  1.0000 -0.0311999548
C   C14       1.0  0.01570  0.43880  0.04160  1.0000 -0.0311999548
C   C15       1.0  0.43880  0.98430  0.29160  1.0000 -0.0311999548
C   C16       1.0  0.56120  0.01570  0.79160  1.0000 -0.0311999548
C   C17       1.0  0.92240  0.58350  0.63000  1.0000 -0.0827869569
C   C18       1.0  0.07760  0.41650  0.13000  1.0000 -0.0827869569
C   C19       1.0  0.41650  0.92240  0.38000  1.0000 -0.0827869569
C   C20       1.0  0.58350  0.07760  0.88000  1.0000 -0.0827869569
C   C21       1.0  0.79380  0.56630  0.63730  1.0000 -0.0311999548
C   C22       1.0  0.20620  0.43370  0.13730  1.0000 -0.0311999548
C   C23       1.0  0.43370  0.79380  0.38730  1.0000 -0.0311999548
C   C24       1.0  0.56630  0.20620  0.88730  1.0000 -0.0311999548
C   C25       1.0  0.72220  0.52540  0.55840  1.0000 -0.1046513525
C   C26       1.0  0.27780  0.47460  0.05840  1.0000 -0.1046513525
C   C27       1.0  0.47460  0.72220  0.30840  1.0000 -0.1046513525
C   C28       1.0  0.52540  0.27780  0.80840  1.0000 -0.1046513525
C   C29       1.0  0.12930  0.56890  0.53590  1.0000 0.617238501
C   C30       1.0  0.87070  0.43110  0.03590  1.0000 0.617238501
C   C31       1.0  0.43110  0.12930  0.28590  1.0000 0.617238501
C   C32       1.0  0.56890  0.87070  0.78590  1.0000 0.617238501
C   C33       1.0  0.73260  0.58830  0.73430  1.0000 0.5986384693
C   C34       1.0  0.26740  0.41170  0.23430  1.0000 0.5986384693
C   C35       1.0  0.41170  0.73260  0.48430  1.0000 0.5986384693
C   C36       1.0  0.58830  0.26740  0.98430  1.0000 0.5986384693
O   O1        1.0  0.75650  0.49220  0.29940  1.0000 -0.5693398175
O   O2        1.0  0.24350  0.50780  0.79940  1.0000 -0.5693398175
O   O3        1.0  0.50780  0.75650  0.04940  1.0000 -0.5693398175
O   O4        1.0  0.49220  0.24350  0.54940  1.0000 -0.5693398175
O   O5        1.0  0.59560  0.42060  0.38840  1.0000 -0.6887088177
O   O6        1.0  0.40440  0.57940  0.88840  1.0000 -0.6887088177
O   O7        1.0  0.57940  0.59560  0.13840  1.0000 -0.6887088177
O   O8        1.0  0.42060  0.40440  0.63840  1.0000 -0.6887088177
O   O9        1.0  0.61260  0.55750  0.74680  1.0000 -0.7035451588
O   O10       1.0  0.38740  0.44250  0.24680  1.0000 -0.7035451588
O   O11       1.0  0.44250  0.61260  0.49680  1.0000 -0.7035451588
O   O12       1.0  0.55750  0.38740  0.99680  1.0000 -0.7035451588
O   O13       1.0  0.79800  0.63180  0.80170  1.0000 -0.5370599088
O   O14       1.0  0.20200  0.36820  0.30170  1.0000 -0.5370599088
O   O15       1.0  0.36820  0.79800  0.55170  1.0000 -0.5370599088
O   O16       1.0  0.63180  0.20200  0.05170  1.0000 -0.5370599088
O   O17       1.0  0.18880  0.59610  0.61040  1.0000 -0.5988303479
O   O18       1.0  0.81120  0.40390  0.11040  1.0000 -0.5988303479
O   O19       1.0  0.40390  0.18880  0.36040  1.0000 -0.5988303479
O   O20       1.0  0.59610  0.81120  0.86040  1.0000 -0.5988303479
O   O21       1.0  0.18080  0.54030  0.45550  1.0000 -0.6260532793
O   O22       1.0  0.81920  0.45970  0.95550  1.0000 -0.6260532793
O   O23       1.0  0.45970  0.18080  0.20550  1.0000 -0.6260532793
O   O24       1.0  0.54030  0.81920  0.70550  1.0000 -0.6260532793
