# DDEC6 charges by PACMAN v1.1 (https://github.com/mtap-research/PACMAN-charge/)
data_2015[CoRu][kew]3[ASR]1
_chemical_formula_sum              "Co3 H180 Ru24 C180 N18 O116"
_cell_length_a       31.197
_cell_length_b       31.197
_cell_length_c       17.468
_cell_angle_alpha    84.7561
_cell_angle_beta     95.2439
_cell_angle_gamma    124.781

_symmetry_space_group_name_H-M    "P 1"
_symmetry_Int_Tables_number       1

loop_
  _symmetry_equiv_pos_as_xyz
  'x, y, z'

loop_
  _atom_site_type_symbol
  _atom_site_label
  _atom_site_symmetry_multiplicity
  _atom_site_fract_x
  _atom_site_fract_y
  _atom_site_fract_z
  _atom_site_occupancy
  _atom_site_charge
Co  Co1       1.0  0.00000  0.00000  0.50000  1.0000 1.0979901088
Co  Co2       1.0  0.02515  0.97485  0.70110  1.0000 0.9559777213
Co  Co3       1.0  0.97485  0.02515  0.29890  1.0000 0.9559777213
H   H1        1.0  0.49830  0.25990  0.33810  1.0000 0.1133003762
H   H2        1.0  0.25990  0.49830  0.66190  1.0000 0.1133003762
H   H3        1.0  0.50170  0.74010  0.66190  1.0000 0.1133003762
H   H4        1.0  0.74010  0.50170  0.33810  1.0000 0.1133003762
H   H5        1.0  0.48220  0.12060  0.35710  1.0000 0.1133003762
H   H6        1.0  0.12060  0.48220  0.64290  1.0000 0.1133003762
H   H7        1.0  0.51780  0.87940  0.64290  1.0000 0.1133003762
H   H8        1.0  0.87940  0.51780  0.35710  1.0000 0.1133003762
H   H9        1.0  0.33000  0.02780  0.33230  1.0000 0.1690667526
H   H10       1.0  0.02780  0.33000  0.66770  1.0000 0.1690667526
H   H11       1.0  0.67000  0.97220  0.66770  1.0000 0.1690667526
H   H12       1.0  0.97220  0.67000  0.33230  1.0000 0.1690667526
H   H13       1.0  0.33190  0.99570  0.40790  1.0000 0.1690667526
H   H14       1.0  0.99570  0.33190  0.59210  1.0000 0.1690667526
H   H15       1.0  0.66810  0.00430  0.59210  1.0000 0.1690667526
H   H16       1.0  0.00430  0.66810  0.40790  1.0000 0.1690667526
H   H17       1.0  0.28320  0.99980  0.38980  1.0000 0.1690667526
H   H18       1.0  0.99980  0.28320  0.61020  1.0000 0.1690667526
H   H19       1.0  0.71680  0.00020  0.61020  1.0000 0.1690667526
H   H20       1.0  0.00020  0.71680  0.38980  1.0000 0.1690667526
H   H21       1.0  0.32010  0.21990  0.38350  1.0000 0.1596068223
H   H22       1.0  0.21990  0.32010  0.61650  1.0000 0.1596068223
H   H23       1.0  0.67990  0.78010  0.61650  1.0000 0.1596068223
H   H24       1.0  0.78010  0.67990  0.38350  1.0000 0.1596068223
H   H25       1.0  0.37720  0.25720  0.35020  1.0000 0.1596068223
H   H26       1.0  0.25720  0.37720  0.64980  1.0000 0.1596068223
H   H27       1.0  0.62280  0.74280  0.64980  1.0000 0.1596068223
H   H28       1.0  0.74280  0.62280  0.35020  1.0000 0.1596068223
H   H29       1.0  0.33510  0.20230  0.31290  1.0000 0.1596068223
H   H30       1.0  0.20230  0.33510  0.68710  1.0000 0.1596068223
H   H31       1.0  0.66490  0.79770  0.68710  1.0000 0.1596068223
H   H32       1.0  0.79770  0.66490  0.31290  1.0000 0.1596068223
H   H33       1.0  0.52520  0.07920  0.58770  1.0000 0.1596068223
H   H34       1.0  0.07920  0.52520  0.41230  1.0000 0.1596068223
H   H35       1.0  0.47480  0.92080  0.41230  1.0000 0.1596068223
H   H36       1.0  0.92080  0.47480  0.58770  1.0000 0.1596068223
H   H37       1.0  0.55420  0.11720  0.51480  1.0000 0.1511930903
H   H38       1.0  0.11720  0.55420  0.48520  1.0000 0.1511930903
H   H39       1.0  0.44580  0.88280  0.48520  1.0000 0.1511930903
H   H40       1.0  0.88280  0.44580  0.51480  1.0000 0.1511930903
H   H41       1.0  0.57160  0.13920  0.59930  1.0000 0.1511930903
H   H42       1.0  0.13920  0.57160  0.40070  1.0000 0.1511930903
H   H43       1.0  0.42840  0.86080  0.40070  1.0000 0.1511930903
H   H44       1.0  0.86080  0.42840  0.59930  1.0000 0.1511930903
H   H45       1.0  0.58800  0.33520  0.50970  1.0000 0.1511930903
H   H46       1.0  0.33520  0.58800  0.49030  1.0000 0.1511930903
H   H47       1.0  0.41200  0.66480  0.49030  1.0000 0.1511930903
H   H48       1.0  0.66480  0.41200  0.50970  1.0000 0.1511930903
H   H49       1.0  0.54180  0.34180  0.52080  1.0000 0.1690667526
H   H50       1.0  0.34180  0.54180  0.47920  1.0000 0.1690667526
H   H51       1.0  0.45820  0.65820  0.47920  1.0000 0.1690667526
H   H52       1.0  0.65820  0.45820  0.52080  1.0000 0.1690667526
H   H53       1.0  0.57390  0.33750  0.59440  1.0000 0.1511930903
H   H54       1.0  0.33750  0.57390  0.40560  1.0000 0.1511930903
H   H55       1.0  0.42610  0.66250  0.40560  1.0000 0.1511930903
H   H56       1.0  0.66250  0.42610  0.59440  1.0000 0.1511930903
H   H57       1.0  0.55530  0.29010  0.23290  1.0000 0.1419133508
H   H58       1.0  0.29010  0.55530  0.76710  1.0000 0.1419133508
H   H59       1.0  0.44470  0.70990  0.76710  1.0000 0.1419133508
H   H60       1.0  0.70990  0.44470  0.23290  1.0000 0.1419133508
H   H61       1.0  0.54030  0.15290  0.25390  1.0000 0.1419133508
H   H62       1.0  0.15290  0.54030  0.74610  1.0000 0.1419133508
H   H63       1.0  0.45970  0.84710  0.74610  1.0000 0.1419133508
H   H64       1.0  0.84710  0.45970  0.25390  1.0000 0.1419133508
H   H65       1.0  0.26210  0.07790  0.67480  1.0000 0.1133003762
H   H66       1.0  0.07790  0.26210  0.32520  1.0000 0.1133003762
H   H67       1.0  0.73790  0.92210  0.32520  1.0000 0.1133003762
H   H68       1.0  0.92210  0.73790  0.67480  1.0000 0.1133003762
H   H69       1.0  0.24600  0.08920  0.44220  1.0000 0.1133003762
H   H70       1.0  0.08920  0.24600  0.55780  1.0000 0.1133003762
H   H71       1.0  0.75400  0.91080  0.55780  1.0000 0.1133003762
H   H72       1.0  0.91080  0.75400  0.44220  1.0000 0.1133003762
H   H73       1.0  0.36550  0.21690  0.77440  1.0000 0.1511930903
H   H74       1.0  0.21690  0.36550  0.22560  1.0000 0.1511930903
H   H75       1.0  0.63450  0.78310  0.22560  1.0000 0.1511930903
H   H76       1.0  0.78310  0.63450  0.77440  1.0000 0.1511930903
H   H77       1.0  0.39300  0.26820  0.71830  1.0000 0.1511930903
H   H78       1.0  0.26820  0.39300  0.28170  1.0000 0.1596068223
H   H79       1.0  0.60700  0.73180  0.28170  1.0000 0.1596068223
H   H80       1.0  0.73180  0.60700  0.71830  1.0000 0.1596068223
H   H81       1.0  0.33280  0.22240  0.70310  1.0000 0.1511930903
H   H82       1.0  0.22240  0.33280  0.29690  1.0000 0.1511930903
H   H83       1.0  0.66720  0.77760  0.29690  1.0000 0.1511930903
H   H84       1.0  0.77760  0.66720  0.70310  1.0000 0.1511930903
H   H85       1.0  0.36400  0.04160  0.80250  1.0000 0.1511930903
H   H86       1.0  0.04160  0.36400  0.19750  1.0000 0.1511930903
H   H87       1.0  0.63600  0.95840  0.19750  1.0000 0.1511930903
H   H88       1.0  0.95840  0.63600  0.80250  1.0000 0.1511930903
H   H89       1.0  0.30470  0.02050  0.77730  1.0000 0.1596068223
H   H90       1.0  0.02050  0.30470  0.22270  1.0000 0.1596068223
H   H91       1.0  0.69530  0.97950  0.22270  1.0000 0.1596068223
H   H92       1.0  0.97950  0.69530  0.77730  1.0000 0.1596068223
H   H93       1.0  0.33160  0.99580  0.74350  1.0000 0.1596068223
H   H94       1.0  0.99580  0.33160  0.25650  1.0000 0.1596068223
H   H95       1.0  0.66840  0.00420  0.25650  1.0000 0.1596068223
H   H96       1.0  0.00420  0.66840  0.74350  1.0000 0.1596068223
H   H97       1.0  0.17380  0.04640  0.68450  1.0000 0.1419133508
H   H98       1.0  0.04640  0.17380  0.31550  1.0000 0.1419133508
H   H99       1.0  0.82620  0.95360  0.31550  1.0000 0.1419133508
H   H100      1.0  0.95360  0.82620  0.68450  1.0000 0.1419133508
H   H101      1.0  0.15780  0.05940  0.45290  1.0000 0.1419133508
H   H102      1.0  0.05940  0.15780  0.54710  1.0000 0.1419133508
H   H103      1.0  0.84220  0.94060  0.54710  1.0000 0.1419133508
H   H104      1.0  0.94060  0.84220  0.45290  1.0000 0.1419133508
H   H105      1.0  0.54960  0.15640  0.89060  1.0000 0.1419133508
H   H106      1.0  0.15640  0.54960  0.10940  1.0000 0.1419133508
H   H107      1.0  0.45040  0.84360  0.10940  1.0000 0.1419133508
H   H108      1.0  0.84360  0.45040  0.89060  1.0000 0.1419133508
H   H109      1.0  0.57050  0.29770  0.86090  1.0000 0.1419133508
H   H110      1.0  0.29770  0.57050  0.13910  1.0000 0.1511930903
H   H111      1.0  0.42950  0.70230  0.13910  1.0000 0.1511930903
H   H112      1.0  0.70230  0.42950  0.86090  1.0000 0.1511930903
H   H113      1.0  0.69770  0.16130  0.92460  1.0000 0.1419133508
H   H114      1.0  0.16130  0.69770  0.07540  1.0000 0.1419133508
H   H115      1.0  0.30230  0.83870  0.07540  1.0000 0.1419133508
H   H116      1.0  0.83870  0.30230  0.92460  1.0000 0.1419133508
H   H117      1.0  0.69620  0.16340  0.29360  1.0000 0.1419133508
H   H118      1.0  0.16340  0.69620  0.70640  1.0000 0.1419133508
H   H119      1.0  0.30380  0.83660  0.70640  1.0000 0.1419133508
H   H120      1.0  0.83660  0.30380  0.29360  1.0000 0.1419133508
H   H121      1.0  0.49630  0.13030  0.77770  1.0000 0.1179091421
H   H122      1.0  0.13030  0.49630  0.22230  1.0000 0.1179091421
H   H123      1.0  0.50370  0.86970  0.22230  1.0000 0.1179091421
H   H124      1.0  0.86970  0.50370  0.77770  1.0000 0.1179091421
H   H125      1.0  0.51740  0.27000  0.74800  1.0000 0.1179091421
H   H126      1.0  0.27000  0.51740  0.25200  1.0000 0.1179091421
H   H127      1.0  0.48260  0.73000  0.25200  1.0000 0.1179091421
H   H128      1.0  0.73000  0.48260  0.74800  1.0000 0.1179091421
H   H129      1.0  0.72340  0.13680  0.82310  1.0000 0.1133003762
H   H130      1.0  0.13680  0.72340  0.17690  1.0000 0.1133003762
H   H131      1.0  0.27660  0.86320  0.17690  1.0000 0.1133003762
H   H132      1.0  0.86320  0.27660  0.82310  1.0000 0.1133003762
H   H133      1.0  0.72200  0.13840  0.40990  1.0000 0.1133003762
H   H134      1.0  0.13840  0.72200  0.59010  1.0000 0.1133003762
H   H135      1.0  0.27800  0.86160  0.59010  1.0000 0.1133003762
H   H136      1.0  0.86160  0.27800  0.40990  1.0000 0.1133003762
H   H137      1.0  0.65320  0.14960  0.62340  1.0000 0.1596068223
H   H138      1.0  0.14960  0.65320  0.37660  1.0000 0.1596068223
H   H139      1.0  0.34680  0.85040  0.37660  1.0000 0.1596068223
H   H140      1.0  0.85040  0.34680  0.62340  1.0000 0.1596068223
H   H141      1.0  0.64860  0.12000  0.54960  1.0000 0.1596068223
H   H142      1.0  0.12000  0.64860  0.45040  1.0000 0.1596068223
H   H143      1.0  0.35140  0.88000  0.45040  1.0000 0.1596068223
H   H144      1.0  0.88000  0.35140  0.54960  1.0000 0.1596068223
H   H145      1.0  0.63550  0.09010  0.63260  1.0000 0.1690667526
H   H146      1.0  0.09010  0.63550  0.36740  1.0000 0.1690667526
H   H147      1.0  0.36450  0.90990  0.36740  1.0000 0.1690667526
H   H148      1.0  0.90990  0.36450  0.63260  1.0000 0.1690667526
H   H149      1.0  0.97180  0.20520  0.43830  1.0000 0.1596068223
H   H150      1.0  0.20520  0.97180  0.56170  1.0000 0.1596068223
H   H151      1.0  0.02820  0.79480  0.56170  1.0000 0.1596068223
H   H152      1.0  0.79480  0.02820  0.43830  1.0000 0.1596068223
H   H153      1.0  0.94570  0.23010  0.38590  1.0000 0.1690667526
H   H154      1.0  0.23010  0.94570  0.61410  1.0000 0.1690667526
H   H155      1.0  0.05430  0.76990  0.61410  1.0000 0.1690667526
H   H156      1.0  0.76990  0.05430  0.38590  1.0000 0.1690667526
H   H157      1.0  0.98910  0.26310  0.45180  1.0000 0.1690667526
H   H158      1.0  0.26310  0.98910  0.54820  1.0000 0.1690667526
H   H159      1.0  0.01090  0.73690  0.54820  1.0000 0.1690667526
H   H160      1.0  0.73690  0.01090  0.45180  1.0000 0.1690667526
H   H161      1.0  0.90840  0.09160  0.76260  1.0000 0.1179091421
H   H162      1.0  0.09160  0.90840  0.23740  1.0000 0.1179091421
H   H163      1.0  0.90770  0.09230  0.52970  1.0000 0.1133003762
H   H164      1.0  0.09230  0.90770  0.47030  1.0000 0.1133003762
H   H165      1.0  0.97850  0.27690  0.81310  1.0000 0.1511930903
H   H166      1.0  0.27690  0.97850  0.18690  1.0000 0.1511930903
H   H167      1.0  0.02150  0.72310  0.18690  1.0000 0.1511930903
H   H168      1.0  0.72310  0.02150  0.81310  1.0000 0.1511930903
H   H169      1.0  0.97230  0.22610  0.85600  1.0000 0.1596068223
H   H170      1.0  0.22610  0.97230  0.14400  1.0000 0.1596068223
H   H171      1.0  0.02770  0.77390  0.14400  1.0000 0.1596068223
H   H172      1.0  0.77390  0.02770  0.85600  1.0000 0.1596068223
H   H173      1.0  0.00230  0.24950  0.77750  1.0000 0.1511930903
H   H174      1.0  0.24950  0.00230  0.22250  1.0000 0.1511930903
H   H175      1.0  0.99770  0.75050  0.22250  1.0000 0.1511930903
H   H176      1.0  0.75050  0.99770  0.77750  1.0000 0.1511930903
H   H177      1.0  0.95160  0.04840  0.77350  1.0000 0.1419133508
H   H178      1.0  0.04840  0.95160  0.22650  1.0000 0.1419133508
H   H179      1.0  0.95090  0.04910  0.54210  1.0000 0.1317206604
H   H180      1.0  0.04910  0.95090  0.45790  1.0000 0.1317206604
Ru  Ru1       1.0  0.44832  0.17254  0.45766  1.0000 0.8848903311
Ru  Ru2       1.0  0.17254  0.44832  0.54234  1.0000 0.886379573
Ru  Ru3       1.0  0.55168  0.82746  0.54234  1.0000 0.886379573
Ru  Ru4       1.0  0.82746  0.55168  0.45766  1.0000 0.886379573
Ru  Ru5       1.0  0.34271  0.12461  0.55472  1.0000 0.8965108079
Ru  Ru6       1.0  0.12461  0.34271  0.44528  1.0000 0.8965108079
Ru  Ru7       1.0  0.65729  0.87539  0.44528  1.0000 0.8965108079
Ru  Ru8       1.0  0.87539  0.65729  0.55472  1.0000 0.8965108079
Ru  Ru9       1.0  0.45713  0.17571  0.64920  1.0000 0.8609994185
Ru  Ru10      1.0  0.17571  0.45713  0.35080  1.0000 0.8609994185
Ru  Ru11      1.0  0.54287  0.82429  0.35080  1.0000 0.8609994185
Ru  Ru12      1.0  0.82429  0.54287  0.64920  1.0000 0.8609994185
Ru  Ru13      1.0  0.65639  0.22123  0.08526  1.0000 1.0397769642
Ru  Ru14      1.0  0.22123  0.65639  0.91474  1.0000 1.0397769642
Ru  Ru15      1.0  0.34361  0.77877  0.91474  1.0000 1.0397769642
Ru  Ru16      1.0  0.77877  0.34361  0.08526  1.0000 1.0397769642
Ru  Ru17      1.0  0.66247  0.33753  0.06530  1.0000 1.0092999471
Ru  Ru18      1.0  0.33753  0.66247  0.93470  1.0000 1.0092999471
Ru  Ru19      1.0  0.81465  0.18535  0.71482  1.0000 0.918072058
Ru  Ru20      1.0  0.18535  0.81465  0.28518  1.0000 0.918072058
Ru  Ru21      1.0  0.81304  0.18696  0.52460  1.0000 0.9732950461
Ru  Ru22      1.0  0.18696  0.81304  0.47540  1.0000 0.9732950461
Ru  Ru23      1.0  0.86585  0.13415  0.63257  1.0000 0.853229059
Ru  Ru24      1.0  0.13415  0.86585  0.36743  1.0000 0.853229059
C   C1        1.0  0.35010  0.06770  0.43080  1.0000 0.6123380867
C   C2        1.0  0.06770  0.35010  0.56920  1.0000 0.6123380867
C   C3        1.0  0.64990  0.93230  0.56920  1.0000 0.6123380867
C   C4        1.0  0.93230  0.64990  0.43080  1.0000 0.6123380867
C   C5        1.0  0.37260  0.19700  0.41560  1.0000 0.5909723622
C   C6        1.0  0.19700  0.37260  0.58440  1.0000 0.5909723622
C   C7        1.0  0.62740  0.80300  0.58440  1.0000 0.5909723622
C   C8        1.0  0.80300  0.62740  0.41560  1.0000 0.5909723622
C   C9        1.0  0.50450  0.13190  0.55350  1.0000 0.6209883486
C   C10       1.0  0.13190  0.50450  0.44650  1.0000 0.6209883486
C   C11       1.0  0.49550  0.86810  0.44650  1.0000 0.6209883486
C   C12       1.0  0.86810  0.49550  0.55350  1.0000 0.6209883486
C   C13       1.0  0.51910  0.26610  0.54730  1.0000 0.6209883486
C   C14       1.0  0.26610  0.51910  0.45270  1.0000 0.6209883486
C   C15       1.0  0.48090  0.73390  0.45270  1.0000 0.6209883486
C   C16       1.0  0.73390  0.48090  0.54730  1.0000 0.6209883486
C   C17       1.0  0.50710  0.23850  0.31950  1.0000 0.0894684979
C   C18       1.0  0.23850  0.50710  0.68050  1.0000 0.0894684979
C   C19       1.0  0.49290  0.76150  0.68050  1.0000 0.0894684979
C   C20       1.0  0.76150  0.49290  0.31950  1.0000 0.0894684979
C   C21       1.0  0.49710  0.15430  0.33200  1.0000 0.0593615774
C   C22       1.0  0.15430  0.49710  0.66800  1.0000 0.0593615774
C   C23       1.0  0.50290  0.84570  0.66800  1.0000 0.0593615774
C   C24       1.0  0.84570  0.50290  0.33200  1.0000 0.0593615774
C   C25       1.0  0.32100  0.01840  0.38630  1.0000 -0.5688744838
C   C26       1.0  0.01840  0.32100  0.61370  1.0000 -0.5688744838
C   C27       1.0  0.67900  0.98160  0.61370  1.0000 -0.5688744838
C   C28       1.0  0.98160  0.67900  0.38630  1.0000 -0.5688744838
C   C29       1.0  0.34820  0.22080  0.36090  1.0000 -0.520152655
C   C30       1.0  0.22080  0.34820  0.63910  1.0000 -0.5281901864
C   C31       1.0  0.65180  0.77920  0.63910  1.0000 -0.5281901864
C   C32       1.0  0.77920  0.65180  0.36090  1.0000 -0.5281901864
C   C33       1.0  0.54180  0.11500  0.56550  1.0000 -0.5688744838
C   C34       1.0  0.11500  0.54180  0.43450  1.0000 -0.5688744838
C   C35       1.0  0.45820  0.88500  0.43450  1.0000 -0.5688744838
C   C36       1.0  0.88500  0.45820  0.56550  1.0000 -0.5688744838
C   C37       1.0  0.55960  0.32540  0.54250  1.0000 -0.5688744838
C   C38       1.0  0.32540  0.55960  0.45750  1.0000 -0.5688744838
C   C39       1.0  0.44040  0.67460  0.45750  1.0000 -0.5688744838
C   C40       1.0  0.67460  0.44040  0.54250  1.0000 -0.5688744838
C   C41       1.0  0.54070  0.25650  0.25770  1.0000 -0.1249229106
C   C42       1.0  0.25650  0.54070  0.74230  1.0000 -0.130127495
C   C43       1.0  0.45930  0.74350  0.74230  1.0000 -0.130127495
C   C44       1.0  0.74350  0.45930  0.25770  1.0000 -0.1249229106
C   C45       1.0  0.53070  0.17410  0.27150  1.0000 -0.172087686
C   C46       1.0  0.17410  0.53070  0.72850  1.0000 -0.172087686
C   C47       1.0  0.46930  0.82590  0.72850  1.0000 -0.172087686
C   C48       1.0  0.82590  0.46930  0.27150  1.0000 -0.172087686
C   C49       1.0  0.38320  0.20560  0.66740  1.0000 0.5909723622
C   C50       1.0  0.20560  0.38320  0.33260  1.0000 0.5909723622
C   C51       1.0  0.61680  0.79440  0.33260  1.0000 0.5909723622
C   C52       1.0  0.79440  0.61680  0.66740  1.0000 0.5909723622
C   C53       1.0  0.36100  0.07040  0.69390  1.0000 0.6123380867
C   C54       1.0  0.07040  0.36100  0.30610  1.0000 0.6123380867
C   C55       1.0  0.63900  0.92960  0.30610  1.0000 0.6123380867
C   C56       1.0  0.92960  0.63900  0.69390  1.0000 0.6123380867
C   C57       1.0  0.24090  0.07430  0.62980  1.0000 0.0500282288
C   C58       1.0  0.07430  0.24090  0.37020  1.0000 0.0500282288
C   C59       1.0  0.75910  0.92570  0.37020  1.0000 0.0500282288
C   C60       1.0  0.92570  0.75910  0.62980  1.0000 0.0500282288
C   C61       1.0  0.23120  0.08100  0.49110  1.0000 0.0593615774
C   C62       1.0  0.08100  0.23120  0.50890  1.0000 0.0593615774
C   C63       1.0  0.76880  0.91900  0.50890  1.0000 0.0593615774
C   C64       1.0  0.91900  0.76880  0.49110  1.0000 0.0593615774
C   C65       1.0  0.55220  0.22420  0.23320  1.0000 0.00852062
C   C66       1.0  0.22420  0.55220  0.76680  1.0000 0.00852062
C   C67       1.0  0.44780  0.77580  0.76680  1.0000 0.00852062
C   C68       1.0  0.77580  0.44780  0.23320  1.0000 0.00852062
C   C69       1.0  0.36710  0.23030  0.72110  1.0000 -0.5281901864
C   C70       1.0  0.23030  0.36710  0.27890  1.0000 -0.5281901864
C   C71       1.0  0.63290  0.76970  0.27890  1.0000 -0.5281901864
C   C72       1.0  0.76970  0.63290  0.72110  1.0000 -0.5281901864
C   C73       1.0  0.33740  0.02800  0.76000  1.0000 -0.5379004496
C   C74       1.0  0.02800  0.33740  0.24000  1.0000 -0.5379004496
C   C75       1.0  0.66260  0.97200  0.24000  1.0000 -0.5379004496
C   C76       1.0  0.97200  0.66260  0.76000  1.0000 -0.5379004496
C   C77       1.0  0.18850  0.05550  0.63560  1.0000 -0.142495056
C   C78       1.0  0.05550  0.18850  0.36440  1.0000 -0.142495056
C   C79       1.0  0.81150  0.94450  0.36440  1.0000 -0.142495056
C   C80       1.0  0.94450  0.81150  0.63560  1.0000 -0.142495056
C   C81       1.0  0.17880  0.06240  0.49790  1.0000 -0.130127495
C   C82       1.0  0.06240  0.17880  0.50210  1.0000 -0.130127495
C   C83       1.0  0.82120  0.93760  0.50210  1.0000 -0.130127495
C   C84       1.0  0.93760  0.82120  0.49790  1.0000 -0.130127495
C   C85       1.0  0.59100  0.24260  0.17380  1.0000 0.548712083
C   C86       1.0  0.24260  0.59100  0.82620  1.0000 0.548712083
C   C87       1.0  0.40900  0.75740  0.82620  1.0000 0.548712083
C   C88       1.0  0.75740  0.40900  0.17380  1.0000 0.548712083
C   C89       1.0  0.15800  0.04980  0.56910  1.0000 0.00852062
C   C90       1.0  0.04980  0.15800  0.43090  1.0000 0.00852062
C   C91       1.0  0.84200  0.95020  0.43090  1.0000 0.00852062
C   C92       1.0  0.95020  0.84200  0.56910  1.0000 0.00852062
C   C93       1.0  0.10260  0.02900  0.58350  1.0000 0.5954235923
C   C94       1.0  0.02900  0.10260  0.41650  1.0000 0.5954235923
C   C95       1.0  0.89740  0.97100  0.41650  1.0000 0.5954235923
C   C96       1.0  0.97100  0.89740  0.58350  1.0000 0.5954235923
C   C97       1.0  0.60210  0.24770  0.95860  1.0000 0.548712083
C   C98       1.0  0.24770  0.60210  0.04140  1.0000 0.548712083
C   C99       1.0  0.39790  0.75230  0.04140  1.0000 0.548712083
C   C100      1.0  0.75230  0.39790  0.95860  1.0000 0.548712083
C   C101      1.0  0.74690  0.25310  0.99220  1.0000 0.548712083
C   C102      1.0  0.25310  0.74690  0.00780  1.0000 0.548712083
C   C103      1.0  0.74860  0.25140  0.20030  1.0000 0.548712083
C   C104      1.0  0.25140  0.74860  0.79970  1.0000 0.548712083
C   C105      1.0  0.56590  0.22950  0.88580  1.0000 0.0379231275
C   C106      1.0  0.22950  0.56590  0.11420  1.0000 0.0379231275
C   C107      1.0  0.43410  0.77050  0.11420  1.0000 0.0379231275
C   C108      1.0  0.77050  0.43410  0.88580  1.0000 0.0379231275
C   C109      1.0  0.76750  0.23250  0.93770  1.0000 0.0379231275
C   C110      1.0  0.23250  0.76750  0.06230  1.0000 0.0379231275
C   C111      1.0  0.76380  0.23620  0.28160  1.0000 0.0379231275
C   C112      1.0  0.23620  0.76380  0.71840  1.0000 0.0379231275
C   C113      1.0  0.54340  0.17940  0.86050  1.0000 -0.142495056
C   C114      1.0  0.17940  0.54340  0.13950  1.0000 -0.142495056
C   C115      1.0  0.45660  0.82060  0.13950  1.0000 -0.142495056
C   C116      1.0  0.82060  0.45660  0.86050  1.0000 -0.142495056
C   C117      1.0  0.55570  0.26350  0.84440  1.0000 -0.130127495
C   C118      1.0  0.26350  0.55570  0.15560  1.0000 -0.130127495
C   C119      1.0  0.44430  0.73650  0.15560  1.0000 -0.130127495
C   C120      1.0  0.73650  0.44430  0.84440  1.0000 -0.130127495
C   C121      1.0  0.73140  0.18440  0.90500  1.0000 -0.142495056
C   C122      1.0  0.18440  0.73140  0.09500  1.0000 -0.142495056
C   C123      1.0  0.26860  0.81560  0.09500  1.0000 -0.142495056
C   C124      1.0  0.81560  0.26860  0.90500  1.0000 -0.142495056
C   C125      1.0  0.72990  0.18690  0.31680  1.0000 -0.1490909624
C   C126      1.0  0.18690  0.72990  0.68320  1.0000 -0.1490909624
C   C127      1.0  0.27010  0.81310  0.68320  1.0000 -0.1490909624
C   C128      1.0  0.81310  0.27010  0.31680  1.0000 -0.1490909624
C   C129      1.0  0.51180  0.16460  0.79450  1.0000 0.0776784458
C   C130      1.0  0.16460  0.51180  0.20550  1.0000 0.0776784458
C   C131      1.0  0.48820  0.83540  0.20550  1.0000 0.0776784458
C   C132      1.0  0.83540  0.48820  0.79450  1.0000 0.0776784458
C   C133      1.0  0.52410  0.24750  0.77860  1.0000 0.0593615774
C   C134      1.0  0.24750  0.52410  0.22140  1.0000 0.0593615774
C   C135      1.0  0.47590  0.75250  0.22140  1.0000 0.0593615774
C   C136      1.0  0.75250  0.47590  0.77860  1.0000 0.0593615774
C   C137      1.0  0.74690  0.17010  0.84450  1.0000 0.0724000242
C   C138      1.0  0.17010  0.74690  0.15550  1.0000 0.0724000242
C   C139      1.0  0.25310  0.82990  0.15550  1.0000 0.0724000242
C   C140      1.0  0.82990  0.25310  0.84450  1.0000 0.0724000242
C   C141      1.0  0.74500  0.17200  0.38630  1.0000 0.0593615774
C   C142      1.0  0.17200  0.74500  0.61370  1.0000 0.0593615774
C   C143      1.0  0.25500  0.82800  0.61370  1.0000 0.0593615774
C   C144      1.0  0.82800  0.25500  0.38630  1.0000 0.0593615774
C   C145      1.0  0.71150  0.14290  0.61980  1.0000 0.6209883486
C   C146      1.0  0.14290  0.71150  0.38020  1.0000 0.6209883486
C   C147      1.0  0.28850  0.85710  0.38020  1.0000 0.6209883486
C   C148      1.0  0.85710  0.28850  0.61980  1.0000 0.6209883486
C   C149      1.0  0.91630  0.20510  0.49540  1.0000 0.6209883486
C   C150      1.0  0.20510  0.91630  0.50460  1.0000 0.6209883486
C   C151      1.0  0.08370  0.79490  0.50460  1.0000 0.6209883486
C   C152      1.0  0.79490  0.08370  0.49540  1.0000 0.6209883486
C   C153      1.0  0.65790  0.12390  0.60490  1.0000 -0.5906904208
C   C154      1.0  0.12390  0.65790  0.39510  1.0000 -0.5906904208
C   C155      1.0  0.34210  0.87610  0.39510  1.0000 -0.5906904208
C   C156      1.0  0.87610  0.34210  0.60490  1.0000 -0.5906904208
C   C157      1.0  0.95970  0.22810  0.43760  1.0000 -0.5602272096
C   C158      1.0  0.22810  0.95970  0.56240  1.0000 -0.5602272096
C   C159      1.0  0.04030  0.77190  0.56240  1.0000 -0.5602272096
C   C160      1.0  0.77190  0.04030  0.43760  1.0000 -0.5602272096
C   C161      1.0  0.92190  0.21070  0.75730  1.0000 0.5909723622
C   C162      1.0  0.21070  0.92190  0.24270  1.0000 0.5909723622
C   C163      1.0  0.07810  0.78930  0.24270  1.0000 0.5909723622
C   C164      1.0  0.78930  0.07810  0.75730  1.0000 0.5909723622
C   C165      1.0  0.91700  0.08300  0.71820  1.0000 0.0500282288
C   C166      1.0  0.08300  0.91700  0.28180  1.0000 0.0500282288
C   C167      1.0  0.91670  0.08330  0.57900  1.0000 0.0500282288
C   C168      1.0  0.08330  0.91670  0.42100  1.0000 0.0500282288
C   C169      1.0  0.97340  0.24340  0.80570  1.0000 -0.5281901864
C   C170      1.0  0.24340  0.97340  0.19430  1.0000 -0.5281901864
C   C171      1.0  0.02660  0.75660  0.19430  1.0000 -0.5281901864
C   C172      1.0  0.75660  0.02660  0.80570  1.0000 -0.5281901864
C   C173      1.0  0.94250  0.05750  0.72440  1.0000 -0.142495056
C   C174      1.0  0.05750  0.94250  0.27560  1.0000 -0.142495056
C   C175      1.0  0.94230  0.05770  0.58630  1.0000 -0.130127495
C   C176      1.0  0.05770  0.94230  0.41370  1.0000 -0.130127495
C   C177      1.0  0.95430  0.04570  0.65840  1.0000 0.0329255817
C   C178      1.0  0.04570  0.95430  0.34160  1.0000 0.0329255817
C   C179      1.0  0.98210  0.01790  0.67220  1.0000 0.5721175802
C   C180      1.0  0.01790  0.98210  0.32780  1.0000 0.5721175802
N   N1        1.0  0.48790  0.18990  0.35220  1.0000 -0.2218916881
N   N2        1.0  0.18990  0.48790  0.64780  1.0000 -0.2218916881
N   N3        1.0  0.51210  0.81010  0.64780  1.0000 -0.2218916881
N   N4        1.0  0.81010  0.51210  0.35220  1.0000 -0.2218916881
N   N5        1.0  0.26140  0.08700  0.55770  1.0000 -0.2067802596
N   N6        1.0  0.08700  0.26140  0.44230  1.0000 -0.2067802596
N   N7        1.0  0.73860  0.91300  0.44230  1.0000 -0.201134106
N   N8        1.0  0.91300  0.73860  0.55770  1.0000 -0.2067802596
N   N9        1.0  0.50250  0.19790  0.75470  1.0000 -0.172087686
N   N10       1.0  0.19790  0.50250  0.24530  1.0000 -0.1753201055
N   N11       1.0  0.49750  0.80210  0.24530  1.0000 -0.1753201055
N   N12       1.0  0.80210  0.49750  0.75470  1.0000 -0.172087686
N   N13       1.0  0.79460  0.20540  0.81310  1.0000 -0.201134106
N   N14       1.0  0.20540  0.79460  0.18690  1.0000 -0.201134106
N   N15       1.0  0.79390  0.20610  0.42060  1.0000 -0.201134106
N   N16       1.0  0.20610  0.79390  0.57940  1.0000 -0.194524275
N   N17       1.0  0.90490  0.09510  0.64450  1.0000 -0.2067802596
N   N18       1.0  0.09510  0.90490  0.35550  1.0000 -0.2067802596
O   O1        1.0  0.39670  0.09410  0.42320  1.0000 -0.4719409684
O   O2        1.0  0.09410  0.39670  0.57680  1.0000 -0.4719409684
O   O3        1.0  0.60330  0.90590  0.57680  1.0000 -0.4719409684
O   O4        1.0  0.90590  0.60330  0.42320  1.0000 -0.4719409684
O   O5        1.0  0.40690  0.19410  0.39820  1.0000 -0.4407424423
O   O6        1.0  0.19410  0.40690  0.60180  1.0000 -0.4407424423
O   O7        1.0  0.59310  0.80590  0.60180  1.0000 -0.4407424423
O   O8        1.0  0.80590  0.59310  0.39820  1.0000 -0.4407424423
O   O9        1.0  0.49620  0.15220  0.49740  1.0000 -0.4320032912
O   O10       1.0  0.15220  0.49620  0.50260  1.0000 -0.4320032912
O   O11       1.0  0.50380  0.84780  0.50260  1.0000 -0.4320032912
O   O12       1.0  0.84780  0.50380  0.49740  1.0000 -0.4320032912
O   O13       1.0  0.50080  0.25080  0.48270  1.0000 -0.4887525349
O   O14       1.0  0.25080  0.50080  0.51730  1.0000 -0.4887525349
O   O15       1.0  0.49920  0.74920  0.51730  1.0000 -0.4887525349
O   O16       1.0  0.74920  0.49920  0.48270  1.0000 -0.4887525349
O   O17       1.0  0.41610  0.15650  0.54890  1.0000 -0.6989753264
O   O18       1.0  0.15650  0.41610  0.45110  1.0000 -0.6989753264
O   O19       1.0  0.58390  0.84350  0.45110  1.0000 -0.6989753264
O   O20       1.0  0.84350  0.58390  0.54890  1.0000 -0.6989753264
O   O21       1.0  0.32590  0.07390  0.47150  1.0000 -0.4407424423
O   O22       1.0  0.07390  0.32590  0.52850  1.0000 -0.4407424423
O   O23       1.0  0.67410  0.92610  0.52850  1.0000 -0.4407424423
O   O24       1.0  0.92610  0.67410  0.47150  1.0000 -0.4407424423
O   O25       1.0  0.34410  0.17730  0.47420  1.0000 -0.5104839074
O   O26       1.0  0.17730  0.34410  0.52580  1.0000 -0.5104839074
O   O27       1.0  0.65590  0.82270  0.52580  1.0000 -0.5104839074
O   O28       1.0  0.82270  0.65590  0.47420  1.0000 -0.5104839074
O   O29       1.0  0.49580  0.13940  0.61680  1.0000 -0.4887525349
O   O30       1.0  0.13940  0.49580  0.38320  1.0000 -0.4887525349
O   O31       1.0  0.50420  0.86060  0.38320  1.0000 -0.4887525349
O   O32       1.0  0.86060  0.50420  0.61680  1.0000 -0.4887525349
O   O33       1.0  0.51360  0.24720  0.61090  1.0000 -0.4320032912
O   O34       1.0  0.24720  0.51360  0.38910  1.0000 -0.4320032912
O   O35       1.0  0.48640  0.75280  0.38910  1.0000 -0.4320032912
O   O36       1.0  0.75280  0.48640  0.61090  1.0000 -0.4320032912
O   O37       1.0  0.34600  0.16880  0.63410  1.0000 -0.4719409684
O   O38       1.0  0.16880  0.34600  0.36590  1.0000 -0.4719409684
O   O39       1.0  0.65400  0.83120  0.36590  1.0000 -0.4719409684
O   O40       1.0  0.83120  0.65400  0.63410  1.0000 -0.4719409684
O   O41       1.0  0.33460  0.06920  0.63560  1.0000 -0.4887525349
O   O42       1.0  0.06920  0.33460  0.36440  1.0000 -0.4887525349
O   O43       1.0  0.66540  0.93080  0.36440  1.0000 -0.4887525349
O   O44       1.0  0.93080  0.66540  0.63560  1.0000 -0.4887525349
O   O45       1.0  0.42770  0.21470  0.67930  1.0000 -0.4953064638
O   O46       1.0  0.21470  0.42770  0.32070  1.0000 -0.4953064638
O   O47       1.0  0.57230  0.78530  0.32070  1.0000 -0.4953064638
O   O48       1.0  0.78530  0.57230  0.67930  1.0000 -0.4953064638
O   O49       1.0  0.40600  0.10840  0.70670  1.0000 -0.4719409684
O   O50       1.0  0.10840  0.40600  0.29330  1.0000 -0.4719409684
O   O51       1.0  0.59400  0.89160  0.29330  1.0000 -0.4719409684
O   O52       1.0  0.89160  0.59400  0.70670  1.0000 -0.4719409684
O   O53       1.0  0.60560  0.21620  0.15570  1.0000 -0.4621440597
O   O54       1.0  0.21620  0.60560  0.84430  1.0000 -0.4621440597
O   O55       1.0  0.39440  0.78380  0.84430  1.0000 -0.4621440597
O   O56       1.0  0.78380  0.39440  0.15570  1.0000 -0.4621440597
O   O57       1.0  0.61010  0.28750  0.15070  1.0000 -0.4621440597
O   O58       1.0  0.28750  0.61010  0.84930  1.0000 -0.4621440597
O   O59       1.0  0.38990  0.71250  0.84930  1.0000 -0.4621440597
O   O60       1.0  0.71250  0.38990  0.15070  1.0000 -0.4621440597
O   O61       1.0  0.07720  0.02500  0.52070  1.0000 -0.5602272096
O   O62       1.0  0.02500  0.07720  0.47930  1.0000 -0.5602272096
O   O63       1.0  0.92280  0.97500  0.47930  1.0000 -0.5602272096
O   O64       1.0  0.97500  0.92280  0.52070  1.0000 -0.5602272096
O   O65       1.0  0.08960  0.01980  0.65300  1.0000 -0.5688744838
O   O66       1.0  0.01980  0.08960  0.34700  1.0000 -0.5688744838
O   O67       1.0  0.91040  0.98020  0.34700  1.0000 -0.5688744838
O   O68       1.0  0.98020  0.91040  0.65300  1.0000 -0.5688744838
O   O69       1.0  0.61090  0.21710  0.99130  1.0000 -0.4621440597
O   O70       1.0  0.21710  0.61090  0.00870  1.0000 -0.4621440597
O   O71       1.0  0.38910  0.78290  0.00870  1.0000 -0.4621440597
O   O72       1.0  0.78290  0.38910  0.99130  1.0000 -0.4719409684
O   O73       1.0  0.70300  0.21800  0.01490  1.0000 -0.4719409684
O   O74       1.0  0.21800  0.70300  0.98510  1.0000 -0.4719409684
O   O75       1.0  0.29700  0.78200  0.98510  1.0000 -0.4719409684
O   O76       1.0  0.78200  0.29700  0.01490  1.0000 -0.4719409684
O   O77       1.0  0.70320  0.22180  0.17620  1.0000 -0.4719409684
O   O78       1.0  0.22180  0.70320  0.82380  1.0000 -0.4719409684
O   O79       1.0  0.29680  0.77820  0.82380  1.0000 -0.4719409684
O   O80       1.0  0.77820  0.29680  0.17620  1.0000 -0.4719409684
O   O81       1.0  0.69943  0.30057  0.07970  1.0000 -0.8579376804
O   O82       1.0  0.30057  0.69943  0.92030  1.0000 -0.8543966877
O   O83       1.0  0.61350  0.29030  0.97900  1.0000 -0.4887525349
O   O84       1.0  0.29030  0.61350  0.02100  1.0000 -0.4887525349
O   O85       1.0  0.38650  0.70970  0.02100  1.0000 -0.4845356214
O   O86       1.0  0.70970  0.38650  0.97900  1.0000 -0.4887525349
O   O87       1.0  0.73800  0.15900  0.55560  1.0000 -0.5281901864
O   O88       1.0  0.15900  0.73800  0.44440  1.0000 -0.5281901864
O   O89       1.0  0.26200  0.84100  0.44440  1.0000 -0.5281901864
O   O90       1.0  0.84100  0.26200  0.55560  1.0000 -0.5281901864
O   O91       1.0  0.88440  0.21640  0.48160  1.0000 -0.4887525349
O   O92       1.0  0.21640  0.88440  0.51840  1.0000 -0.4887525349
O   O93       1.0  0.11560  0.78360  0.51840  1.0000 -0.4887525349
O   O94       1.0  0.78360  0.11560  0.48160  1.0000 -0.4887525349
O   O95       1.0  0.82930  0.17070  0.61740  1.0000 -0.6802537906
O   O96       1.0  0.17070  0.82930  0.38260  1.0000 -0.6802537906
O   O97       1.0  0.74230  0.15750  0.68130  1.0000 -0.4887525349
O   O98       1.0  0.15750  0.74230  0.31870  1.0000 -0.4887525349
O   O99       1.0  0.25770  0.84250  0.31870  1.0000 -0.4887525349
O   O100      1.0  0.84250  0.25770  0.68130  1.0000 -0.4887525349
O   O101      1.0  0.92030  0.18290  0.55210  1.0000 -0.4506297874
O   O102      1.0  0.18290  0.92030  0.44790  1.0000 -0.4506297874
O   O103      1.0  0.07970  0.81710  0.44790  1.0000 -0.4506297874
O   O104      1.0  0.81710  0.07970  0.55210  1.0000 -0.4506297874
O   O105      1.0  0.88640  0.21500  0.76900  1.0000 -0.4887525349
O   O106      1.0  0.21500  0.88640  0.23100  1.0000 -0.4887525349
O   O107      1.0  0.11360  0.78500  0.23100  1.0000 -0.4887525349
O   O108      1.0  0.78500  0.11360  0.76900  1.0000 -0.4887525349
O   O109      1.0  0.91950  0.18150  0.71430  1.0000 -0.4621440597
O   O110      1.0  0.18150  0.91950  0.28570  1.0000 -0.4621440597
O   O111      1.0  0.08050  0.81850  0.28570  1.0000 -0.4621440597
O   O112      1.0  0.81850  0.08050  0.71430  1.0000 -0.4621440597
O   O113      1.0  0.99260  0.00740  0.61490  1.0000 -0.520152655
O   O114      1.0  0.00740  0.99260  0.38510  1.0000 -0.520152655
O   O115      1.0  0.98970  0.01030  0.73970  1.0000 -0.4887525349
O   O116      1.0  0.01030  0.98970  0.26030  1.0000 -0.4887525349
