# DDEC6 charges by PACMAN v1.1 (https://github.com/mtap-research/PACMAN-charge/)
data_2015[Cu][ssa]3[ASR]1
_chemical_formula_sum              "Cu12 H66 C132 N6 O48"
_cell_length_a       18.448
_cell_length_b       18.448
_cell_length_c       23.939
_cell_angle_alpha    90
_cell_angle_beta     90
_cell_angle_gamma    120

_symmetry_space_group_name_H-M    "P 1"
_symmetry_Int_Tables_number       1

loop_
  _symmetry_equiv_pos_as_xyz
  'x, y, z'

loop_
  _atom_site_type_symbol
  _atom_site_label
  _atom_site_symmetry_multiplicity
  _atom_site_fract_x
  _atom_site_fract_y
  _atom_site_fract_z
  _atom_site_occupancy
  _atom_site_charge
Cu  Cu1       1.0  0.52429  0.04858  0.04494  1.0000 0.8622699987
Cu  Cu2       1.0  0.47571  0.52429  0.54494  1.0000 0.8622699987
Cu  Cu3       1.0  0.95142  0.47571  0.04494  1.0000 0.8622699987
Cu  Cu4       1.0  0.47571  0.95142  0.54494  1.0000 0.8622699987
Cu  Cu5       1.0  0.52429  0.47571  0.04494  1.0000 0.8622699987
Cu  Cu6       1.0  0.04858  0.52429  0.54494  1.0000 0.8622699987
Cu  Cu7       1.0  0.47571  0.95142  0.95506  1.0000 0.8622699987
Cu  Cu8       1.0  0.47571  0.52429  0.95506  1.0000 0.8622699987
Cu  Cu9       1.0  0.04858  0.52429  0.95506  1.0000 0.8622699987
Cu  Cu10      1.0  0.95142  0.47571  0.45506  1.0000 0.8622699987
Cu  Cu11      1.0  0.52429  0.04858  0.45506  1.0000 0.8622699987
Cu  Cu12      1.0  0.52429  0.47571  0.45506  1.0000 0.8622699987
H   H1        1.0  0.23580  0.76420  0.01030  1.0000 0.143973795
H   H2        1.0  0.47160  0.23580  0.51030  1.0000 0.143973795
H   H3        1.0  0.23580  0.47160  0.01030  1.0000 0.143973795
H   H4        1.0  0.76420  0.23580  0.51030  1.0000 0.143973795
H   H5        1.0  0.52840  0.76420  0.01030  1.0000 0.143973795
H   H6        1.0  0.76420  0.52840  0.51030  1.0000 0.143973795
H   H7        1.0  0.47160  0.23580  0.98970  1.0000 0.143973795
H   H8        1.0  0.76420  0.52840  0.98970  1.0000 0.143973795
H   H9        1.0  0.76420  0.23580  0.98970  1.0000 0.143973795
H   H10       1.0  0.23580  0.76420  0.48970  1.0000 0.143973795
H   H11       1.0  0.52840  0.76420  0.48970  1.0000 0.143973795
H   H12       1.0  0.23580  0.47160  0.48970  1.0000 0.143973795
H   H13       1.0  0.29060  0.92720  0.13800  1.0000 0.1302588941
H   H14       1.0  0.36340  0.29060  0.63800  1.0000 0.1302588941
H   H15       1.0  0.07280  0.36340  0.13800  1.0000 0.1302588941
H   H16       1.0  0.70940  0.07280  0.63800  1.0000 0.1302588941
H   H17       1.0  0.63660  0.70940  0.13800  1.0000 0.1302588941
H   H18       1.0  0.92720  0.63660  0.63800  1.0000 0.1302588941
H   H19       1.0  0.36340  0.07280  0.86200  1.0000 0.1302588941
H   H20       1.0  0.70940  0.63660  0.86200  1.0000 0.1302588941
H   H21       1.0  0.92720  0.29060  0.86200  1.0000 0.1302588941
H   H22       1.0  0.07280  0.70940  0.36200  1.0000 0.1302588941
H   H23       1.0  0.63660  0.92720  0.36200  1.0000 0.1302588941
H   H24       1.0  0.29060  0.36340  0.36200  1.0000 0.1302588941
H   H25       1.0  0.70940  0.07280  0.86200  1.0000 0.1302588941
H   H26       1.0  0.63660  0.70940  0.36200  1.0000 0.1302588941
H   H27       1.0  0.92720  0.63660  0.86200  1.0000 0.1302588941
H   H28       1.0  0.29060  0.92720  0.36200  1.0000 0.1302588941
H   H29       1.0  0.36340  0.29060  0.86200  1.0000 0.1302588941
H   H30       1.0  0.07280  0.36340  0.36200  1.0000 0.1302588941
H   H31       1.0  0.63660  0.92720  0.13800  1.0000 0.1302588941
H   H32       1.0  0.29060  0.36340  0.13800  1.0000 0.1302588941
H   H33       1.0  0.07280  0.70940  0.13800  1.0000 0.1302588941
H   H34       1.0  0.92720  0.29060  0.63800  1.0000 0.1302588941
H   H35       1.0  0.36340  0.07280  0.63800  1.0000 0.1302588941
H   H36       1.0  0.70940  0.63660  0.63800  1.0000 0.1302588941
H   H37       1.0  0.23070  0.76930  0.21820  1.0000 0.2965645578
H   H38       1.0  0.46140  0.23070  0.71820  1.0000 0.2965645578
H   H39       1.0  0.23070  0.46140  0.21820  1.0000 0.2965645578
H   H40       1.0  0.76930  0.23070  0.71820  1.0000 0.2965645578
H   H41       1.0  0.53860  0.76930  0.21820  1.0000 0.2965645578
H   H42       1.0  0.76930  0.53860  0.71820  1.0000 0.2965645578
H   H43       1.0  0.46140  0.23070  0.78180  1.0000 0.2965645578
H   H44       1.0  0.76930  0.53860  0.78180  1.0000 0.2965645578
H   H45       1.0  0.76930  0.23070  0.78180  1.0000 0.2965645578
H   H46       1.0  0.23070  0.76930  0.28180  1.0000 0.2965645578
H   H47       1.0  0.53860  0.76930  0.28180  1.0000 0.2965645578
H   H48       1.0  0.23070  0.46140  0.28180  1.0000 0.2965645578
H   H49       1.0  0.05840  0.94160  0.25000  1.0000 0.1044474205
H   H50       1.0  0.11680  0.05840  0.75000  1.0000 0.1044474205
H   H51       1.0  0.05840  0.11680  0.25000  1.0000 0.1044474205
H   H52       1.0  0.94160  0.05840  0.75000  1.0000 0.1044474205
H   H53       1.0  0.88320  0.94160  0.25000  1.0000 0.1044474205
H   H54       1.0  0.94160  0.88320  0.75000  1.0000 0.1044474205
H   H55       1.0  0.09470  0.90530  0.16540  1.0000 0.1178386241
H   H56       1.0  0.18940  0.09470  0.66540  1.0000 0.1178386241
H   H57       1.0  0.09470  0.18940  0.16540  1.0000 0.1178386241
H   H58       1.0  0.90530  0.09470  0.66540  1.0000 0.1178386241
H   H59       1.0  0.81060  0.90530  0.16540  1.0000 0.1178386241
H   H60       1.0  0.90530  0.81060  0.66540  1.0000 0.1178386241
H   H61       1.0  0.18940  0.09470  0.83460  1.0000 0.1178386241
H   H62       1.0  0.90530  0.81060  0.83460  1.0000 0.1178386241
H   H63       1.0  0.90530  0.09470  0.83460  1.0000 0.1178386241
H   H64       1.0  0.09470  0.90530  0.33460  1.0000 0.1178386241
H   H65       1.0  0.81060  0.90530  0.33460  1.0000 0.1178386241
H   H66       1.0  0.09470  0.18940  0.33460  1.0000 0.1178386241
C   C1        1.0  0.22104  0.77896  0.04469  1.0000 -0.1043014806
C   C2        1.0  0.44208  0.22104  0.54469  1.0000 -0.1043014806
C   C3        1.0  0.22104  0.44208  0.04469  1.0000 -0.1060652945
C   C4        1.0  0.77896  0.22104  0.54469  1.0000 -0.1043014806
C   C5        1.0  0.55792  0.77896  0.04469  1.0000 -0.1043014806
C   C6        1.0  0.77896  0.55792  0.54469  1.0000 -0.1043014806
C   C7        1.0  0.44208  0.22104  0.95531  1.0000 -0.1043014806
C   C8        1.0  0.77896  0.55792  0.95531  1.0000 -0.1043014806
C   C9        1.0  0.77896  0.22104  0.95531  1.0000 -0.1043014806
C   C10       1.0  0.22104  0.77896  0.45531  1.0000 -0.1043014806
C   C11       1.0  0.55792  0.77896  0.45531  1.0000 -0.1043014806
C   C12       1.0  0.22104  0.44208  0.45531  1.0000 -0.1060652945
C   C13       1.0  0.27530  0.85486  0.06984  1.0000 -0.0281583475
C   C14       1.0  0.42044  0.27530  0.56984  1.0000 -0.0243800849
C   C15       1.0  0.14514  0.42044  0.06984  1.0000 -0.0243800849
C   C16       1.0  0.72470  0.14514  0.56984  1.0000 -0.0243800849
C   C17       1.0  0.57956  0.72470  0.06984  1.0000 -0.0281583475
C   C18       1.0  0.85486  0.57956  0.56984  1.0000 -0.0243800849
C   C19       1.0  0.42044  0.14514  0.93016  1.0000 -0.0243800849
C   C20       1.0  0.72470  0.57956  0.93016  1.0000 -0.0243800849
C   C21       1.0  0.85486  0.27530  0.93016  1.0000 -0.0243800849
C   C22       1.0  0.14514  0.72470  0.43016  1.0000 -0.0281583475
C   C23       1.0  0.57956  0.85486  0.43016  1.0000 -0.0281583475
C   C24       1.0  0.27530  0.42044  0.43016  1.0000 -0.0243800849
C   C25       1.0  0.72470  0.14514  0.93016  1.0000 -0.0243800849
C   C26       1.0  0.57956  0.72470  0.43016  1.0000 -0.0281583475
C   C27       1.0  0.85486  0.57956  0.93016  1.0000 -0.0243800849
C   C28       1.0  0.27530  0.85486  0.43016  1.0000 -0.0281583475
C   C29       1.0  0.42044  0.27530  0.93016  1.0000 -0.0281583475
C   C30       1.0  0.14514  0.42044  0.43016  1.0000 -0.0243800849
C   C31       1.0  0.57956  0.85486  0.06984  1.0000 -0.0243800849
C   C32       1.0  0.27530  0.42044  0.06984  1.0000 -0.0243800849
C   C33       1.0  0.14514  0.72470  0.06984  1.0000 -0.0281583475
C   C34       1.0  0.85486  0.27530  0.56984  1.0000 -0.0243800849
C   C35       1.0  0.42044  0.14514  0.56984  1.0000 -0.0243800849
C   C36       1.0  0.72470  0.57956  0.56984  1.0000 -0.0243800849
C   C37       1.0  0.35850  0.90991  0.04417  1.0000 0.5787682992
C   C38       1.0  0.44859  0.35850  0.54417  1.0000 0.5787682992
C   C39       1.0  0.09009  0.44859  0.04417  1.0000 0.5787682992
C   C40       1.0  0.64150  0.09009  0.54417  1.0000 0.5787682992
C   C41       1.0  0.55141  0.64150  0.04417  1.0000 0.5787682992
C   C42       1.0  0.90991  0.55141  0.54417  1.0000 0.5787682992
C   C43       1.0  0.44859  0.09009  0.95583  1.0000 0.5787682992
C   C44       1.0  0.64150  0.55141  0.95583  1.0000 0.5787682992
C   C45       1.0  0.90991  0.35850  0.95583  1.0000 0.5787682992
C   C46       1.0  0.09009  0.64150  0.45583  1.0000 0.5787682992
C   C47       1.0  0.55141  0.90991  0.45583  1.0000 0.5787682992
C   C48       1.0  0.35850  0.44859  0.45583  1.0000 0.5787682992
C   C49       1.0  0.64150  0.09009  0.95583  1.0000 0.5787682992
C   C50       1.0  0.55141  0.64150  0.45583  1.0000 0.5787682992
C   C51       1.0  0.90991  0.55141  0.95583  1.0000 0.5787682992
C   C52       1.0  0.35850  0.90991  0.45583  1.0000 0.5787682992
C   C53       1.0  0.44859  0.35850  0.95583  1.0000 0.5787682992
C   C54       1.0  0.09009  0.44859  0.45583  1.0000 0.5787682992
C   C55       1.0  0.55141  0.90991  0.04417  1.0000 0.5787682992
C   C56       1.0  0.35850  0.44859  0.04417  1.0000 0.5787682992
C   C57       1.0  0.09009  0.64150  0.04417  1.0000 0.5787682992
C   C58       1.0  0.90991  0.35850  0.54417  1.0000 0.5787682992
C   C59       1.0  0.44859  0.09009  0.54417  1.0000 0.5787682992
C   C60       1.0  0.64150  0.55141  0.54417  1.0000 0.5787682992
C   C61       1.0  0.17440  0.82560  0.25000  1.0000 0.1834815305
C   C62       1.0  0.34880  0.17440  0.75000  1.0000 0.1834815305
C   C63       1.0  0.17440  0.34880  0.25000  1.0000 0.1834815305
C   C64       1.0  0.82560  0.17440  0.75000  1.0000 0.1834815305
C   C65       1.0  0.65120  0.82560  0.25000  1.0000 0.1834815305
C   C66       1.0  0.82560  0.65120  0.75000  1.0000 0.1834815305
C   C67       1.0  0.25274  0.87582  0.12034  1.0000 -0.1490538084
C   C68       1.0  0.37692  0.25274  0.62034  1.0000 -0.1490538084
C   C69       1.0  0.12418  0.37692  0.12034  1.0000 -0.1490538084
C   C70       1.0  0.74726  0.12418  0.62034  1.0000 -0.1490538084
C   C71       1.0  0.62308  0.74726  0.12034  1.0000 -0.1490538084
C   C72       1.0  0.87582  0.62308  0.62034  1.0000 -0.1490538084
C   C73       1.0  0.37692  0.12418  0.87966  1.0000 -0.1490538084
C   C74       1.0  0.74726  0.62308  0.87966  1.0000 -0.1490538084
C   C75       1.0  0.87582  0.25274  0.87966  1.0000 -0.1490538084
C   C76       1.0  0.12418  0.74726  0.37966  1.0000 -0.1490538084
C   C77       1.0  0.62308  0.87582  0.37966  1.0000 -0.1490538084
C   C78       1.0  0.25274  0.37692  0.37966  1.0000 -0.1490538084
C   C79       1.0  0.74726  0.12418  0.87966  1.0000 -0.1490538084
C   C80       1.0  0.62308  0.74726  0.37966  1.0000 -0.1490538084
C   C81       1.0  0.87582  0.62308  0.87966  1.0000 -0.1490538084
C   C82       1.0  0.25274  0.87582  0.37966  1.0000 -0.1490538084
C   C83       1.0  0.37692  0.25274  0.87966  1.0000 -0.1490538084
C   C84       1.0  0.12418  0.37692  0.37966  1.0000 -0.1490538084
C   C85       1.0  0.62308  0.87582  0.12034  1.0000 -0.1490538084
C   C86       1.0  0.25274  0.37692  0.12034  1.0000 -0.1490538084
C   C87       1.0  0.12418  0.74726  0.12034  1.0000 -0.1490538084
C   C88       1.0  0.87582  0.25274  0.62034  1.0000 -0.1490538084
C   C89       1.0  0.37692  0.12418  0.62034  1.0000 -0.1490538084
C   C90       1.0  0.74726  0.62308  0.62034  1.0000 -0.1490538084
C   C91       1.0  0.17657  0.82343  0.14508  1.0000 0.0589231971
C   C92       1.0  0.35314  0.17657  0.64508  1.0000 0.0589231971
C   C93       1.0  0.17657  0.35314  0.14508  1.0000 0.0589231971
C   C94       1.0  0.82343  0.17657  0.64508  1.0000 0.0589231971
C   C95       1.0  0.64686  0.82343  0.14508  1.0000 0.0589231971
C   C96       1.0  0.82343  0.64686  0.64508  1.0000 0.0589231971
C   C97       1.0  0.35314  0.17657  0.85492  1.0000 0.0589231971
C   C98       1.0  0.82343  0.64686  0.85492  1.0000 0.0589231971
C   C99       1.0  0.82343  0.17657  0.85492  1.0000 0.0589231971
C   C100      1.0  0.17657  0.82343  0.35492  1.0000 0.0589231971
C   C101      1.0  0.64686  0.82343  0.35492  1.0000 0.0589231971
C   C102      1.0  0.17657  0.35314  0.35492  1.0000 0.0589231971
C   C103      1.0  0.15287  0.84713  0.19931  1.0000 -0.0281583475
C   C104      1.0  0.30574  0.15287  0.69931  1.0000 -0.0281583475
C   C105      1.0  0.15287  0.30574  0.19931  1.0000 -0.0281583475
C   C106      1.0  0.84713  0.15287  0.69931  1.0000 -0.0281583475
C   C107      1.0  0.69426  0.84713  0.19931  1.0000 -0.0281583475
C   C108      1.0  0.84713  0.69426  0.69931  1.0000 -0.0281583475
C   C109      1.0  0.30574  0.15287  0.80069  1.0000 -0.0281583475
C   C110      1.0  0.84713  0.69426  0.80069  1.0000 -0.0281583475
C   C111      1.0  0.84713  0.15287  0.80069  1.0000 -0.0281583475
C   C112      1.0  0.15287  0.84713  0.30069  1.0000 -0.0281583475
C   C113      1.0  0.69426  0.84713  0.30069  1.0000 -0.0281583475
C   C114      1.0  0.15287  0.30574  0.30069  1.0000 -0.0281583475
C   C115      1.0  0.08820  0.91180  0.25000  1.0000 -0.1341866571
C   C116      1.0  0.17640  0.08820  0.75000  1.0000 -0.1341866571
C   C117      1.0  0.08820  0.17640  0.25000  1.0000 -0.1424441647
C   C118      1.0  0.91180  0.08820  0.75000  1.0000 -0.1341866571
C   C119      1.0  0.82360  0.91180  0.25000  1.0000 -0.1341866571
C   C120      1.0  0.91180  0.82360  0.75000  1.0000 -0.1341866571
C   C121      1.0  0.10971  0.89029  0.19960  1.0000 -0.1424441647
C   C122      1.0  0.21942  0.10971  0.69960  1.0000 -0.1424441647
C   C123      1.0  0.10971  0.21942  0.19960  1.0000 -0.1424441647
C   C124      1.0  0.89029  0.10971  0.69960  1.0000 -0.1424441647
C   C125      1.0  0.78058  0.89029  0.19960  1.0000 -0.1424441647
C   C126      1.0  0.89029  0.78058  0.69960  1.0000 -0.1424441647
C   C127      1.0  0.21942  0.10971  0.80040  1.0000 -0.1424441647
C   C128      1.0  0.89029  0.78058  0.80040  1.0000 -0.1424441647
C   C129      1.0  0.89029  0.10971  0.80040  1.0000 -0.1424441647
C   C130      1.0  0.10971  0.89029  0.30040  1.0000 -0.1424441647
C   C131      1.0  0.78058  0.89029  0.30040  1.0000 -0.1424441647
C   C132      1.0  0.10971  0.21942  0.30040  1.0000 -0.1424441647
N   N1        1.0  0.21692  0.78308  0.25000  1.0000 -0.5361414392
N   N2        1.0  0.43384  0.21692  0.75000  1.0000 -0.528409624
N   N3        1.0  0.21692  0.43384  0.25000  1.0000 -0.5361414392
N   N4        1.0  0.78308  0.21692  0.75000  1.0000 -0.528409624
N   N5        1.0  0.56616  0.78308  0.25000  1.0000 -0.528409624
N   N6        1.0  0.78308  0.56616  0.75000  1.0000 -0.5361414392
O   O1        1.0  0.41079  0.97211  0.07200  1.0000 -0.5199332703
O   O2        1.0  0.43868  0.41079  0.57200  1.0000 -0.528409624
O   O3        1.0  0.02789  0.43868  0.07200  1.0000 -0.5199332703
O   O4        1.0  0.58921  0.02789  0.57200  1.0000 -0.528409624
O   O5        1.0  0.56132  0.58921  0.07200  1.0000 -0.5199332703
O   O6        1.0  0.97211  0.56132  0.57200  1.0000 -0.5199332703
O   O7        1.0  0.43868  0.02789  0.92800  1.0000 -0.5199332703
O   O8        1.0  0.58921  0.56132  0.92800  1.0000 -0.5199332703
O   O9        1.0  0.97211  0.41079  0.92800  1.0000 -0.5199332703
O   O10       1.0  0.02789  0.58921  0.42800  1.0000 -0.5199332703
O   O11       1.0  0.56132  0.97211  0.42800  1.0000 -0.5199332703
O   O12       1.0  0.41079  0.43868  0.42800  1.0000 -0.5199332703
O   O13       1.0  0.58921  0.02789  0.92800  1.0000 -0.5199332703
O   O14       1.0  0.56132  0.58921  0.42800  1.0000 -0.5199332703
O   O15       1.0  0.97211  0.56132  0.92800  1.0000 -0.5199332703
O   O16       1.0  0.41079  0.97211  0.42800  1.0000 -0.5199332703
O   O17       1.0  0.43868  0.41079  0.92800  1.0000 -0.528409624
O   O18       1.0  0.02789  0.43868  0.42800  1.0000 -0.5199332703
O   O19       1.0  0.56132  0.97211  0.07200  1.0000 -0.5199332703
O   O20       1.0  0.41079  0.43868  0.07200  1.0000 -0.528409624
O   O21       1.0  0.02789  0.58921  0.07200  1.0000 -0.5199332703
O   O22       1.0  0.97211  0.41079  0.57200  1.0000 -0.528409624
O   O23       1.0  0.43868  0.02789  0.57200  1.0000 -0.528409624
O   O24       1.0  0.58921  0.56132  0.57200  1.0000 -0.5199332703
O   O25       1.0  0.37079  0.89006  0.99631  1.0000 -0.5199332703
O   O26       1.0  0.48073  0.37079  0.49631  1.0000 -0.5199332703
O   O27       1.0  0.10994  0.48073  0.99631  1.0000 -0.5199332703
O   O28       1.0  0.62921  0.10994  0.49631  1.0000 -0.5199332703
O   O29       1.0  0.51927  0.62921  0.99631  1.0000 -0.5199332703
O   O30       1.0  0.89006  0.51927  0.49631  1.0000 -0.5199332703
O   O31       1.0  0.48073  0.10994  0.00369  1.0000 -0.5199332703
O   O32       1.0  0.62921  0.51927  0.00369  1.0000 -0.5199332703
O   O33       1.0  0.89006  0.37079  0.00369  1.0000 -0.5199332703
O   O34       1.0  0.10994  0.62921  0.50369  1.0000 -0.5199332703
O   O35       1.0  0.51927  0.89006  0.50369  1.0000 -0.5146170694
O   O36       1.0  0.37079  0.48073  0.50369  1.0000 -0.5199332703
O   O37       1.0  0.62921  0.10994  0.00369  1.0000 -0.5199332703
O   O38       1.0  0.51927  0.62921  0.50369  1.0000 -0.5199332703
O   O39       1.0  0.89006  0.51927  0.00369  1.0000 -0.5199332703
O   O40       1.0  0.37079  0.89006  0.50369  1.0000 -0.5146170694
O   O41       1.0  0.48073  0.37079  0.00369  1.0000 -0.5199332703
O   O42       1.0  0.10994  0.48073  0.50369  1.0000 -0.5199332703
O   O43       1.0  0.51927  0.89006  0.99631  1.0000 -0.5199332703
O   O44       1.0  0.37079  0.48073  0.99631  1.0000 -0.5199332703
O   O45       1.0  0.10994  0.62921  0.99631  1.0000 -0.5199332703
O   O46       1.0  0.89006  0.37079  0.49631  1.0000 -0.5199332703
O   O47       1.0  0.48073  0.10994  0.49631  1.0000 -0.5199332703
O   O48       1.0  0.62921  0.51927  0.49631  1.0000 -0.5199332703
