# DDEC6 charges by PACMAN v1.1 (https://github.com/mtap-research/PACMAN-charge/)
data_2015[Zn][rtl]3[ASR]2
_chemical_formula_sum              "Zn8 H72 C108 N12 O26"
_cell_length_a       24.36
_cell_length_b       24.36
_cell_length_c       16.909
_cell_angle_alpha    90
_cell_angle_beta     90
_cell_angle_gamma    90

_symmetry_space_group_name_H-M    "P 1"
_symmetry_Int_Tables_number       1

loop_
  _symmetry_equiv_pos_as_xyz
  'x, y, z'

loop_
  _atom_site_type_symbol
  _atom_site_label
  _atom_site_symmetry_multiplicity
  _atom_site_fract_x
  _atom_site_fract_y
  _atom_site_fract_z
  _atom_site_occupancy
  _atom_site_charge
Zn  Zn1       1.0  0.06268  0.00997  0.98336  1.0000 0.9231519007
Zn  Zn2       1.0  0.15201  0.92221  0.98554  1.0000 0.9231519007
Zn  Zn3       1.0  0.04520  0.90440  0.07251  1.0000 0.8979060404
Zn  Zn4       1.0  0.04608  0.90252  0.89794  1.0000 0.8979060404
Zn  Zn5       1.0  0.59172  0.50997  0.48341  1.0000 0.9231519007
Zn  Zn6       1.0  0.50140  0.42353  0.48558  1.0000 0.9231519007
Zn  Zn7       1.0  0.60685  0.40242  0.39777  1.0000 0.8979060404
Zn  Zn8       1.0  0.60786  0.40416  0.57269  1.0000 0.8979060404
H   H1        1.0  0.34597  0.21610  0.85735  1.0000 0.1093560646
H   H2        1.0  0.44996  0.32749  0.98619  1.0000 0.1093560646
H   H3        1.0  0.34637  0.21423  0.11217  1.0000 0.1093560646
H   H4        1.0  0.79242  0.66784  0.85749  1.0000 0.1093560646
H   H5        1.0  0.69428  0.55032  0.98356  1.0000 0.1093560646
H   H6        1.0  0.80064  0.65889  0.11234  1.0000 0.1093560646
H   H7        1.0  0.30778  0.71673  0.35734  1.0000 0.1093560646
H   H8        1.0  0.19505  0.81921  0.48633  1.0000 0.1093560646
H   H9        1.0  0.30733  0.71452  0.61229  1.0000 0.1093560646
H   H10       1.0  0.85058  0.15685  0.61199  1.0000 0.1093560646
H   H11       1.0  0.96177  0.05271  0.48386  1.0000 0.1093560646
H   H12       1.0  0.85898  0.16577  0.35710  1.0000 0.1093560646
H   H13       1.0  0.68480  0.24509  0.38849  1.0000 0.1189450525
H   H14       1.0  0.83738  0.25435  0.58201  1.0000 0.1093560646
H   H15       1.0  0.72022  0.15991  0.33557  1.0000 0.2996373502
H   H16       1.0  0.76985  0.12149  0.38963  1.0000 0.287952737
H   H17       1.0  0.94074  0.95926  0.23971  1.0000 0.1189450525
H   H18       1.0  0.96856  0.15741  0.29296  1.0000 0.1093560646
H   H19       1.0  0.88616  0.95020  0.35803  1.0000 0.2996373502
H   H20       1.0  0.86300  0.00956  0.41002  1.0000 0.2803614639
H   H21       1.0  0.94701  0.95335  0.72124  1.0000 0.1189450525
H   H22       1.0  0.95748  0.15467  0.68164  1.0000 0.1093560646
H   H23       1.0  0.89643  0.94302  0.59953  1.0000 0.2996373502
H   H24       1.0  0.86938  0.00153  0.54946  1.0000 0.287952737
H   H25       1.0  0.30039  0.60436  0.52117  1.0000 0.1093560646
H   H26       1.0  0.49285  0.64647  0.44740  1.0000 0.1189450525
H   H27       1.0  0.40140  0.76728  0.44431  1.0000 0.2996373502
H   H28       1.0  0.46907  0.74206  0.42637  1.0000 0.2996373502
H   H29       1.0  0.29971  0.82282  0.67972  1.0000 0.1093560646
H   H30       1.0  0.10035  0.80017  0.72800  1.0000 0.1189450525
H   H31       1.0  0.15015  0.72304  0.55672  1.0000 0.287952737
H   H32       1.0  0.09099  0.74708  0.60837  1.0000 0.2996373502
H   H33       1.0  0.09879  0.80295  0.24598  1.0000 0.1189450525
H   H34       1.0  0.29900  0.82256  0.28992  1.0000 0.1093560646
H   H35       1.0  0.08979  0.75059  0.36635  1.0000 0.2996373502
H   H36       1.0  0.14909  0.72530  0.41636  1.0000 0.287952737
H   H37       1.0  0.69668  0.65396  0.18192  1.0000 0.1016022218
H   H38       1.0  0.70746  0.45265  0.22143  1.0000 0.1189450525
H   H39       1.0  0.78530  0.50102  0.04994  1.0000 0.287952737
H   H40       1.0  0.75809  0.44244  0.09963  1.0000 0.2996373502
H   H41       1.0  0.68662  0.65683  0.79198  1.0000 0.1093560646
H   H42       1.0  0.71327  0.45834  0.74017  1.0000 0.1189450525
H   H43       1.0  0.79122  0.50871  0.91023  1.0000 0.287952737
H   H44       1.0  0.76752  0.44930  0.85887  1.0000 0.2996373502
H   H45       1.0  0.96142  0.74781  0.88617  1.0000 0.1189450525
H   H46       1.0  0.39336  0.35907  0.30928  1.0000 0.1189450525
H   H47       1.0  0.50658  0.27484  0.09780  1.0000 0.1016022218
H   H48       1.0  0.31034  0.34013  0.23469  1.0000 0.308874806
H   H49       1.0  0.31289  0.31468  0.13590  1.0000 0.2996373502
H   H50       1.0  0.39488  0.35921  0.66117  1.0000 0.1189450525
H   H51       1.0  0.50714  0.27688  0.87512  1.0000 0.1093560646
H   H52       1.0  0.31147  0.34009  0.73450  1.0000 0.308874806
H   H53       1.0  0.31349  0.31591  0.83397  1.0000 0.2996373502
H   H54       1.0  0.23270  0.21845  0.95070  1.0000 0.1016022218
H   H55       1.0  0.28599  0.02717  0.01575  1.0000 0.1189450525
H   H56       1.0  0.40171  0.12502  0.01960  1.0000 0.287952737
H   H57       1.0  0.38043  0.05576  0.03531  1.0000 0.308874806
H   H58       1.0  0.76479  0.32371  0.58470  1.0000 0.1189450525
H   H59       1.0  0.99857  0.11336  0.80035  1.0000 0.1189450525
H   H60       1.0  0.36895  0.53075  0.52006  1.0000 0.1189450525
H   H61       1.0  0.25808  0.86313  0.79895  1.0000 0.1189450525
H   H62       1.0  0.25686  0.86275  0.17110  1.0000 0.1189450525
H   H63       1.0  0.64675  0.61526  0.67243  1.0000 0.1189450525
H   H64       1.0  0.88869  0.67884  0.88744  1.0000 0.1093560646
H   H65       1.0  0.55084  0.31257  0.21455  1.0000 0.1189450525
H   H66       1.0  0.65589  0.61262  0.30067  1.0000 0.1093560646
H   H67       1.0  0.88704  0.82949  0.08438  1.0000 0.1189450525
H   H68       1.0  0.00861  0.11590  0.17334  1.0000 0.1093560646
H   H69       1.0  0.55204  0.31457  0.75871  1.0000 0.1189450525
H   H70       1.0  0.16299  0.14599  0.95064  1.0000 0.1189450525
H   H71       1.0  0.75973  0.74963  0.08291  1.0000 0.2996373502
H   H72       1.0  0.80027  0.79762  0.13693  1.0000 0.308874806
C   C1        1.0  0.34069  0.21081  0.98469  1.0000 0.088121864
C   C2        1.0  0.36042  0.23281  0.91297  1.0000 -0.2276325868
C   C3        1.0  0.39996  0.27508  0.91283  1.0000 0.088121864
C   C4        1.0  0.41929  0.29524  0.98575  1.0000 -0.2044435389
C   C5        1.0  0.39987  0.27425  0.05814  1.0000 0.088121864
C   C6        1.0  0.36074  0.23165  0.05696  1.0000 -0.2412805207
C   C7        1.0  0.80051  0.67030  0.98517  1.0000 0.088121864
C   C8        1.0  0.77913  0.65010  0.91303  1.0000 -0.2118041264
C   C9        1.0  0.74177  0.60605  0.91186  1.0000 0.088121864
C   C10       1.0  0.72387  0.58356  0.98405  1.0000 -0.2186808385
C   C11       1.0  0.74445  0.60272  0.05674  1.0000 0.088121864
C   C12       1.0  0.78319  0.64558  0.05663  1.0000 -0.2276325868
C   C13       1.0  0.31319  0.71147  0.48476  1.0000 0.088121864
C   C14       1.0  0.29187  0.73198  0.41301  1.0000 -0.2276325868
C   C15       1.0  0.24867  0.77043  0.41291  1.0000 0.088121864
C   C16       1.0  0.22808  0.78939  0.48587  1.0000 -0.2186808385
C   C17       1.0  0.24883  0.76956  0.55823  1.0000 0.088121864
C   C18       1.0  0.29154  0.73062  0.55705  1.0000 -0.2186808385
C   C19       1.0  0.84875  0.16625  0.48450  1.0000 0.088121864
C   C20       1.0  0.86841  0.14392  0.55634  1.0000 -0.2118041264
C   C21       1.0  0.90939  0.10315  0.55672  1.0000 0.088121864
C   C22       1.0  0.93094  0.08480  0.48416  1.0000 -0.2186808385
C   C23       1.0  0.91234  0.10651  0.41187  1.0000 0.088121864
C   C24       1.0  0.87267  0.14845  0.41272  1.0000 -0.2186808385
C   C25       1.0  0.17622  0.03646  0.98362  1.0000 0.6078034434
C   C26       1.0  0.14649  0.86519  0.13202  1.0000 0.6078034434
C   C27       1.0  0.00690  0.00618  0.13046  1.0000 0.6048722767
C   C28       1.0  0.97494  0.83488  0.98596  1.0000 0.6078034434
C   C29       1.0  0.14786  0.86430  0.83966  1.0000 0.6078034434
C   C30       1.0  0.00575  0.00296  0.83734  1.0000 0.6078034434
C   C31       1.0  0.47861  0.53802  0.48373  1.0000 0.6078034434
C   C32       1.0  0.50438  0.36616  0.33934  1.0000 0.6078034434
C   C33       1.0  0.64862  0.50233  0.33750  1.0000 0.6078034434
C   C34       1.0  0.67655  0.33319  0.48581  1.0000 0.6078034434
C   C35       1.0  0.50584  0.36688  0.63231  1.0000 0.6078034434
C   C36       1.0  0.64761  0.50550  0.63035  1.0000 0.6078034434
C   C37       1.0  0.71843  0.24719  0.43035  1.0000 -0.2118041264
C   C38       1.0  0.71983  0.29004  0.48579  1.0000 -0.0273163673
C   C39       1.0  0.76261  0.29106  0.54133  1.0000 -0.1113386282
C   C40       1.0  0.80401  0.25104  0.53997  1.0000 -0.1240461416
C   C41       1.0  0.80299  0.20770  0.48473  1.0000 -0.0225635746
C   C42       1.0  0.75819  0.20516  0.43087  1.0000 0.2430178352
C   C43       1.0  0.94712  0.00258  0.25093  1.0000 -0.2118041264
C   C44       1.0  0.97862  0.03403  0.19789  1.0000 -0.0273163673
C   C45       1.0  0.98463  0.09049  0.21293  1.0000 -0.1113386282
C   C46       1.0  0.96170  0.11423  0.28131  1.0000 -0.1265511038
C   C47       1.0  0.93191  0.08219  0.33576  1.0000 -0.0225635746
C   C48       1.0  0.92318  0.02605  0.31847  1.0000 0.2430178352
C   C49       1.0  0.94956  0.99739  0.71305  1.0000 -0.2186808385
C   C50       1.0  0.97686  0.02989  0.76955  1.0000 -0.0273163673
C   C51       1.0  0.97797  0.08706  0.75811  1.0000 -0.1113386282
C   C52       1.0  0.95432  0.11072  0.69025  1.0000 -0.1265511038
C   C53       1.0  0.92877  0.07791  0.63240  1.0000 -0.0225635746
C   C54       1.0  0.92509  0.02067  0.64567  1.0000 0.2430178352
C   C55       1.0  0.34229  0.61405  0.50486  1.0000 -0.1265511038
C   C56       1.0  0.35648  0.66811  0.48423  1.0000 -0.0225635746
C   C57       1.0  0.41152  0.67956  0.46313  1.0000 0.2430178352
C   C58       1.0  0.45083  0.63702  0.46339  1.0000 -0.2186808385
C   C59       1.0  0.43645  0.58276  0.48351  1.0000 -0.0273163673
C   C60       1.0  0.38155  0.57189  0.50395  1.0000 -0.1113386282
C   C61       1.0  0.25625  0.81700  0.69029  1.0000 -0.1265511038
C   C62       1.0  0.22405  0.78854  0.63453  1.0000 -0.0225635746
C   C63       1.0  0.16747  0.78138  0.65038  1.0000 0.2430178352
C   C64       1.0  0.14396  0.80538  0.71795  1.0000 -0.2186808385
C   C65       1.0  0.17565  0.83566  0.77227  1.0000 -0.0273163673
C   C66       1.0  0.23241  0.84016  0.75848  1.0000 -0.1113386282
C   C67       1.0  0.14257  0.80752  0.25514  1.0000 -0.2186808385
C   C68       1.0  0.17422  0.83683  0.19975  1.0000 -0.0273163673
C   C69       1.0  0.23118  0.84053  0.21242  1.0000 -0.1113386282
C   C70       1.0  0.25533  0.81742  0.28039  1.0000 -0.1265511038
C   C71       1.0  0.22327  0.78977  0.33714  1.0000 -0.0225635746
C   C72       1.0  0.16639  0.78347  0.32249  1.0000 0.2454816901
C   C73       1.0  0.69996  0.61001  0.19049  1.0000 -0.1376466773
C   C74       1.0  0.72543  0.57726  0.13249  1.0000 -0.0225635746
C   C75       1.0  0.72927  0.52001  0.14578  1.0000 0.2454816901
C   C76       1.0  0.70488  0.49668  0.21322  1.0000 -0.2118041264
C   C77       1.0  0.67762  0.52917  0.26977  1.0000 -0.0273163673
C   C78       1.0  0.67647  0.58633  0.25838  1.0000 -0.1113386282
C   C79       1.0  0.69332  0.61359  0.78065  1.0000 -0.1265511038
C   C80       1.0  0.72270  0.58154  0.83555  1.0000 -0.0225635746
C   C81       1.0  0.73113  0.52527  0.81864  1.0000 0.2430178352
C   C82       1.0  0.70719  0.50175  0.75110  1.0000 -0.2118041264
C   C83       1.0  0.67606  0.53325  0.69769  1.0000 -0.0273163673
C   C84       1.0  0.67045  0.58980  0.71230  1.0000 -0.1113386282
C   C85       1.0  0.84342  0.75866  0.04044  1.0000 0.2430178352
C   C86       1.0  0.84354  0.71459  0.98529  1.0000 -0.0225635746
C   C87       1.0  0.88688  0.71193  0.93011  1.0000 -0.1265511038
C   C88       1.0  0.92899  0.75115  0.92972  1.0000 -0.1113386282
C   C89       1.0  0.93020  0.79325  0.98625  1.0000 -0.0225635746
C   C90       1.0  0.88744  0.79625  0.04180  1.0000 -0.2186808385
C   C91       1.0  0.41804  0.33995  0.26366  1.0000 -0.2186808385
C   C92       1.0  0.47557  0.33897  0.27155  1.0000 -0.0273163673
C   C93       1.0  0.50650  0.31441  0.21084  1.0000 -0.1113386282
C   C94       1.0  0.48113  0.29284  0.14352  1.0000 -0.1265511038
C   C95       1.0  0.42389  0.29492  0.13407  1.0000 -0.0225635746
C   C96       1.0  0.39193  0.31862  0.19547  1.0000 0.2430178352
C   C97       1.0  0.41938  0.34053  0.70736  1.0000 -0.2186808385
C   C98       1.0  0.47698  0.33993  0.70029  1.0000 -0.0273163673
C   C99       1.0  0.50766  0.31604  0.76177  1.0000 -0.1113386282
C   C100      1.0  0.48190  0.29454  0.82889  1.0000 -0.1265511038
C   C101      1.0  0.42453  0.29614  0.83741  1.0000 -0.0225635746
C   C102      1.0  0.39290  0.31939  0.77533  1.0000 0.2430178352
C   C103      1.0  0.24483  0.17684  0.96507  1.0000 -0.1376466773
C   C104      1.0  0.29974  0.16526  0.98408  1.0000 -0.0225635746
C   C105      1.0  0.31444  0.11049  0.00245  1.0000 0.2430178352
C   C106      1.0  0.27412  0.06888  0.00159  1.0000 -0.2186808385
C   C107      1.0  0.21895  0.08068  0.98338  1.0000 -0.0273163673
C   C108      1.0  0.20493  0.13530  0.96523  1.0000 -0.1113386282
N   N1        1.0  0.75031  0.15895  0.37955  1.0000 -0.6438962019
N   N2        1.0  0.88907  0.99244  0.36778  1.0000 -0.6471554585
N   N3        1.0  0.89563  0.98561  0.59242  1.0000 -0.6471554585
N   N4        1.0  0.42847  0.73410  0.44260  1.0000 -0.6471554585
N   N5        1.0  0.13338  0.74890  0.59951  1.0000 -0.6471554585
N   N6        1.0  0.13230  0.75163  0.37419  1.0000 -0.6471554585
N   N7        1.0  0.75887  0.48503  0.09260  1.0000 -0.6438962019
N   N8        1.0  0.76495  0.49160  0.86825  1.0000 -0.6438962019
N   N9        1.0  0.79787  0.76794  0.09248  1.0000 -0.6471554585
N   N10       1.0  0.33354  0.32407  0.18820  1.0000 -0.6471554585
N   N11       1.0  0.33443  0.32461  0.78166  1.0000 -0.6471554585
N   N12       1.0  0.37007  0.09616  0.02099  1.0000 -0.6438962019
O   O1        1.0  0.07684  0.93508  0.98484  1.0000 -0.9793512918
O   O2        1.0  0.12562  0.04969  0.98192  1.0000 -0.5298945669
O   O3        1.0  0.17409  0.88422  0.07392  1.0000 -0.5383690493
O   O4        1.0  0.01320  0.95450  0.13429  1.0000 -0.5218053291
O   O5        1.0  0.19076  0.98617  0.98568  1.0000 -0.5383690493
O   O6        1.0  0.02493  0.03324  0.07127  1.0000 -0.5298945669
O   O7        1.0  0.09463  0.87094  0.13470  1.0000 -0.5218053291
O   O8        1.0  0.99497  0.85096  0.92058  1.0000 -0.5218053291
O   O9        1.0  0.17514  0.88378  0.89779  1.0000 -0.5298945669
O   O10       1.0  0.99231  0.85438  0.05101  1.0000 -0.5218053291
O   O11       1.0  0.09604  0.86967  0.83666  1.0000 -0.5218053291
O   O12       1.0  0.01270  0.95128  0.83487  1.0000 -0.5298945669
O   O13       1.0  0.02394  0.03107  0.89543  1.0000 -0.5383690493
O   O14       1.0  0.57666  0.43530  0.48489  1.0000 -0.9793512918
O   O15       1.0  0.52937  0.55059  0.48195  1.0000 -0.5298945669
O   O16       1.0  0.47768  0.38560  0.39801  1.0000 -0.5383690493
O   O17       1.0  0.64116  0.45072  0.33491  1.0000 -0.5298945669
O   O18       1.0  0.46344  0.48793  0.48585  1.0000 -0.5298945669
O   O19       1.0  0.63068  0.53057  0.39559  1.0000 -0.5383690493
O   O20       1.0  0.55628  0.37071  0.33602  1.0000 -0.5218053291
O   O21       1.0  0.65975  0.35304  0.55098  1.0000 -0.5218053291
O   O22       1.0  0.47883  0.38594  0.57370  1.0000 -0.5383690493
O   O23       1.0  0.65684  0.34982  0.42049  1.0000 -0.5298945669
O   O24       1.0  0.55779  0.37178  0.63537  1.0000 -0.5218053291
O   O25       1.0  0.64083  0.45388  0.63427  1.0000 -0.5218053291
O   O26       1.0  0.62976  0.53271  0.57120  1.0000 -0.5298945669
