# DDEC6 charges by PACMAN v1.1 (https://github.com/mtap-research/PACMAN-charge/)
data_2015[Cu][nan]3[ASR]10
_chemical_formula_sum              "Cu24 H208 C328 N8 O120"
_cell_length_a       25.1704
_cell_length_b       25.1704
_cell_length_c       25.1704
_cell_angle_alpha    108.154
_cell_angle_beta     108.154
_cell_angle_gamma    112.14

_symmetry_space_group_name_H-M    "P 1"
_symmetry_Int_Tables_number       1

loop_
  _symmetry_equiv_pos_as_xyz
  'x, y, z'

loop_
  _atom_site_type_symbol
  _atom_site_label
  _atom_site_symmetry_multiplicity
  _atom_site_fract_x
  _atom_site_fract_y
  _atom_site_fract_z
  _atom_site_occupancy
  _atom_site_charge
Cu  Cu1       1.0  0.42266  0.40860  0.36168  1.0000 0.7667219521
Cu  Cu2       1.0  0.06098  0.42266  0.01406  1.0000 0.7667219521
Cu  Cu3       1.0  0.04692  0.06098  0.63832  1.0000 0.7667219521
Cu  Cu4       1.0  0.40860  0.04692  0.98594  1.0000 0.7667219521
Cu  Cu5       1.0  0.57734  0.59140  0.63832  1.0000 0.7667219521
Cu  Cu6       1.0  0.93902  0.57734  0.98594  1.0000 0.7667219521
Cu  Cu7       1.0  0.95308  0.93902  0.36168  1.0000 0.7667219521
Cu  Cu8       1.0  0.59140  0.95308  0.01406  1.0000 0.7667219521
Cu  Cu9       1.0  0.44391  0.43318  0.27309  1.0000 0.8699499437
Cu  Cu10      1.0  0.17082  0.44391  0.01073  1.0000 0.8699499437
Cu  Cu11      1.0  0.16009  0.17082  0.72691  1.0000 0.8699499437
Cu  Cu12      1.0  0.43318  0.16009  0.98927  1.0000 0.8699499437
Cu  Cu13      1.0  0.55609  0.56682  0.72691  1.0000 0.8699499437
Cu  Cu14      1.0  0.82918  0.55609  0.98927  1.0000 0.8699499437
Cu  Cu15      1.0  0.83991  0.82918  0.27309  1.0000 0.8699499437
Cu  Cu16      1.0  0.56682  0.83991  0.01073  1.0000 0.8699499437
Cu  Cu17      1.0  0.51231  0.86176  0.37407  1.0000 0.8699499437
Cu  Cu18      1.0  0.13824  0.51231  0.65055  1.0000 0.8699499437
Cu  Cu19      1.0  0.48769  0.13824  0.62593  1.0000 0.8699499437
Cu  Cu20      1.0  0.86176  0.48769  0.34945  1.0000 0.8699499437
Cu  Cu21      1.0  0.50925  0.77316  0.28241  1.0000 0.8699499437
Cu  Cu22      1.0  0.22684  0.50925  0.73609  1.0000 0.8699499437
Cu  Cu23      1.0  0.49075  0.22684  0.71759  1.0000 0.8699499437
Cu  Cu24      1.0  0.77316  0.49075  0.26391  1.0000 0.8699499437
H   H1        1.0  0.48700  0.63060  0.34620  1.0000 0.1386809492
H   H2        1.0  0.14080  0.48700  0.85640  1.0000 0.1386809492
H   H3        1.0  0.28440  0.14080  0.65380  1.0000 0.1386809492
H   H4        1.0  0.63060  0.28440  0.14360  1.0000 0.1386809492
H   H5        1.0  0.51300  0.36940  0.65380  1.0000 0.1386809492
H   H6        1.0  0.85920  0.51300  0.14360  1.0000 0.1386809492
H   H7        1.0  0.71560  0.85920  0.34620  1.0000 0.1386809492
H   H8        1.0  0.36940  0.71560  0.85640  1.0000 0.1386809492
H   H9        1.0  0.47250  0.60120  0.49110  1.0000 0.1480536492
H   H10       1.0  0.98140  0.47250  0.87130  1.0000 0.1480536492
H   H11       1.0  0.11010  0.98140  0.50890  1.0000 0.1480536492
H   H12       1.0  0.60120  0.11010  0.12870  1.0000 0.1480536492
H   H13       1.0  0.52750  0.39880  0.50890  1.0000 0.1480536492
H   H14       1.0  0.01860  0.52750  0.12870  1.0000 0.1480536492
H   H15       1.0  0.88990  0.01860  0.49110  1.0000 0.1480536492
H   H16       1.0  0.39880  0.88990  0.87130  1.0000 0.1480536492
H   H17       1.0  0.50130  0.77110  0.49240  1.0000 0.1284631471
H   H18       1.0  0.00890  0.50130  0.73020  1.0000 0.1284631471
H   H19       1.0  0.27870  0.00890  0.50760  1.0000 0.1284631471
H   H20       1.0  0.77110  0.27870  0.26980  1.0000 0.1284631471
H   H21       1.0  0.49870  0.22890  0.50760  1.0000 0.1284631471
H   H22       1.0  0.99110  0.49870  0.26980  1.0000 0.1284631471
H   H23       1.0  0.72130  0.99110  0.49240  1.0000 0.1284631471
H   H24       1.0  0.22890  0.72130  0.73020  1.0000 0.1284631471
H   H25       1.0  0.52938  0.79680  0.60078  1.0000 0.1127250778
H   H26       1.0  0.92860  0.52938  0.73258  1.0000 0.1127250778
H   H27       1.0  0.19602  0.92860  0.39922  1.0000 0.1127250778
H   H28       1.0  0.79680  0.19602  0.26742  1.0000 0.1127250778
H   H29       1.0  0.47062  0.20320  0.39922  1.0000 0.1127250778
H   H30       1.0  0.07140  0.47062  0.26742  1.0000 0.1127250778
H   H31       1.0  0.80398  0.07140  0.60078  1.0000 0.1127250778
H   H32       1.0  0.20320  0.80398  0.73258  1.0000 0.1127250778
H   H33       1.0  0.45320  0.76240  0.55120  1.0000 0.102308087
H   H34       1.0  0.90200  0.45320  0.69080  1.0000 0.102308087
H   H35       1.0  0.21120  0.90200  0.44880  1.0000 0.102308087
H   H36       1.0  0.76240  0.21120  0.30920  1.0000 0.102308087
H   H37       1.0  0.54680  0.23760  0.44880  1.0000 0.102308087
H   H38       1.0  0.09800  0.54680  0.30920  1.0000 0.102308087
H   H39       1.0  0.78880  0.09800  0.55120  1.0000 0.102308087
H   H40       1.0  0.23760  0.78880  0.69080  1.0000 0.102308087
H   H41       1.0  0.44800  0.67350  0.62290  1.0000 0.1284631471
H   H42       1.0  0.82510  0.44800  0.77450  1.0000 0.1284631471
H   H43       1.0  0.05060  0.82510  0.37710  1.0000 0.1284631471
H   H44       1.0  0.67350  0.05060  0.22550  1.0000 0.1284631471
H   H45       1.0  0.55200  0.32650  0.37710  1.0000 0.1284631471
H   H46       1.0  0.17490  0.55200  0.22550  1.0000 0.1284631471
H   H47       1.0  0.94940  0.17490  0.62290  1.0000 0.1284631471
H   H48       1.0  0.32650  0.94940  0.77450  1.0000 0.1284631471
H   H49       1.0  0.43540  0.68250  0.71290  1.0000 0.1211593439
H   H50       1.0  0.72250  0.43540  0.75290  1.0000 0.1211593439
H   H51       1.0  0.96960  0.72250  0.28710  1.0000 0.1211593439
H   H52       1.0  0.68250  0.96960  0.24710  1.0000 0.1211593439
H   H53       1.0  0.56460  0.31750  0.28710  1.0000 0.1211593439
H   H54       1.0  0.27750  0.56460  0.24710  1.0000 0.1211593439
H   H55       1.0  0.03040  0.27750  0.71290  1.0000 0.1211593439
H   H56       1.0  0.31750  0.03040  0.75290  1.0000 0.1211593439
H   H57       1.0  0.43240  0.77230  0.77130  1.0000 0.1211593439
H   H58       1.0  0.66110  0.43240  0.66010  1.0000 0.1211593439
H   H59       1.0  0.00100  0.66110  0.22870  1.0000 0.1211593439
H   H60       1.0  0.77230  0.00100  0.33990  1.0000 0.1211593439
H   H61       1.0  0.56760  0.22770  0.22870  1.0000 0.1211593439
H   H62       1.0  0.33890  0.56760  0.33990  1.0000 0.1211593439
H   H63       1.0  0.99900  0.33890  0.77130  1.0000 0.1211593439
H   H64       1.0  0.22770  0.99900  0.66010  1.0000 0.1211593439
H   H65       1.0  0.48020  0.85130  0.66610  1.0000 0.1211593439
H   H66       1.0  0.81410  0.48020  0.62890  1.0000 0.1211593439
H   H67       1.0  0.18520  0.81410  0.33390  1.0000 0.1211593439
H   H68       1.0  0.85130  0.18520  0.37110  1.0000 0.1211593439
H   H69       1.0  0.51980  0.14870  0.33390  1.0000 0.1211593439
H   H70       1.0  0.18590  0.51980  0.37110  1.0000 0.1211593439
H   H71       1.0  0.81480  0.18590  0.66610  1.0000 0.1211593439
H   H72       1.0  0.14870  0.81480  0.62890  1.0000 0.1211593439
H   H73       1.0  0.49270  0.90150  0.81160  1.0000 0.1127250778
H   H74       1.0  0.68110  0.49270  0.59120  1.0000 0.1127250778
H   H75       1.0  0.08990  0.68110  0.18840  1.0000 0.1127250778
H   H76       1.0  0.90150  0.08990  0.40880  1.0000 0.1127250778
H   H77       1.0  0.50730  0.09850  0.18840  1.0000 0.1127250778
H   H78       1.0  0.31890  0.50730  0.40880  1.0000 0.1127250778
H   H79       1.0  0.91010  0.31890  0.81160  1.0000 0.1127250778
H   H80       1.0  0.09850  0.91010  0.59120  1.0000 0.1127250778
H   H81       1.0  0.41680  0.87150  0.76390  1.0000 0.102308087
H   H82       1.0  0.65290  0.41680  0.54530  1.0000 0.102308087
H   H83       1.0  0.10760  0.65290  0.23610  1.0000 0.102308087
H   H84       1.0  0.87150  0.10760  0.45470  1.0000 0.102308087
H   H85       1.0  0.58320  0.12850  0.23610  1.0000 0.102308087
H   H86       1.0  0.34710  0.58320  0.45470  1.0000 0.102308087
H   H87       1.0  0.89240  0.34710  0.76390  1.0000 0.102308087
H   H88       1.0  0.12850  0.89240  0.54530  1.0000 0.102308087
H   H89       1.0  0.46300  0.97530  0.84490  1.0000 0.1211593439
H   H90       1.0  0.61810  0.46300  0.48770  1.0000 0.1211593439
H   H91       1.0  0.13040  0.61810  0.15510  1.0000 0.1211593439
H   H92       1.0  0.97530  0.13040  0.51230  1.0000 0.1211593439
H   H93       1.0  0.53700  0.02470  0.15510  1.0000 0.1211593439
H   H94       1.0  0.38190  0.53700  0.51230  1.0000 0.1211593439
H   H95       1.0  0.86960  0.38190  0.84490  1.0000 0.1211593439
H   H96       1.0  0.02470  0.86960  0.48770  1.0000 0.1211593439
H   H97       1.0  0.46920  0.13280  0.83140  1.0000 0.1386809492
H   H98       1.0  0.63780  0.46920  0.33640  1.0000 0.1386809492
H   H99       1.0  0.30140  0.63780  0.16860  1.0000 0.1386809492
H   H100      1.0  0.13280  0.30140  0.66360  1.0000 0.1386809492
H   H101      1.0  0.53080  0.86720  0.16860  1.0000 0.1386809492
H   H102      1.0  0.36220  0.53080  0.66360  1.0000 0.1386809492
H   H103      1.0  0.69860  0.36220  0.83140  1.0000 0.1386809492
H   H104      1.0  0.86720  0.69860  0.33640  1.0000 0.1386809492
H   H105      1.0  0.48750  0.00570  0.70280  1.0000 0.1386809492
H   H106      1.0  0.78470  0.48750  0.48180  1.0000 0.1386809492
H   H107      1.0  0.30290  0.78470  0.29720  1.0000 0.1386809492
H   H108      1.0  0.00570  0.30290  0.51820  1.0000 0.1386809492
H   H109      1.0  0.51250  0.99430  0.29720  1.0000 0.1386809492
H   H110      1.0  0.21530  0.51250  0.51820  1.0000 0.1386809492
H   H111      1.0  0.69710  0.21530  0.70280  1.0000 0.1386809492
H   H112      1.0  0.99430  0.69710  0.48180  1.0000 0.1386809492
H   H113      1.0  0.37240  0.20760  0.28200  1.0000 0.1386809492
H   H114      1.0  0.09040  0.37240  0.16480  1.0000 0.1386809492
H   H115      1.0  0.92560  0.09040  0.71800  1.0000 0.1386809492
H   H116      1.0  0.20760  0.92560  0.83520  1.0000 0.1386809492
H   H117      1.0  0.62760  0.79240  0.71800  1.0000 0.1386809492
H   H118      1.0  0.90960  0.62760  0.83520  1.0000 0.1386809492
H   H119      1.0  0.07440  0.90960  0.28200  1.0000 0.1386809492
H   H120      1.0  0.79240  0.07440  0.16480  1.0000 0.1386809492
H   H121      1.0  0.36620  0.07200  0.13840  1.0000 0.1284631471
H   H122      1.0  0.22780  0.36620  0.29420  1.0000 0.1284631471
H   H123      1.0  0.93360  0.22780  0.86160  1.0000 0.1284631471
H   H124      1.0  0.07200  0.93360  0.70580  1.0000 0.1284631471
H   H125      1.0  0.63380  0.92800  0.86160  1.0000 0.1284631471
H   H126      1.0  0.77220  0.63380  0.70580  1.0000 0.1284631471
H   H127      1.0  0.06640  0.77220  0.13840  1.0000 0.1284631471
H   H128      1.0  0.92800  0.06640  0.29420  1.0000 0.1284631471
H   H129      1.0  0.40230  0.24460  0.14530  1.0000 0.1386809492
H   H130      1.0  0.25700  0.40230  0.15770  1.0000 0.1386809492
H   H131      1.0  0.09930  0.25700  0.85470  1.0000 0.1386809492
H   H132      1.0  0.24460  0.09930  0.84230  1.0000 0.1386809492
H   H133      1.0  0.59770  0.75540  0.85470  1.0000 0.1386809492
H   H134      1.0  0.74300  0.59770  0.84230  1.0000 0.1386809492
H   H135      1.0  0.90070  0.74300  0.14530  1.0000 0.1386809492
H   H136      1.0  0.75540  0.90070  0.15770  1.0000 0.1386809492
H   H137      1.0  0.32810  0.01190  0.17760  1.0000 0.102308087
H   H138      1.0  0.15050  0.32810  0.31620  1.0000 0.102308087
H   H139      1.0  0.83430  0.15050  0.82240  1.0000 0.102308087
H   H140      1.0  0.01190  0.83430  0.68380  1.0000 0.102308087
H   H141      1.0  0.67190  0.98810  0.82240  1.0000 0.102308087
H   H142      1.0  0.84950  0.67190  0.68380  1.0000 0.102308087
H   H143      1.0  0.16570  0.84950  0.17760  1.0000 0.102308087
H   H144      1.0  0.98810  0.16570  0.31620  1.0000 0.102308087
H   H145      1.0  0.40340  0.05180  0.23300  1.0000 0.102308087
H   H146      1.0  0.17040  0.40340  0.35160  1.0000 0.102308087
H   H147      1.0  0.81880  0.17040  0.76700  1.0000 0.102308087
H   H148      1.0  0.05180  0.81880  0.64840  1.0000 0.102308087
H   H149      1.0  0.59660  0.94820  0.76700  1.0000 0.102308087
H   H150      1.0  0.82960  0.59660  0.64840  1.0000 0.102308087
H   H151      1.0  0.18120  0.82960  0.23300  1.0000 0.102308087
H   H152      1.0  0.94820  0.18120  0.35160  1.0000 0.102308087
H   H153      1.0  0.42880  0.03960  0.32440  1.0000 0.1211593439
H   H154      1.0  0.10440  0.42880  0.38920  1.0000 0.1211593439
H   H155      1.0  0.71520  0.10440  0.67560  1.0000 0.1211593439
H   H156      1.0  0.03960  0.71520  0.61080  1.0000 0.1211593439
H   H157      1.0  0.57120  0.96040  0.67560  1.0000 0.1211593439
H   H158      1.0  0.89560  0.57120  0.61080  1.0000 0.1211593439
H   H159      1.0  0.28480  0.89560  0.32440  1.0000 0.1211593439
H   H160      1.0  0.96040  0.28480  0.38920  1.0000 0.1211593439
H   H161      1.0  0.39440  0.97600  0.37040  1.0000 0.1284631471
H   H162      1.0  0.02400  0.39440  0.41840  1.0000 0.1284631471
H   H163      1.0  0.60560  0.02400  0.62960  1.0000 0.1284631471
H   H164      1.0  0.97600  0.60560  0.58160  1.0000 0.1284631471
H   H165      1.0  0.23930  0.97130  0.21060  1.0000 0.1284631471
H   H166      1.0  0.02870  0.23930  0.26800  1.0000 0.1284631471
H   H167      1.0  0.76070  0.02870  0.78940  1.0000 0.1284631471
H   H168      1.0  0.97130  0.76070  0.73200  1.0000 0.1284631471
H   H169      1.0  0.37200  0.28790  0.36770  1.0000 0.102308087
H   H170      1.0  0.00430  0.37200  0.08410  1.0000 0.102308087
H   H171      1.0  0.92020  0.00430  0.63230  1.0000 0.102308087
H   H172      1.0  0.28790  0.92020  0.91590  1.0000 0.102308087
H   H173      1.0  0.62800  0.71210  0.63230  1.0000 0.102308087
H   H174      1.0  0.99570  0.62800  0.91590  1.0000 0.102308087
H   H175      1.0  0.07980  0.99570  0.36770  1.0000 0.102308087
H   H176      1.0  0.71210  0.07980  0.08410  1.0000 0.102308087
H   H177      1.0  0.33290  0.23980  0.42390  1.0000 0.1211593439
H   H178      1.0  0.90900  0.33290  0.09310  1.0000 0.1211593439
H   H179      1.0  0.81590  0.90900  0.57610  1.0000 0.1211593439
H   H180      1.0  0.23980  0.81590  0.90690  1.0000 0.1211593439
H   H181      1.0  0.66710  0.76020  0.57610  1.0000 0.1211593439
H   H182      1.0  0.09100  0.66710  0.90690  1.0000 0.1211593439
H   H183      1.0  0.18410  0.09100  0.42390  1.0000 0.1211593439
H   H184      1.0  0.76020  0.18410  0.09310  1.0000 0.1211593439
H   H185      1.0  0.33490  0.30380  0.51570  1.0000 0.1127250778
H   H186      1.0  0.81920  0.33490  0.03110  1.0000 0.1127250778
H   H187      1.0  0.78810  0.81920  0.48430  1.0000 0.1127250778
H   H188      1.0  0.30380  0.78810  0.96890  1.0000 0.1127250778
H   H189      1.0  0.66510  0.69620  0.48430  1.0000 0.1127250778
H   H190      1.0  0.18080  0.66510  0.96890  1.0000 0.1127250778
H   H191      1.0  0.21190  0.18080  0.51570  1.0000 0.1127250778
H   H192      1.0  0.69620  0.21190  0.03110  1.0000 0.1127250778
H   H193      1.0  0.37600  0.41590  0.55110  1.0000 0.1211593439
H   H194      1.0  0.82490  0.37600  0.96010  1.0000 0.1211593439
H   H195      1.0  0.86480  0.82490  0.44890  1.0000 0.1211593439
H   H196      1.0  0.41590  0.86480  0.03990  1.0000 0.1211593439
H   H197      1.0  0.62400  0.58410  0.44890  1.0000 0.1211593439
H   H198      1.0  0.17510  0.62400  0.03990  1.0000 0.1211593439
H   H199      1.0  0.13520  0.17510  0.55110  1.0000 0.1211593439
H   H200      1.0  0.58410  0.13520  0.96010  1.0000 0.1211593439
H   H201      1.0  0.41500  0.46380  0.49480  1.0000 0.102308087
H   H202      1.0  0.92020  0.41500  0.95120  1.0000 0.102308087
H   H203      1.0  0.96900  0.92020  0.50520  1.0000 0.102308087
H   H204      1.0  0.46380  0.96900  0.04880  1.0000 0.102308087
H   H205      1.0  0.58500  0.53620  0.50520  1.0000 0.102308087
H   H206      1.0  0.07980  0.58500  0.04880  1.0000 0.102308087
H   H207      1.0  0.03100  0.07980  0.49480  1.0000 0.102308087
H   H208      1.0  0.53620  0.03100  0.95120  1.0000 0.102308087
C   C1        1.0  0.48680  0.64559  0.38571  1.0000 -0.1382548856
C   C2        1.0  0.10109  0.48680  0.84121  1.0000 -0.1382548856
C   C3        1.0  0.25988  0.10109  0.61429  1.0000 -0.1382548856
C   C4        1.0  0.64559  0.25988  0.15879  1.0000 -0.1382548856
C   C5        1.0  0.51320  0.35441  0.61429  1.0000 -0.1382548856
C   C6        1.0  0.89891  0.51320  0.15879  1.0000 -0.1382548856
C   C7        1.0  0.74012  0.89891  0.38571  1.0000 -0.1382548856
C   C8        1.0  0.35441  0.74012  0.84121  1.0000 -0.1382548856
C   C9        1.0  0.39430  0.13500  0.07670  1.0000 0.5712114902
C   C10       1.0  0.31760  0.39430  0.25930  1.0000 0.5712114902
C   C11       1.0  0.05830  0.31760  0.92330  1.0000 0.5712114902
C   C12       1.0  0.13500  0.05830  0.74070  1.0000 0.5712114902
C   C13       1.0  0.60570  0.86500  0.92330  1.0000 0.5712114902
C   C14       1.0  0.68240  0.60570  0.74070  1.0000 0.5712114902
C   C15       1.0  0.94170  0.68240  0.07670  1.0000 0.5712114902
C   C16       1.0  0.86500  0.94170  0.25930  1.0000 0.5712114902
C   C17       1.0  0.47765  0.60509  0.41368  1.0000 -0.0314185653
C   C18       1.0  0.06397  0.47765  0.87256  1.0000 -0.0314185653
C   C19       1.0  0.19141  0.06397  0.58632  1.0000 -0.0314185653
C   C20       1.0  0.60509  0.19141  0.12744  1.0000 -0.0314185653
C   C21       1.0  0.52235  0.39491  0.58632  1.0000 -0.0314185653
C   C22       1.0  0.93603  0.52235  0.12744  1.0000 -0.0314185653
C   C23       1.0  0.80859  0.93603  0.41368  1.0000 -0.0314185653
C   C24       1.0  0.39491  0.80859  0.87256  1.0000 -0.0314185653
C   C25       1.0  0.47755  0.62775  0.47110  1.0000 -0.2202189012
C   C26       1.0  0.00645  0.47755  0.84980  1.0000 -0.2202189012
C   C27       1.0  0.15665  0.00645  0.52890  1.0000 -0.2202189012
C   C28       1.0  0.62775  0.15665  0.15020  1.0000 -0.2202189012
C   C29       1.0  0.52245  0.37225  0.52890  1.0000 -0.2202189012
C   C30       1.0  0.99355  0.52245  0.15020  1.0000 -0.2202189012
C   C31       1.0  0.84335  0.99355  0.47110  1.0000 -0.2202189012
C   C32       1.0  0.37225  0.84335  0.84980  1.0000 -0.2202189012
C   C33       1.0  0.48470  0.68885  0.50035  1.0000 0.2500070663
C   C34       1.0  0.98435  0.48470  0.79585  1.0000 0.2500070663
C   C35       1.0  0.18850  0.98435  0.49965  1.0000 0.2500070663
C   C36       1.0  0.68885  0.18850  0.20415  1.0000 0.2500070663
C   C37       1.0  0.51530  0.31115  0.49965  1.0000 0.2500070663
C   C38       1.0  0.01565  0.51530  0.20415  1.0000 0.2500070663
C   C39       1.0  0.81150  0.01565  0.50035  1.0000 0.2500070663
C   C40       1.0  0.31115  0.81150  0.79585  1.0000 0.2500070663
C   C41       1.0  0.49486  0.72874  0.47240  1.0000 -0.2589637755
C   C42       1.0  0.02246  0.49486  0.76612  1.0000 -0.2589637755
C   C43       1.0  0.25634  0.02246  0.52760  1.0000 -0.2589637755
C   C44       1.0  0.72874  0.25634  0.23388  1.0000 -0.2589637755
C   C45       1.0  0.50514  0.27126  0.52760  1.0000 -0.2589637755
C   C46       1.0  0.97754  0.50514  0.23388  1.0000 -0.2589637755
C   C47       1.0  0.74366  0.97754  0.47240  1.0000 -0.2589637755
C   C48       1.0  0.27126  0.74366  0.76612  1.0000 -0.2589637755
C   C49       1.0  0.49545  0.70596  0.41423  1.0000 -0.0011375728
C   C50       1.0  0.08122  0.49545  0.78949  1.0000 -0.0011375728
C   C51       1.0  0.29173  0.08122  0.58577  1.0000 -0.0011375728
C   C52       1.0  0.70596  0.29173  0.21051  1.0000 -0.0011375728
C   C53       1.0  0.50455  0.29404  0.58577  1.0000 -0.0011375728
C   C54       1.0  0.91878  0.50455  0.21051  1.0000 -0.0011375728
C   C55       1.0  0.70827  0.91878  0.41423  1.0000 -0.0011375728
C   C56       1.0  0.29404  0.70827  0.78949  1.0000 -0.0011375728
C   C57       1.0  0.48480  0.75910  0.58310  1.0000 -0.0459697187
C   C58       1.0  0.90170  0.48480  0.72570  1.0000 -0.0459697187
C   C59       1.0  0.17600  0.90170  0.41690  1.0000 -0.0459697187
C   C60       1.0  0.75910  0.17600  0.27430  1.0000 -0.0459697187
C   C61       1.0  0.51520  0.24090  0.41690  1.0000 -0.0459697187
C   C62       1.0  0.09830  0.51520  0.27430  1.0000 -0.0459697187
C   C63       1.0  0.82400  0.09830  0.58310  1.0000 -0.0459697187
C   C64       1.0  0.24090  0.82400  0.72570  1.0000 -0.0459697187
C   C65       1.0  0.46800  0.76148  0.63788  1.0000 0.080650031
C   C66       1.0  0.83012  0.46800  0.70652  1.0000 0.080650031
C   C67       1.0  0.12360  0.83012  0.36212  1.0000 0.080650031
C   C68       1.0  0.76148  0.12360  0.29348  1.0000 0.080650031
C   C69       1.0  0.53200  0.23852  0.36212  1.0000 0.080650031
C   C70       1.0  0.16988  0.53200  0.29348  1.0000 0.080650031
C   C71       1.0  0.87640  0.16988  0.63788  1.0000 0.080650031
C   C72       1.0  0.23852  0.87640  0.70652  1.0000 0.080650031
C   C73       1.0  0.45240  0.71270  0.65010  1.0000 -0.1382548856
C   C74       1.0  0.80230  0.45240  0.73970  1.0000 -0.1382548856
C   C75       1.0  0.06260  0.80230  0.34990  1.0000 -0.1382548856
C   C76       1.0  0.71270  0.06260  0.26030  1.0000 -0.1382548856
C   C77       1.0  0.54760  0.28730  0.34990  1.0000 -0.1382548856
C   C78       1.0  0.19770  0.54760  0.26030  1.0000 -0.1382548856
C   C79       1.0  0.93740  0.19770  0.65010  1.0000 -0.1382548856
C   C80       1.0  0.28730  0.93740  0.73970  1.0000 -0.1382548856
C   C81       1.0  0.44210  0.71660  0.70210  1.0000 -0.0774338205
C   C82       1.0  0.74000  0.44210  0.72550  1.0000 -0.0774338205
C   C83       1.0  0.01450  0.74000  0.29790  1.0000 -0.0774338205
C   C84       1.0  0.71660  0.01450  0.27450  1.0000 -0.0774338205
C   C85       1.0  0.55790  0.28340  0.29790  1.0000 -0.0774338205
C   C86       1.0  0.26000  0.55790  0.27450  1.0000 -0.0774338205
C   C87       1.0  0.98550  0.26000  0.70210  1.0000 -0.0774338205
C   C88       1.0  0.28340  0.98550  0.72550  1.0000 -0.0774338205
C   C89       1.0  0.44210  0.77010  0.73740  1.0000 -0.1498329621
C   C90       1.0  0.70470  0.44210  0.67200  1.0000 -0.1498329621
C   C91       1.0  0.03270  0.70470  0.26260  1.0000 -0.1498329621
C   C92       1.0  0.77010  0.03270  0.32800  1.0000 -0.1498329621
C   C93       1.0  0.55790  0.22990  0.26260  1.0000 -0.1498329621
C   C94       1.0  0.29530  0.55790  0.32800  1.0000 -0.1498329621
C   C95       1.0  0.96730  0.29530  0.73740  1.0000 -0.1498329621
C   C96       1.0  0.22990  0.96730  0.67200  1.0000 -0.1498329621
C   C97       1.0  0.45590  0.82080  0.72390  1.0000 0.102308087
C   C98       1.0  0.73200  0.45590  0.63510  1.0000 0.102308087
C   C99       1.0  0.09690  0.73200  0.27610  1.0000 0.102308087
C   C100      1.0  0.82080  0.09690  0.36490  1.0000 0.102308087
C   C101      1.0  0.54410  0.17920  0.27610  1.0000 0.102308087
C   C102      1.0  0.26800  0.54410  0.36490  1.0000 0.102308087
C   C103      1.0  0.90310  0.26800  0.72390  1.0000 0.102308087
C   C104      1.0  0.17920  0.90310  0.63510  1.0000 0.102308087
C   C105      1.0  0.46940  0.81590  0.67510  1.0000 -0.2131622421
C   C106      1.0  0.79430  0.46940  0.65350  1.0000 -0.2131622421
C   C107      1.0  0.14080  0.79430  0.32490  1.0000 -0.2131622421
C   C108      1.0  0.81590  0.14080  0.34650  1.0000 -0.2131622421
C   C109      1.0  0.53060  0.18410  0.32490  1.0000 -0.2131622421
C   C110      1.0  0.20570  0.53060  0.34650  1.0000 -0.2131622421
C   C111      1.0  0.85920  0.20570  0.67510  1.0000 -0.2131622421
C   C112      1.0  0.18410  0.85920  0.65350  1.0000 -0.2131622421
C   C113      1.0  0.46000  0.88260  0.76640  1.0000 -0.0774338205
C   C114      1.0  0.69360  0.46000  0.57740  1.0000 -0.0774338205
C   C115      1.0  0.11620  0.69360  0.23360  1.0000 -0.0774338205
C   C116      1.0  0.88260  0.11620  0.42260  1.0000 -0.0774338205
C   C117      1.0  0.54000  0.11740  0.23360  1.0000 -0.0774338205
C   C118      1.0  0.30640  0.54000  0.42260  1.0000 -0.0774338205
C   C119      1.0  0.88380  0.30640  0.76640  1.0000 -0.0774338205
C   C120      1.0  0.11740  0.88380  0.57740  1.0000 -0.0774338205
C   C121      1.0  0.47650  0.98285  0.77155  1.0000 0.2500070663
C   C122      1.0  0.70495  0.47650  0.49365  1.0000 0.2500070663
C   C123      1.0  0.21130  0.70495  0.22845  1.0000 0.2500070663
C   C124      1.0  0.98285  0.21130  0.50635  1.0000 0.2500070663
C   C125      1.0  0.52350  0.01715  0.22845  1.0000 0.2500070663
C   C126      1.0  0.29505  0.52350  0.50635  1.0000 0.2500070663
C   C127      1.0  0.78870  0.29505  0.77155  1.0000 0.2500070663
C   C128      1.0  0.01715  0.78870  0.49365  1.0000 0.2500070663
C   C129      1.0  0.46738  0.00099  0.82397  1.0000 -0.2371792203
C   C130      1.0  0.64341  0.46738  0.46639  1.0000 -0.2371792203
C   C131      1.0  0.17702  0.64341  0.17603  1.0000 -0.2371792203
C   C132      1.0  0.00099  0.17702  0.53361  1.0000 -0.2371792203
C   C133      1.0  0.53262  0.99901  0.17603  1.0000 -0.2371792203
C   C134      1.0  0.35659  0.53262  0.53361  1.0000 -0.2371792203
C   C135      1.0  0.82298  0.35659  0.82397  1.0000 -0.2371792203
C   C136      1.0  0.99901  0.82298  0.46639  1.0000 -0.2371792203
C   C137      1.0  0.46463  0.05728  0.84591  1.0000 -0.0314185653
C   C138      1.0  0.61872  0.46463  0.40735  1.0000 -0.0314185653
C   C139      1.0  0.21137  0.61872  0.15409  1.0000 -0.0314185653
C   C140      1.0  0.05728  0.21137  0.59265  1.0000 -0.0314185653
C   C141      1.0  0.53537  0.94272  0.15409  1.0000 -0.0314185653
C   C142      1.0  0.38128  0.53537  0.59265  1.0000 -0.0314185653
C   C143      1.0  0.78863  0.38128  0.84591  1.0000 -0.0314185653
C   C144      1.0  0.94272  0.78863  0.40735  1.0000 -0.0314185653
C   C145      1.0  0.47131  0.09451  0.81602  1.0000 -0.1382548856
C   C146      1.0  0.65529  0.47131  0.37680  1.0000 -0.1382548856
C   C147      1.0  0.27849  0.65529  0.18398  1.0000 -0.1382548856
C   C148      1.0  0.09451  0.27849  0.62320  1.0000 -0.1382548856
C   C149      1.0  0.52869  0.90549  0.18398  1.0000 -0.1382548856
C   C150      1.0  0.34471  0.52869  0.62320  1.0000 -0.1382548856
C   C151      1.0  0.72151  0.34471  0.81602  1.0000 -0.1382548856
C   C152      1.0  0.90549  0.72151  0.37680  1.0000 -0.1382548856
C   C153      1.0  0.48099  0.07708  0.76387  1.0000 -0.0050509123
C   C154      1.0  0.71712  0.48099  0.40391  1.0000 -0.0050509123
C   C155      1.0  0.31321  0.71712  0.23613  1.0000 -0.0050509123
C   C156      1.0  0.07708  0.31321  0.59609  1.0000 -0.0050509123
C   C157      1.0  0.51901  0.92292  0.23613  1.0000 -0.0050509123
C   C158      1.0  0.28288  0.51901  0.59609  1.0000 -0.0050509123
C   C159      1.0  0.68679  0.28288  0.76387  1.0000 -0.0050509123
C   C160      1.0  0.92292  0.68679  0.40391  1.0000 -0.0050509123
C   C161      1.0  0.48250  0.01930  0.73980  1.0000 -0.2202189012
C   C162      1.0  0.74270  0.48250  0.46320  1.0000 -0.2202189012
C   C163      1.0  0.27950  0.74270  0.26020  1.0000 -0.2202189012
C   C164      1.0  0.01930  0.27950  0.53680  1.0000 -0.2202189012
C   C165      1.0  0.51750  0.98070  0.26020  1.0000 -0.2202189012
C   C166      1.0  0.25730  0.51750  0.53680  1.0000 -0.2202189012
C   C167      1.0  0.72050  0.25730  0.73980  1.0000 -0.2202189012
C   C168      1.0  0.98070  0.72050  0.46320  1.0000 -0.2202189012
C   C169      1.0  0.46575  0.53932  0.38067  1.0000 0.5583693193
C   C170      1.0  0.08508  0.46575  0.92643  1.0000 0.5583693193
C   C171      1.0  0.15865  0.08508  0.61933  1.0000 0.5583693193
C   C172      1.0  0.53932  0.15865  0.07357  1.0000 0.5583693193
C   C173      1.0  0.53425  0.46068  0.61933  1.0000 0.5583693193
C   C174      1.0  0.91492  0.53425  0.07357  1.0000 0.5583693193
C   C175      1.0  0.84135  0.91492  0.38067  1.0000 0.5583693193
C   C176      1.0  0.46068  0.84135  0.92643  1.0000 0.5583693193
C   C177      1.0  0.50429  0.74863  0.38412  1.0000 0.5794167326
C   C178      1.0  0.12017  0.50429  0.75566  1.0000 0.5794167326
C   C179      1.0  0.36451  0.12017  0.61588  1.0000 0.5794167326
C   C180      1.0  0.74863  0.36451  0.24434  1.0000 0.5794167326
C   C181      1.0  0.49571  0.25137  0.61588  1.0000 0.5794167326
C   C182      1.0  0.87983  0.49571  0.24434  1.0000 0.5794167326
C   C183      1.0  0.63549  0.87983  0.38412  1.0000 0.5794167326
C   C184      1.0  0.25137  0.63549  0.75566  1.0000 0.5794167326
C   C185      1.0  0.45145  0.07456  0.89961  1.0000 0.5516519876
C   C186      1.0  0.55184  0.45145  0.37689  1.0000 0.5516519876
C   C187      1.0  0.17495  0.55184  0.10039  1.0000 0.5516519876
C   C188      1.0  0.07456  0.17495  0.62311  1.0000 0.5516519876
C   C189      1.0  0.54855  0.92544  0.10039  1.0000 0.5516519876
C   C190      1.0  0.44816  0.54855  0.62311  1.0000 0.5516519876
C   C191      1.0  0.82505  0.44816  0.89961  1.0000 0.5516519876
C   C192      1.0  0.92544  0.82505  0.37689  1.0000 0.5516519876
C   C193      1.0  0.48545  0.11538  0.72947  1.0000 0.5794167326
C   C194      1.0  0.75598  0.48545  0.37007  1.0000 0.5794167326
C   C195      1.0  0.38591  0.75598  0.27053  1.0000 0.5794167326
C   C196      1.0  0.11538  0.38591  0.62993  1.0000 0.5794167326
C   C197      1.0  0.51455  0.88462  0.27053  1.0000 0.5794167326
C   C198      1.0  0.24402  0.51455  0.62993  1.0000 0.5794167326
C   C199      1.0  0.61409  0.24402  0.72947  1.0000 0.5794167326
C   C200      1.0  0.88462  0.61409  0.37007  1.0000 0.5794167326
C   C201      1.0  0.38930  0.23630  0.21920  1.0000 0.0028390742
C   C202      1.0  0.17010  0.38930  0.15300  1.0000 0.0028390742
C   C203      1.0  0.01710  0.17010  0.78080  1.0000 0.0028390742
C   C204      1.0  0.23630  0.01710  0.84700  1.0000 0.0028390742
C   C205      1.0  0.61070  0.76370  0.78080  1.0000 0.0028390742
C   C206      1.0  0.82990  0.61070  0.84700  1.0000 0.0028390742
C   C207      1.0  0.98290  0.82990  0.21920  1.0000 0.0028390742
C   C208      1.0  0.76370  0.98290  0.15300  1.0000 0.0028390742
C   C209      1.0  0.37640  0.19460  0.24440  1.0000 -0.2046272649
C   C210      1.0  0.13200  0.37640  0.18180  1.0000 -0.2046272649
C   C211      1.0  0.95020  0.13200  0.75560  1.0000 -0.2046272649
C   C212      1.0  0.19460  0.95020  0.81820  1.0000 -0.2046272649
C   C213      1.0  0.62360  0.80540  0.75560  1.0000 -0.2046272649
C   C214      1.0  0.86800  0.62360  0.81820  1.0000 -0.2046272649
C   C215      1.0  0.04980  0.86800  0.24440  1.0000 -0.2046272649
C   C216      1.0  0.80540  0.04980  0.18180  1.0000 -0.2046272649
C   C217      1.0  0.36940  0.13470  0.21550  1.0000 0.2311809355
C   C218      1.0  0.15390  0.36940  0.23470  1.0000 0.2311809355
C   C219      1.0  0.91920  0.15390  0.78450  1.0000 0.2311809355
C   C220      1.0  0.13470  0.91920  0.76530  1.0000 0.2311809355
C   C221      1.0  0.63060  0.86530  0.78450  1.0000 0.2311809355
C   C222      1.0  0.84610  0.63060  0.76530  1.0000 0.2311809355
C   C223      1.0  0.08080  0.84610  0.21550  1.0000 0.2311809355
C   C224      1.0  0.86530  0.08080  0.23470  1.0000 0.2311809355
C   C225      1.0  0.37230  0.11410  0.15900  1.0000 -0.2277124455
C   C226      1.0  0.21330  0.37230  0.25820  1.0000 -0.2277124455
C   C227      1.0  0.95510  0.21330  0.84100  1.0000 -0.2277124455
C   C228      1.0  0.11410  0.95510  0.74180  1.0000 -0.2277124455
C   C229      1.0  0.62770  0.88590  0.84100  1.0000 -0.2277124455
C   C230      1.0  0.78670  0.62770  0.74180  1.0000 -0.2277124455
C   C231      1.0  0.04490  0.78670  0.15900  1.0000 -0.2277124455
C   C232      1.0  0.88590  0.04490  0.25820  1.0000 -0.2277124455
C   C233      1.0  0.38420  0.15510  0.13290  1.0000 -0.0011375728
C   C234      1.0  0.25130  0.38420  0.22910  1.0000 -0.0011375728
C   C235      1.0  0.02220  0.25130  0.86710  1.0000 -0.0011375728
C   C236      1.0  0.15510  0.02220  0.77090  1.0000 -0.0011375728
C   C237      1.0  0.61580  0.84490  0.86710  1.0000 -0.0011375728
C   C238      1.0  0.74870  0.61580  0.77090  1.0000 -0.0011375728
C   C239      1.0  0.97780  0.74870  0.13290  1.0000 -0.0011375728
C   C240      1.0  0.84490  0.97780  0.22910  1.0000 -0.0011375728
C   C241      1.0  0.39330  0.21599  0.16289  1.0000 -0.1382548856
C   C242      1.0  0.23041  0.39330  0.17731  1.0000 -0.1382548856
C   C243      1.0  0.05310  0.23041  0.83711  1.0000 -0.1382548856
C   C244      1.0  0.21599  0.05310  0.82269  1.0000 -0.1382548856
C   C245      1.0  0.60670  0.78401  0.83711  1.0000 -0.1382548856
C   C246      1.0  0.76959  0.60670  0.82269  1.0000 -0.1382548856
C   C247      1.0  0.94690  0.76959  0.16289  1.0000 -0.1382548856
C   C248      1.0  0.78401  0.94690  0.17731  1.0000 -0.1382548856
C   C249      1.0  0.35840  0.04110  0.22430  1.0000 -0.0355869822
C   C250      1.0  0.13410  0.35840  0.31730  1.0000 -0.0355869822
C   C251      1.0  0.81680  0.13410  0.77570  1.0000 -0.0355869822
C   C252      1.0  0.04110  0.81680  0.68270  1.0000 -0.0355869822
C   C253      1.0  0.64160  0.95890  0.77570  1.0000 -0.0355869822
C   C254      1.0  0.86590  0.64160  0.68270  1.0000 -0.0355869822
C   C255      1.0  0.18320  0.86590  0.22430  1.0000 -0.0355869822
C   C256      1.0  0.95890  0.18320  0.31730  1.0000 -0.0355869822
C   C257      1.0  0.33660  0.00670  0.26230  1.0000 0.0559494666
C   C258      1.0  0.07430  0.33660  0.32990  1.0000 0.0559494666
C   C259      1.0  0.74440  0.07430  0.73770  1.0000 0.0559494666
C   C260      1.0  0.00670  0.74440  0.67010  1.0000 0.0559494666
C   C261      1.0  0.66340  0.99330  0.73770  1.0000 0.0559494666
C   C262      1.0  0.92570  0.66340  0.67010  1.0000 0.0559494666
C   C263      1.0  0.25560  0.92570  0.26230  1.0000 0.0559494666
C   C264      1.0  0.99330  0.25560  0.32990  1.0000 0.0559494666
C   C265      1.0  0.38340  0.01080  0.30900  1.0000 -0.1498329621
C   C266      1.0  0.07440  0.38340  0.37260  1.0000 -0.1498329621
C   C267      1.0  0.70180  0.07440  0.69100  1.0000 -0.1498329621
C   C268      1.0  0.01080  0.70180  0.62740  1.0000 -0.1498329621
C   C269      1.0  0.61660  0.98920  0.69100  1.0000 -0.1498329621
C   C270      1.0  0.92560  0.61660  0.62740  1.0000 -0.1498329621
C   C271      1.0  0.29820  0.92560  0.30900  1.0000 -0.1498329621
C   C272      1.0  0.98920  0.29820  0.37260  1.0000 -0.1498329621
C   C273      1.0  0.36260  0.97140  0.33400  1.0000 -0.1009759033
C   C274      1.0  0.02860  0.36260  0.39120  1.0000 -0.1009759033
C   C275      1.0  0.63740  0.02860  0.66600  1.0000 -0.1009759033
C   C276      1.0  0.97140  0.63740  0.60880  1.0000 -0.1009759033
C   C277      1.0  0.27140  0.96840  0.23980  1.0000 -0.1670521168
C   C278      1.0  0.03160  0.27140  0.30300  1.0000 -0.1670521168
C   C279      1.0  0.72860  0.03160  0.76020  1.0000 -0.1670521168
C   C280      1.0  0.96840  0.72860  0.69700  1.0000 -0.1670521168
C   C281      1.0  0.40310  0.30434  0.25404  1.0000 0.5712114902
C   C282      1.0  0.14906  0.40310  0.09876  1.0000 0.5712114902
C   C283      1.0  0.05030  0.14906  0.74596  1.0000 0.5712114902
C   C284      1.0  0.30434  0.05030  0.90124  1.0000 0.5712114902
C   C285      1.0  0.59690  0.69566  0.74596  1.0000 0.5712114902
C   C286      1.0  0.85094  0.59690  0.90124  1.0000 0.5712114902
C   C287      1.0  0.94970  0.85094  0.25404  1.0000 0.5712114902
C   C288      1.0  0.69566  0.94970  0.09876  1.0000 0.5712114902
C   C289      1.0  0.37280  0.31390  0.40490  1.0000 0.0687617989
C   C290      1.0  0.96790  0.37280  0.05890  1.0000 0.0687617989
C   C291      1.0  0.90900  0.96790  0.59510  1.0000 0.0687617989
C   C292      1.0  0.31390  0.90900  0.94110  1.0000 0.0687617989
C   C293      1.0  0.62720  0.68610  0.59510  1.0000 0.0687617989
C   C294      1.0  0.03210  0.62720  0.94110  1.0000 0.0687617989
C   C295      1.0  0.09100  0.03210  0.40490  1.0000 0.0687617989
C   C296      1.0  0.68610  0.09100  0.05890  1.0000 0.0687617989
C   C297      1.0  0.34960  0.28530  0.43830  1.0000 -0.1498329621
C   C298      1.0  0.91130  0.34960  0.06430  1.0000 -0.1498329621
C   C299      1.0  0.84700  0.91130  0.56170  1.0000 -0.1498329621
C   C300      1.0  0.28530  0.84700  0.93570  1.0000 -0.1498329621
C   C301      1.0  0.65040  0.71470  0.56170  1.0000 -0.1498329621
C   C302      1.0  0.08870  0.65040  0.93570  1.0000 -0.1498329621
C   C303      1.0  0.15300  0.08870  0.43830  1.0000 -0.1498329621
C   C304      1.0  0.71470  0.15300  0.06430  1.0000 -0.1498329621
C   C305      1.0  0.35080  0.32340  0.49280  1.0000 -0.0579081482
C   C306      1.0  0.85800  0.35080  0.02740  1.0000 -0.0579081482
C   C307      1.0  0.83060  0.85800  0.50720  1.0000 -0.0579081482
C   C308      1.0  0.32340  0.83060  0.97260  1.0000 -0.0579081482
C   C309      1.0  0.64920  0.67660  0.50720  1.0000 -0.0579081482
C   C310      1.0  0.14200  0.64920  0.97260  1.0000 -0.0579081482
C   C311      1.0  0.16940  0.14200  0.49280  1.0000 -0.0579081482
C   C312      1.0  0.67660  0.16940  0.02740  1.0000 -0.0579081482
C   C313      1.0  0.37520  0.38990  0.51390  1.0000 -0.1382548856
C   C314      1.0  0.86130  0.37520  0.98530  1.0000 -0.1382548856
C   C315      1.0  0.87600  0.86130  0.48610  1.0000 -0.1382548856
C   C316      1.0  0.38990  0.87600  0.01470  1.0000 -0.1382548856
C   C317      1.0  0.62480  0.61010  0.48610  1.0000 -0.1382548856
C   C318      1.0  0.13870  0.62480  0.01470  1.0000 -0.1382548856
C   C319      1.0  0.12400  0.13870  0.51390  1.0000 -0.1382548856
C   C320      1.0  0.61010  0.12400  0.98530  1.0000 -0.1382548856
C   C321      1.0  0.39840  0.41840  0.48040  1.0000 0.085904254
C   C322      1.0  0.91800  0.39840  0.98000  1.0000 0.085904254
C   C323      1.0  0.93800  0.91800  0.51960  1.0000 0.085904254
C   C324      1.0  0.41840  0.93800  0.02000  1.0000 0.085904254
C   C325      1.0  0.60160  0.58160  0.51960  1.0000 0.085904254
C   C326      1.0  0.08200  0.60160  0.02000  1.0000 0.085904254
C   C327      1.0  0.06200  0.08200  0.48040  1.0000 0.085904254
C   C328      1.0  0.58160  0.06200  0.98000  1.0000 0.085904254
N   N1        1.0  0.39714  0.38040  0.42594  1.0000 -0.2763191132
N   N2        1.0  0.97120  0.39714  0.01674  1.0000 -0.2763191132
N   N3        1.0  0.95446  0.97120  0.57406  1.0000 -0.2763191132
N   N4        1.0  0.38040  0.95446  0.98326  1.0000 -0.2763191132
N   N5        1.0  0.60286  0.61960  0.57406  1.0000 -0.2763191132
N   N6        1.0  0.02880  0.60286  0.98326  1.0000 -0.2763191132
N   N7        1.0  0.04554  0.02880  0.42594  1.0000 -0.2763191132
N   N8        1.0  0.61960  0.04554  0.01674  1.0000 -0.2763191132
O   O1        1.0  0.50632  0.72868  0.33288  1.0000 -0.5181641918
O   O2        1.0  0.17344  0.50632  0.77764  1.0000 -0.5181641918
O   O3        1.0  0.39580  0.17344  0.66712  1.0000 -0.5096881662
O   O4        1.0  0.72868  0.39580  0.22236  1.0000 -0.5181641918
O   O5        1.0  0.49368  0.27132  0.66712  1.0000 -0.5181641918
O   O6        1.0  0.82656  0.49368  0.22236  1.0000 -0.5181641918
O   O7        1.0  0.60420  0.82656  0.33288  1.0000 -0.5181641918
O   O8        1.0  0.27132  0.60420  0.77764  1.0000 -0.5181641918
O   O9        1.0  0.50809  0.80318  0.41081  1.0000 -0.5358776866
O   O10       1.0  0.09728  0.50809  0.70491  1.0000 -0.5358776866
O   O11       1.0  0.39237  0.09728  0.58919  1.0000 -0.5341749607
O   O12       1.0  0.80318  0.39237  0.29509  1.0000 -0.5358776866
O   O13       1.0  0.49191  0.19682  0.58919  1.0000 -0.5341749607
O   O14       1.0  0.90272  0.49191  0.29509  1.0000 -0.5358776866
O   O15       1.0  0.60763  0.90272  0.41081  1.0000 -0.5358776866
O   O16       1.0  0.19682  0.60763  0.70491  1.0000 -0.5358776866
O   O17       1.0  0.48241  0.70291  0.55470  1.0000 -0.1325625913
O   O18       1.0  0.92771  0.48241  0.77950  1.0000 -0.1325625913
O   O19       1.0  0.14821  0.92771  0.44530  1.0000 -0.1325625913
O   O20       1.0  0.70291  0.14821  0.22050  1.0000 -0.1325625913
O   O21       1.0  0.51759  0.29709  0.44530  1.0000 -0.1325625913
O   O22       1.0  0.07229  0.51759  0.22050  1.0000 -0.1325625913
O   O23       1.0  0.85179  0.07229  0.55470  1.0000 -0.1325625913
O   O24       1.0  0.29709  0.85179  0.77950  1.0000 -0.1325625913
O   O25       1.0  0.47889  0.92867  0.74508  1.0000 -0.1903215913
O   O26       1.0  0.73381  0.47889  0.55022  1.0000 -0.1903215913
O   O27       1.0  0.18359  0.73381  0.25492  1.0000 -0.1903215913
O   O28       1.0  0.92867  0.18359  0.44978  1.0000 -0.1903215913
O   O29       1.0  0.52111  0.07133  0.25492  1.0000 -0.1903215913
O   O30       1.0  0.26619  0.52111  0.44978  1.0000 -0.1903215913
O   O31       1.0  0.81641  0.26619  0.74508  1.0000 -0.1903215913
O   O32       1.0  0.07133  0.81641  0.55022  1.0000 -0.1903215913
O   O33       1.0  0.43500  0.03420  0.91970  1.0000 -0.5096881662
O   O34       1.0  0.51530  0.43500  0.40080  1.0000 -0.5096881662
O   O35       1.0  0.11450  0.51530  0.08030  1.0000 -0.5096881662
O   O36       1.0  0.03420  0.11450  0.59920  1.0000 -0.5096881662
O   O37       1.0  0.56500  0.96580  0.08030  1.0000 -0.5096881662
O   O38       1.0  0.48470  0.56500  0.59920  1.0000 -0.5096881662
O   O39       1.0  0.88550  0.48470  0.91970  1.0000 -0.5096881662
O   O40       1.0  0.96580  0.88550  0.40080  1.0000 -0.5096881662
O   O41       1.0  0.45441  0.12902  0.92245  1.0000 -0.5181641918
O   O42       1.0  0.53196  0.45441  0.32539  1.0000 -0.5181641918
O   O43       1.0  0.20657  0.53196  0.07755  1.0000 -0.5181641918
O   O44       1.0  0.12902  0.20657  0.67461  1.0000 -0.5181641918
O   O45       1.0  0.54559  0.87098  0.07755  1.0000 -0.5181641918
O   O46       1.0  0.46804  0.54559  0.67461  1.0000 -0.5181641918
O   O47       1.0  0.79343  0.46804  0.92245  1.0000 -0.5181641918
O   O48       1.0  0.87098  0.79343  0.32539  1.0000 -0.5181641918
O   O49       1.0  0.48886  0.17028  0.75550  1.0000 -0.5341749607
O   O50       1.0  0.73336  0.48886  0.31858  1.0000 -0.5341749607
O   O51       1.0  0.41478  0.73336  0.24450  1.0000 -0.5341749607
O   O52       1.0  0.17028  0.41478  0.68142  1.0000 -0.5341749607
O   O53       1.0  0.51114  0.82972  0.24450  1.0000 -0.5341749607
O   O54       1.0  0.26664  0.51114  0.68142  1.0000 -0.5341749607
O   O55       1.0  0.58522  0.26664  0.75550  1.0000 -0.5341749607
O   O56       1.0  0.82972  0.58522  0.31858  1.0000 -0.5341749607
O   O57       1.0  0.48539  0.09339  0.67650  1.0000 -0.5341749607
O   O58       1.0  0.80889  0.48539  0.39200  1.0000 -0.5341749607
O   O59       1.0  0.41689  0.80889  0.32350  1.0000 -0.5341749607
O   O60       1.0  0.09339  0.41689  0.60800  1.0000 -0.5341749607
O   O61       1.0  0.51461  0.90661  0.32350  1.0000 -0.5341749607
O   O62       1.0  0.19111  0.51461  0.60800  1.0000 -0.5341749607
O   O63       1.0  0.58311  0.19111  0.67650  1.0000 -0.5341749607
O   O64       1.0  0.90661  0.58311  0.39200  1.0000 -0.5341749607
O   O65       1.0  0.46836  0.52227  0.32919  1.0000 -0.5181641918
O   O66       1.0  0.13917  0.46836  0.94609  1.0000 -0.5181641918
O   O67       1.0  0.19308  0.13917  0.67081  1.0000 -0.5181641918
O   O68       1.0  0.52227  0.19308  0.05391  1.0000 -0.5181641918
O   O69       1.0  0.53164  0.47773  0.67081  1.0000 -0.5181641918
O   O70       1.0  0.86083  0.53164  0.05391  1.0000 -0.5181641918
O   O71       1.0  0.80692  0.86083  0.32919  1.0000 -0.5181641918
O   O72       1.0  0.47773  0.80692  0.94609  1.0000 -0.5181641918
O   O73       1.0  0.45001  0.50124  0.40407  1.0000 -0.5181641918
O   O74       1.0  0.04594  0.45001  0.94877  1.0000 -0.5181641918
O   O75       1.0  0.09717  0.04594  0.59593  1.0000 -0.5181641918
O   O76       1.0  0.50124  0.09717  0.05123  1.0000 -0.5181641918
O   O77       1.0  0.54999  0.49876  0.59593  1.0000 -0.5181641918
O   O78       1.0  0.95406  0.54999  0.05123  1.0000 -0.5181641918
O   O79       1.0  0.90283  0.95406  0.40407  1.0000 -0.5181641918
O   O80       1.0  0.49876  0.90283  0.94877  1.0000 -0.5181641918
O   O81       1.0  0.40016  0.32107  0.30479  1.0000 -0.5096881662
O   O82       1.0  0.09537  0.40016  0.07909  1.0000 -0.5096881662
O   O83       1.0  0.01628  0.09537  0.69521  1.0000 -0.5096881662
O   O84       1.0  0.32107  0.01628  0.92091  1.0000 -0.5096881662
O   O85       1.0  0.59984  0.67893  0.69521  1.0000 -0.5096881662
O   O86       1.0  0.90463  0.59984  0.92091  1.0000 -0.5096881662
O   O87       1.0  0.98372  0.90463  0.30479  1.0000 -0.5096881662
O   O88       1.0  0.67893  0.98372  0.07909  1.0000 -0.5096881662
O   O89       1.0  0.41711  0.34168  0.22971  1.0000 -0.5181641918
O   O90       1.0  0.18740  0.41711  0.07543  1.0000 -0.5181641918
O   O91       1.0  0.11197  0.18740  0.77029  1.0000 -0.5181641918
O   O92       1.0  0.34168  0.11197  0.92457  1.0000 -0.5181641918
O   O93       1.0  0.58289  0.65832  0.77029  1.0000 -0.5181641918
O   O94       1.0  0.81260  0.58289  0.92457  1.0000 -0.5181641918
O   O95       1.0  0.88803  0.81260  0.22971  1.0000 -0.5181641918
O   O96       1.0  0.65832  0.88803  0.07543  1.0000 -0.5181641918
O   O97       1.0  0.40982  0.17580  0.05670  1.0000 -0.5096881662
O   O98       1.0  0.35312  0.40982  0.23402  1.0000 -0.5096881662
O   O99       1.0  0.11910  0.35312  0.94330  1.0000 -0.5096881662
O   O100      1.0  0.17580  0.11910  0.76598  1.0000 -0.5096881662
O   O101      1.0  0.59018  0.82420  0.94330  1.0000 -0.5096881662
O   O102      1.0  0.64688  0.59018  0.76598  1.0000 -0.5096881662
O   O103      1.0  0.88090  0.64688  0.05670  1.0000 -0.5096881662
O   O104      1.0  0.82420  0.88090  0.23402  1.0000 -0.5096881662
O   O105      1.0  0.38946  0.08069  0.05455  1.0000 -0.5011760039
O   O106      1.0  0.33491  0.38946  0.30877  1.0000 -0.5011760039
O   O107      1.0  0.02614  0.33491  0.94545  1.0000 -0.5011760039
O   O108      1.0  0.08069  0.02614  0.69123  1.0000 -0.5011760039
O   O109      1.0  0.61054  0.91931  0.94545  1.0000 -0.5011760039
O   O110      1.0  0.66509  0.61054  0.69123  1.0000 -0.5011760039
O   O111      1.0  0.97386  0.66509  0.05455  1.0000 -0.5011760039
O   O112      1.0  0.91931  0.97386  0.30877  1.0000 -0.5011760039
O   O113      1.0  0.35670  0.09661  0.24431  1.0000 -0.1565845838
O   O114      1.0  0.11239  0.35670  0.26009  1.0000 -0.1565845838
O   O115      1.0  0.85230  0.11239  0.75569  1.0000 -0.1565845838
O   O116      1.0  0.09661  0.85230  0.73991  1.0000 -0.1565845838
O   O117      1.0  0.64330  0.90339  0.75569  1.0000 -0.1565845838
O   O118      1.0  0.88761  0.64330  0.73991  1.0000 -0.1565845838
O   O119      1.0  0.14770  0.88761  0.24431  1.0000 -0.1565845838
O   O120      1.0  0.90339  0.14770  0.26009  1.0000 -0.1565845838
