# DDEC6 charges by PACMAN v1.1 (https://github.com/mtap-research/PACMAN-charge/)
data_2015[Zn][srs]3[ASR]1
_chemical_formula_sum              "Zn16 H192 C312 N8 O48"
_cell_length_a       24.5621
_cell_length_b       24.5621
_cell_length_c       24.5621
_cell_angle_alpha    60
_cell_angle_beta     60
_cell_angle_gamma    60

_symmetry_space_group_name_H-M    "P 1"
_symmetry_Int_Tables_number       1

loop_
  _symmetry_equiv_pos_as_xyz
  'x, y, z'

loop_
  _atom_site_type_symbol
  _atom_site_label
  _atom_site_symmetry_multiplicity
  _atom_site_fract_x
  _atom_site_fract_y
  _atom_site_fract_z
  _atom_site_occupancy
  _atom_site_charge
Zn  Zn1       1.0  0.64360  0.06920  0.64360  1.0000 0.7600863131
Zn  Zn2       1.0  0.06920  0.64360  0.64360  1.0000 0.7600863131
Zn  Zn3       1.0  0.64360  0.64360  0.06920  1.0000 0.7600863131
Zn  Zn4       1.0  0.64360  0.64360  0.64360  1.0000 0.7600863131
Zn  Zn5       1.0  0.58509  0.24473  0.58509  1.0000 0.9009168895
Zn  Zn6       1.0  0.24473  0.58509  0.58509  1.0000 0.9009168895
Zn  Zn7       1.0  0.58509  0.58509  0.24473  1.0000 0.9009168895
Zn  Zn8       1.0  0.58509  0.58509  0.58509  1.0000 0.9009168895
Zn  Zn9       1.0  0.35640  0.93080  0.35640  1.0000 0.7600863131
Zn  Zn10      1.0  0.93080  0.35640  0.35640  1.0000 0.7600863131
Zn  Zn11      1.0  0.35640  0.35640  0.35640  1.0000 0.7600863131
Zn  Zn12      1.0  0.35640  0.35640  0.93080  1.0000 0.7600863131
Zn  Zn13      1.0  0.41491  0.75527  0.41491  1.0000 0.9009168895
Zn  Zn14      1.0  0.75527  0.41491  0.41491  1.0000 0.9009168895
Zn  Zn15      1.0  0.41491  0.41491  0.41491  1.0000 0.9009168895
Zn  Zn16      1.0  0.41491  0.41491  0.75527  1.0000 0.9009168895
H   H1        1.0  0.63550  0.05790  0.81690  1.0000 0.1195357407
H   H2        1.0  0.05790  0.63550  0.48970  1.0000 0.1195357407
H   H3        1.0  0.48970  0.81690  0.05790  1.0000 0.1195357407
H   H4        1.0  0.81690  0.48970  0.63550  1.0000 0.1195357407
H   H5        1.0  0.48970  0.63550  0.81690  1.0000 0.1195357407
H   H6        1.0  0.81690  0.05790  0.48970  1.0000 0.1195357407
H   H7        1.0  0.63550  0.48970  0.05790  1.0000 0.1195357407
H   H8        1.0  0.05790  0.81690  0.63550  1.0000 0.1195357407
H   H9        1.0  0.05790  0.48970  0.81690  1.0000 0.1195357407
H   H10       1.0  0.63550  0.81690  0.48970  1.0000 0.1195357407
H   H11       1.0  0.81690  0.63550  0.05790  1.0000 0.1195357407
H   H12       1.0  0.48970  0.05790  0.63550  1.0000 0.1195357407
H   H13       1.0  0.62490  0.05470  0.91670  1.0000 0.1088501682
H   H14       1.0  0.05470  0.62490  0.40370  1.0000 0.1088501682
H   H15       1.0  0.40370  0.91670  0.05470  1.0000 0.1088501682
H   H16       1.0  0.91670  0.40370  0.62490  1.0000 0.1088501682
H   H17       1.0  0.40370  0.62490  0.91670  1.0000 0.1088501682
H   H18       1.0  0.91670  0.05470  0.40370  1.0000 0.1088501682
H   H19       1.0  0.62490  0.40370  0.05470  1.0000 0.1088501682
H   H20       1.0  0.05470  0.91670  0.62490  1.0000 0.1088501682
H   H21       1.0  0.05470  0.40370  0.91670  1.0000 0.1088501682
H   H22       1.0  0.62490  0.91670  0.40370  1.0000 0.1088501682
H   H23       1.0  0.91670  0.62490  0.05470  1.0000 0.1088501682
H   H24       1.0  0.40370  0.05470  0.62490  1.0000 0.1088501682
H   H25       1.0  0.54950  0.25350  0.85950  1.0000 0.1088501682
H   H26       1.0  0.25350  0.54950  0.33750  1.0000 0.1088501682
H   H27       1.0  0.33750  0.85950  0.25350  1.0000 0.1088501682
H   H28       1.0  0.85950  0.33750  0.54950  1.0000 0.1088501682
H   H29       1.0  0.33750  0.54950  0.85950  1.0000 0.1088501682
H   H30       1.0  0.85950  0.25350  0.33750  1.0000 0.1088501682
H   H31       1.0  0.54950  0.33750  0.25350  1.0000 0.1088501682
H   H32       1.0  0.25350  0.85950  0.54950  1.0000 0.1088501682
H   H33       1.0  0.25350  0.33750  0.85950  1.0000 0.1088501682
H   H34       1.0  0.54950  0.85950  0.33750  1.0000 0.1088501682
H   H35       1.0  0.85950  0.54950  0.25350  1.0000 0.1088501682
H   H36       1.0  0.33750  0.25350  0.54950  1.0000 0.1088501682
H   H37       1.0  0.56040  0.25620  0.75960  1.0000 0.1195357407
H   H38       1.0  0.25620  0.56040  0.42380  1.0000 0.1195357407
H   H39       1.0  0.42380  0.75960  0.25620  1.0000 0.1195357407
H   H40       1.0  0.75960  0.42380  0.56040  1.0000 0.1195357407
H   H41       1.0  0.42380  0.56040  0.75960  1.0000 0.1195357407
H   H42       1.0  0.75960  0.25620  0.42380  1.0000 0.1195357407
H   H43       1.0  0.56040  0.42380  0.25620  1.0000 0.1195357407
H   H44       1.0  0.25620  0.75960  0.56040  1.0000 0.1195357407
H   H45       1.0  0.25620  0.42380  0.75960  1.0000 0.1195357407
H   H46       1.0  0.56040  0.75960  0.42380  1.0000 0.1195357407
H   H47       1.0  0.75960  0.56040  0.25620  1.0000 0.1195357407
H   H48       1.0  0.42380  0.25620  0.56040  1.0000 0.1195357407
H   H49       1.0  0.50900  0.23980  0.96560  1.0000 0.1088501682
H   H50       1.0  0.23980  0.50900  0.28560  1.0000 0.1088501682
H   H51       1.0  0.28560  0.96560  0.23980  1.0000 0.1088501682
H   H52       1.0  0.96560  0.28560  0.50900  1.0000 0.1088501682
H   H53       1.0  0.28560  0.50900  0.96560  1.0000 0.1088501682
H   H54       1.0  0.96560  0.23980  0.28560  1.0000 0.1088501682
H   H55       1.0  0.50900  0.28560  0.23980  1.0000 0.1088501682
H   H56       1.0  0.23980  0.96560  0.50900  1.0000 0.1088501682
H   H57       1.0  0.23980  0.28560  0.96560  1.0000 0.1088501682
H   H58       1.0  0.50900  0.96560  0.28560  1.0000 0.1088501682
H   H59       1.0  0.96560  0.50900  0.23980  1.0000 0.1088501682
H   H60       1.0  0.28560  0.23980  0.50900  1.0000 0.1088501682
H   H61       1.0  0.63680  0.05620  0.08760  1.0000 0.1287507563
H   H62       1.0  0.05620  0.63680  0.21940  1.0000 0.1287507563
H   H63       1.0  0.21940  0.08760  0.05620  1.0000 0.1287507563
H   H64       1.0  0.08760  0.21940  0.63680  1.0000 0.1287507563
H   H65       1.0  0.21940  0.63680  0.08760  1.0000 0.1287507563
H   H66       1.0  0.08760  0.05620  0.21940  1.0000 0.1287507563
H   H67       1.0  0.63680  0.21940  0.05620  1.0000 0.1287507563
H   H68       1.0  0.05620  0.08760  0.63680  1.0000 0.1287507563
H   H69       1.0  0.05620  0.21940  0.08760  1.0000 0.1287507563
H   H70       1.0  0.63680  0.08760  0.21940  1.0000 0.1287507563
H   H71       1.0  0.08760  0.63680  0.05620  1.0000 0.1287507563
H   H72       1.0  0.21940  0.05620  0.63680  1.0000 0.1287507563
H   H73       1.0  0.64490  0.05950  0.98950  1.0000 0.0998115064
H   H74       1.0  0.05950  0.64490  0.30610  1.0000 0.0998115064
H   H75       1.0  0.30610  0.98950  0.05950  1.0000 0.0998115064
H   H76       1.0  0.98950  0.30610  0.64490  1.0000 0.0998115064
H   H77       1.0  0.30610  0.64490  0.98950  1.0000 0.0998115064
H   H78       1.0  0.98950  0.05950  0.30610  1.0000 0.0998115064
H   H79       1.0  0.64490  0.30610  0.05950  1.0000 0.0998115064
H   H80       1.0  0.05950  0.98950  0.64490  1.0000 0.0998115064
H   H81       1.0  0.05950  0.30610  0.98950  1.0000 0.0998115064
H   H82       1.0  0.64490  0.98950  0.30610  1.0000 0.0998115064
H   H83       1.0  0.98950  0.64490  0.05950  1.0000 0.0998115064
H   H84       1.0  0.30610  0.05950  0.64490  1.0000 0.0998115064
H   H85       1.0  0.49880  0.23640  0.06300  1.0000 0.1287507563
H   H86       1.0  0.23640  0.49880  0.20180  1.0000 0.1287507563
H   H87       1.0  0.20180  0.06300  0.23640  1.0000 0.1287507563
H   H88       1.0  0.06300  0.20180  0.49880  1.0000 0.1287507563
H   H89       1.0  0.20180  0.49880  0.06300  1.0000 0.1287507563
H   H90       1.0  0.06300  0.23640  0.20180  1.0000 0.1287507563
H   H91       1.0  0.49880  0.20180  0.23640  1.0000 0.1287507563
H   H92       1.0  0.23640  0.06300  0.49880  1.0000 0.1287507563
H   H93       1.0  0.23640  0.20180  0.06300  1.0000 0.1287507563
H   H94       1.0  0.49880  0.06300  0.20180  1.0000 0.1287507563
H   H95       1.0  0.06300  0.49880  0.23640  1.0000 0.1287507563
H   H96       1.0  0.20180  0.23640  0.49880  1.0000 0.1287507563
H   H97       1.0  0.36450  0.94210  0.51030  1.0000 0.1195357407
H   H98       1.0  0.94210  0.36450  0.18310  1.0000 0.1195357407
H   H99       1.0  0.51030  0.18310  0.36450  1.0000 0.1195357407
H   H100      1.0  0.18310  0.51030  0.94210  1.0000 0.1195357407
H   H101      1.0  0.51030  0.36450  0.94210  1.0000 0.1195357407
H   H102      1.0  0.18310  0.94210  0.36450  1.0000 0.1195357407
H   H103      1.0  0.36450  0.51030  0.18310  1.0000 0.1195357407
H   H104      1.0  0.94210  0.18310  0.51030  1.0000 0.1195357407
H   H105      1.0  0.94210  0.51030  0.36450  1.0000 0.1195357407
H   H106      1.0  0.36450  0.18310  0.94210  1.0000 0.1195357407
H   H107      1.0  0.18310  0.36450  0.51030  1.0000 0.1195357407
H   H108      1.0  0.51030  0.94210  0.18310  1.0000 0.1195357407
H   H109      1.0  0.37510  0.94530  0.59630  1.0000 0.1088501682
H   H110      1.0  0.94530  0.37510  0.08330  1.0000 0.1088501682
H   H111      1.0  0.59630  0.08330  0.37510  1.0000 0.1088501682
H   H112      1.0  0.08330  0.59630  0.94530  1.0000 0.1088501682
H   H113      1.0  0.59630  0.37510  0.94530  1.0000 0.1088501682
H   H114      1.0  0.08330  0.94530  0.37510  1.0000 0.1088501682
H   H115      1.0  0.37510  0.59630  0.08330  1.0000 0.1088501682
H   H116      1.0  0.94530  0.08330  0.59630  1.0000 0.1088501682
H   H117      1.0  0.94530  0.59630  0.37510  1.0000 0.1088501682
H   H118      1.0  0.37510  0.08330  0.94530  1.0000 0.1088501682
H   H119      1.0  0.08330  0.37510  0.59630  1.0000 0.1088501682
H   H120      1.0  0.59630  0.94530  0.08330  1.0000 0.1088501682
H   H121      1.0  0.45050  0.74650  0.66250  1.0000 0.1088501682
H   H122      1.0  0.74650  0.45050  0.14050  1.0000 0.1088501682
H   H123      1.0  0.66250  0.14050  0.45050  1.0000 0.1088501682
H   H124      1.0  0.14050  0.66250  0.74650  1.0000 0.1088501682
H   H125      1.0  0.66250  0.45050  0.74650  1.0000 0.1088501682
H   H126      1.0  0.14050  0.74650  0.45050  1.0000 0.1088501682
H   H127      1.0  0.45050  0.66250  0.14050  1.0000 0.1088501682
H   H128      1.0  0.74650  0.14050  0.66250  1.0000 0.1088501682
H   H129      1.0  0.74650  0.66250  0.45050  1.0000 0.1088501682
H   H130      1.0  0.45050  0.14050  0.74650  1.0000 0.1088501682
H   H131      1.0  0.14050  0.45050  0.66250  1.0000 0.1088501682
H   H132      1.0  0.66250  0.74650  0.14050  1.0000 0.1088501682
H   H133      1.0  0.43960  0.74380  0.57620  1.0000 0.1195357407
H   H134      1.0  0.74380  0.43960  0.24040  1.0000 0.1195357407
H   H135      1.0  0.57620  0.24040  0.43960  1.0000 0.1195357407
H   H136      1.0  0.24040  0.57620  0.74380  1.0000 0.1195357407
H   H137      1.0  0.57620  0.43960  0.74380  1.0000 0.1195357407
H   H138      1.0  0.24040  0.74380  0.43960  1.0000 0.1195357407
H   H139      1.0  0.43960  0.57620  0.24040  1.0000 0.1195357407
H   H140      1.0  0.74380  0.24040  0.57620  1.0000 0.1195357407
H   H141      1.0  0.74380  0.57620  0.43960  1.0000 0.1195357407
H   H142      1.0  0.43960  0.24040  0.74380  1.0000 0.1195357407
H   H143      1.0  0.24040  0.43960  0.57620  1.0000 0.1195357407
H   H144      1.0  0.57620  0.74380  0.24040  1.0000 0.1195357407
H   H145      1.0  0.49100  0.76020  0.71440  1.0000 0.1088501682
H   H146      1.0  0.76020  0.49100  0.03440  1.0000 0.1088501682
H   H147      1.0  0.71440  0.03440  0.49100  1.0000 0.1088501682
H   H148      1.0  0.03440  0.71440  0.76020  1.0000 0.1088501682
H   H149      1.0  0.71440  0.49100  0.76020  1.0000 0.1088501682
H   H150      1.0  0.03440  0.76020  0.49100  1.0000 0.1088501682
H   H151      1.0  0.49100  0.71440  0.03440  1.0000 0.1088501682
H   H152      1.0  0.76020  0.03440  0.71440  1.0000 0.1088501682
H   H153      1.0  0.76020  0.71440  0.49100  1.0000 0.1088501682
H   H154      1.0  0.49100  0.03440  0.76020  1.0000 0.1088501682
H   H155      1.0  0.03440  0.49100  0.71440  1.0000 0.1088501682
H   H156      1.0  0.71440  0.76020  0.03440  1.0000 0.1088501682
H   H157      1.0  0.36320  0.94380  0.78060  1.0000 0.1287507563
H   H158      1.0  0.94380  0.36320  0.91240  1.0000 0.1287507563
H   H159      1.0  0.78060  0.91240  0.36320  1.0000 0.1287507563
H   H160      1.0  0.91240  0.78060  0.94380  1.0000 0.1287507563
H   H161      1.0  0.78060  0.36320  0.94380  1.0000 0.1287507563
H   H162      1.0  0.91240  0.94380  0.36320  1.0000 0.1287507563
H   H163      1.0  0.36320  0.78060  0.91240  1.0000 0.1287507563
H   H164      1.0  0.94380  0.91240  0.78060  1.0000 0.1287507563
H   H165      1.0  0.94380  0.78060  0.36320  1.0000 0.1287507563
H   H166      1.0  0.36320  0.91240  0.94380  1.0000 0.1287507563
H   H167      1.0  0.91240  0.36320  0.78060  1.0000 0.1287507563
H   H168      1.0  0.78060  0.94380  0.91240  1.0000 0.1287507563
H   H169      1.0  0.35510  0.94050  0.69390  1.0000 0.0998115064
H   H170      1.0  0.94050  0.35510  0.01050  1.0000 0.0998115064
H   H171      1.0  0.69390  0.01050  0.35510  1.0000 0.0998115064
H   H172      1.0  0.01050  0.69390  0.94050  1.0000 0.0998115064
H   H173      1.0  0.69390  0.35510  0.94050  1.0000 0.0998115064
H   H174      1.0  0.01050  0.94050  0.35510  1.0000 0.0998115064
H   H175      1.0  0.35510  0.69390  0.01050  1.0000 0.0998115064
H   H176      1.0  0.94050  0.01050  0.69390  1.0000 0.0998115064
H   H177      1.0  0.94050  0.69390  0.35510  1.0000 0.0998115064
H   H178      1.0  0.35510  0.01050  0.94050  1.0000 0.0998115064
H   H179      1.0  0.01050  0.35510  0.69390  1.0000 0.0998115064
H   H180      1.0  0.69390  0.94050  0.01050  1.0000 0.0998115064
H   H181      1.0  0.50120  0.76360  0.79820  1.0000 0.1287507563
H   H182      1.0  0.76360  0.50120  0.93700  1.0000 0.1287507563
H   H183      1.0  0.79820  0.93700  0.50120  1.0000 0.1287507563
H   H184      1.0  0.93700  0.79820  0.76360  1.0000 0.1287507563
H   H185      1.0  0.79820  0.50120  0.76360  1.0000 0.1287507563
H   H186      1.0  0.93700  0.76360  0.50120  1.0000 0.1287507563
H   H187      1.0  0.50120  0.79820  0.93700  1.0000 0.1287507563
H   H188      1.0  0.76360  0.93700  0.79820  1.0000 0.1287507563
H   H189      1.0  0.76360  0.79820  0.50120  1.0000 0.1287507563
H   H190      1.0  0.50120  0.93700  0.76360  1.0000 0.1287507563
H   H191      1.0  0.93700  0.50120  0.79820  1.0000 0.1287507563
H   H192      1.0  0.79820  0.76360  0.93700  1.0000 0.1287507563
C   C1        1.0  0.61870  0.09730  0.82530  1.0000 -0.1111501789
C   C2        1.0  0.09730  0.61870  0.45870  1.0000 -0.1111501789
C   C3        1.0  0.45870  0.82530  0.09730  1.0000 -0.1111501789
C   C4        1.0  0.82530  0.45870  0.61870  1.0000 -0.1111501789
C   C5        1.0  0.45870  0.61870  0.82530  1.0000 -0.1111501789
C   C6        1.0  0.82530  0.09730  0.45870  1.0000 -0.1111501789
C   C7        1.0  0.61870  0.45870  0.09730  1.0000 -0.1111501789
C   C8        1.0  0.09730  0.82530  0.61870  1.0000 -0.1111501789
C   C9        1.0  0.09730  0.45870  0.82530  1.0000 -0.1111501789
C   C10       1.0  0.61870  0.82530  0.45870  1.0000 -0.1111501789
C   C11       1.0  0.82530  0.61870  0.09730  1.0000 -0.1111501789
C   C12       1.0  0.45870  0.09730  0.61870  1.0000 -0.1111501789
C   C13       1.0  0.61254  0.09586  0.88486  1.0000 -0.1571163123
C   C14       1.0  0.09586  0.61254  0.40674  1.0000 -0.1571163123
C   C15       1.0  0.40674  0.88486  0.09586  1.0000 -0.1571163123
C   C16       1.0  0.88486  0.40674  0.61254  1.0000 -0.1571163123
C   C17       1.0  0.40674  0.61254  0.88486  1.0000 -0.1571163123
C   C18       1.0  0.88486  0.09586  0.40674  1.0000 -0.1571163123
C   C19       1.0  0.61254  0.40674  0.09586  1.0000 -0.1571163123
C   C20       1.0  0.09586  0.88486  0.61254  1.0000 -0.1571163123
C   C21       1.0  0.09586  0.40674  0.88486  1.0000 -0.1571163123
C   C22       1.0  0.61254  0.88486  0.40674  1.0000 -0.1571163123
C   C23       1.0  0.88486  0.61254  0.09586  1.0000 -0.1571163123
C   C24       1.0  0.40674  0.09586  0.61254  1.0000 -0.1571163123
C   C25       1.0  0.56769  0.21391  0.85101  1.0000 -0.1379341593
C   C26       1.0  0.21391  0.56769  0.36739  1.0000 -0.1379341593
C   C27       1.0  0.36739  0.85101  0.21391  1.0000 -0.1379341593
C   C28       1.0  0.85101  0.36739  0.56769  1.0000 -0.1379341593
C   C29       1.0  0.36739  0.56769  0.85101  1.0000 -0.1379341593
C   C30       1.0  0.85101  0.21391  0.36739  1.0000 -0.1379341593
C   C31       1.0  0.56769  0.36739  0.21391  1.0000 -0.1379341593
C   C32       1.0  0.21391  0.85101  0.56769  1.0000 -0.1379341593
C   C33       1.0  0.21391  0.36739  0.85101  1.0000 -0.1379341593
C   C34       1.0  0.56769  0.85101  0.36739  1.0000 -0.1379341593
C   C35       1.0  0.85101  0.56769  0.21391  1.0000 -0.1379341593
C   C36       1.0  0.36739  0.21391  0.56769  1.0000 -0.1379341593
C   C37       1.0  0.59969  0.15871  0.77727  1.0000 -0.0469896112
C   C38       1.0  0.15871  0.59969  0.46433  1.0000 -0.0469896112
C   C39       1.0  0.46433  0.77727  0.15871  1.0000 -0.0469896112
C   C40       1.0  0.77727  0.46433  0.59969  1.0000 -0.0469896112
C   C41       1.0  0.46433  0.59969  0.77727  1.0000 -0.0469896112
C   C42       1.0  0.77727  0.15871  0.46433  1.0000 -0.0469896112
C   C43       1.0  0.59969  0.46433  0.15871  1.0000 -0.0469896112
C   C44       1.0  0.15871  0.77727  0.59969  1.0000 -0.0469896112
C   C45       1.0  0.15871  0.46433  0.77727  1.0000 -0.0469896112
C   C46       1.0  0.59969  0.77727  0.46433  1.0000 -0.0469896112
C   C47       1.0  0.77727  0.59969  0.15871  1.0000 -0.0469896112
C   C48       1.0  0.46433  0.15871  0.59969  1.0000 -0.0469896112
C   C49       1.0  0.60779  0.16001  0.71237  1.0000 0.5783963206
C   C50       1.0  0.16001  0.60779  0.51983  1.0000 0.5783963206
C   C51       1.0  0.51983  0.71237  0.16001  1.0000 0.5783963206
C   C52       1.0  0.71237  0.51983  0.60779  1.0000 0.5783963206
C   C53       1.0  0.51983  0.60779  0.71237  1.0000 0.5783963206
C   C54       1.0  0.71237  0.16001  0.51983  1.0000 0.5783963206
C   C55       1.0  0.60779  0.51983  0.16001  1.0000 0.5783963206
C   C56       1.0  0.16001  0.71237  0.60779  1.0000 0.5783963206
C   C57       1.0  0.16001  0.51983  0.71237  1.0000 0.5783963206
C   C58       1.0  0.60779  0.71237  0.51983  1.0000 0.5783963206
C   C59       1.0  0.71237  0.60779  0.16001  1.0000 0.5783963206
C   C60       1.0  0.51983  0.16001  0.60779  1.0000 0.5783963206
C   C61       1.0  0.57404  0.21542  0.79104  1.0000 -0.0894546377
C   C62       1.0  0.21542  0.57404  0.41950  1.0000 -0.0894546377
C   C63       1.0  0.41950  0.79104  0.21542  1.0000 -0.0894546377
C   C64       1.0  0.79104  0.41950  0.57404  1.0000 -0.0894546377
C   C65       1.0  0.41950  0.57404  0.79104  1.0000 -0.0894546377
C   C66       1.0  0.79104  0.21542  0.41950  1.0000 -0.0894546377
C   C67       1.0  0.57404  0.41950  0.21542  1.0000 -0.0894546377
C   C68       1.0  0.21542  0.79104  0.57404  1.0000 -0.0894546377
C   C69       1.0  0.21542  0.41950  0.79104  1.0000 -0.0894546377
C   C70       1.0  0.57404  0.79104  0.41950  1.0000 -0.0894546377
C   C71       1.0  0.79104  0.57404  0.21542  1.0000 -0.0894546377
C   C72       1.0  0.41950  0.21542  0.57404  1.0000 -0.0894546377
C   C73       1.0  0.58869  0.15291  0.89903  1.0000 0.0730579945
C   C74       1.0  0.15291  0.58869  0.35937  1.0000 0.0730579945
C   C75       1.0  0.35937  0.89903  0.15291  1.0000 0.0730579945
C   C76       1.0  0.89903  0.35937  0.58869  1.0000 0.0730579945
C   C77       1.0  0.35937  0.58869  0.89903  1.0000 0.0730579945
C   C78       1.0  0.89903  0.15291  0.35937  1.0000 0.0730579945
C   C79       1.0  0.58869  0.35937  0.15291  1.0000 0.0730579945
C   C80       1.0  0.15291  0.89903  0.58869  1.0000 0.0730579945
C   C81       1.0  0.15291  0.35937  0.89903  1.0000 0.0730579945
C   C82       1.0  0.58869  0.89903  0.35937  1.0000 0.0730579945
C   C83       1.0  0.89903  0.58869  0.15291  1.0000 0.0730579945
C   C84       1.0  0.35937  0.15291  0.58869  1.0000 0.0730579945
C   C85       1.0  0.56890  0.14690  0.08490  1.0000 0.1466906204
C   C86       1.0  0.14690  0.56890  0.19930  1.0000 0.1466906204
C   C87       1.0  0.19930  0.08490  0.14690  1.0000 0.1466906204
C   C88       1.0  0.08490  0.19930  0.56890  1.0000 0.1466906204
C   C89       1.0  0.19930  0.56890  0.08490  1.0000 0.1466906204
C   C90       1.0  0.08490  0.14690  0.19930  1.0000 0.1466906204
C   C91       1.0  0.56890  0.19930  0.14690  1.0000 0.1466906204
C   C92       1.0  0.14690  0.08490  0.56890  1.0000 0.1466906204
C   C93       1.0  0.14690  0.19930  0.08490  1.0000 0.1466906204
C   C94       1.0  0.56890  0.08490  0.19930  1.0000 0.1466906204
C   C95       1.0  0.08490  0.56890  0.14690  1.0000 0.1466906204
C   C96       1.0  0.19930  0.14690  0.56890  1.0000 0.1466906204
C   C97       1.0  0.57972  0.15228  0.96340  1.0000 0.0516876152
C   C98       1.0  0.15228  0.57972  0.30460  1.0000 0.0516876152
C   C99       1.0  0.30460  0.96340  0.15228  1.0000 0.0516876152
C   C100      1.0  0.96340  0.30460  0.57972  1.0000 0.0516876152
C   C101      1.0  0.30460  0.57972  0.96340  1.0000 0.0516876152
C   C102      1.0  0.96340  0.15228  0.30460  1.0000 0.0516876152
C   C103      1.0  0.57972  0.30460  0.15228  1.0000 0.0516876152
C   C104      1.0  0.15228  0.96340  0.57972  1.0000 0.0516876152
C   C105      1.0  0.15228  0.30460  0.96340  1.0000 0.0516876152
C   C106      1.0  0.57972  0.96340  0.30460  1.0000 0.0516876152
C   C107      1.0  0.96340  0.57972  0.15228  1.0000 0.0516876152
C   C108      1.0  0.30460  0.15228  0.57972  1.0000 0.0516876152
C   C109      1.0  0.53596  0.20244  0.98944  1.0000 -0.1379341593
C   C110      1.0  0.20244  0.53596  0.27216  1.0000 -0.1379341593
C   C111      1.0  0.27216  0.98944  0.20244  1.0000 -0.1379341593
C   C112      1.0  0.98944  0.27216  0.53596  1.0000 -0.1379341593
C   C113      1.0  0.27216  0.53596  0.98944  1.0000 -0.1379341593
C   C114      1.0  0.98944  0.20244  0.27216  1.0000 -0.1379341593
C   C115      1.0  0.53596  0.27216  0.20244  1.0000 -0.1379341593
C   C116      1.0  0.20244  0.98944  0.53596  1.0000 -0.1379341593
C   C117      1.0  0.20244  0.27216  0.98944  1.0000 -0.1379341593
C   C118      1.0  0.53596  0.98944  0.27216  1.0000 -0.1379341593
C   C119      1.0  0.98944  0.53596  0.20244  1.0000 -0.1379341593
C   C120      1.0  0.27216  0.20244  0.53596  1.0000 -0.1379341593
C   C121      1.0  0.61130  0.09390  0.06250  1.0000 -0.1864825144
C   C122      1.0  0.09390  0.61130  0.23230  1.0000 -0.1864825144
C   C123      1.0  0.23230  0.06250  0.09390  1.0000 -0.1864825144
C   C124      1.0  0.06250  0.23230  0.61130  1.0000 -0.1864825144
C   C125      1.0  0.23230  0.61130  0.06250  1.0000 -0.1864825144
C   C126      1.0  0.06250  0.09390  0.23230  1.0000 -0.1864825144
C   C127      1.0  0.61130  0.23230  0.09390  1.0000 -0.1864825144
C   C128      1.0  0.09390  0.06250  0.61130  1.0000 -0.1864825144
C   C129      1.0  0.09390  0.23230  0.06250  1.0000 -0.1864825144
C   C130      1.0  0.61130  0.06250  0.23230  1.0000 -0.1864825144
C   C131      1.0  0.06250  0.61130  0.09390  1.0000 -0.1864825144
C   C132      1.0  0.23230  0.09390  0.61130  1.0000 -0.1864825144
C   C133      1.0  0.61630  0.09630  0.00350  1.0000 -0.1476813677
C   C134      1.0  0.09630  0.61630  0.28390  1.0000 -0.1476813677
C   C135      1.0  0.28390  0.00350  0.09630  1.0000 -0.1476813677
C   C136      1.0  0.00350  0.28390  0.61630  1.0000 -0.1476813677
C   C137      1.0  0.28390  0.61630  0.00350  1.0000 -0.1476813677
C   C138      1.0  0.00350  0.09630  0.28390  1.0000 -0.1476813677
C   C139      1.0  0.61630  0.28390  0.09630  1.0000 -0.1476813677
C   C140      1.0  0.09630  0.00350  0.61630  1.0000 -0.1476813677
C   C141      1.0  0.09630  0.28390  0.00350  1.0000 -0.1476813677
C   C142      1.0  0.61630  0.00350  0.28390  1.0000 -0.1476813677
C   C143      1.0  0.00350  0.61630  0.09630  1.0000 -0.1476813677
C   C144      1.0  0.28390  0.09630  0.61630  1.0000 -0.1476813677
C   C145      1.0  0.52980  0.20080  0.04760  1.0000 -0.1714326184
C   C146      1.0  0.20080  0.52980  0.22180  1.0000 -0.1714326184
C   C147      1.0  0.22180  0.04760  0.20080  1.0000 -0.1714326184
C   C148      1.0  0.04760  0.22180  0.52980  1.0000 -0.1714326184
C   C149      1.0  0.22180  0.52980  0.04760  1.0000 -0.1714326184
C   C150      1.0  0.04760  0.20080  0.22180  1.0000 -0.1714326184
C   C151      1.0  0.52980  0.22180  0.20080  1.0000 -0.1714326184
C   C152      1.0  0.20080  0.04760  0.52980  1.0000 -0.1714326184
C   C153      1.0  0.20080  0.22180  0.04760  1.0000 -0.1714326184
C   C154      1.0  0.52980  0.04760  0.22180  1.0000 -0.1714326184
C   C155      1.0  0.04760  0.52980  0.20080  1.0000 -0.1714326184
C   C156      1.0  0.22180  0.20080  0.52980  1.0000 -0.1714326184
C   C157      1.0  0.38130  0.90270  0.54130  1.0000 -0.1111501789
C   C158      1.0  0.90270  0.38130  0.17470  1.0000 -0.1111501789
C   C159      1.0  0.54130  0.17470  0.38130  1.0000 -0.1111501789
C   C160      1.0  0.17470  0.54130  0.90270  1.0000 -0.1111501789
C   C161      1.0  0.54130  0.38130  0.90270  1.0000 -0.1111501789
C   C162      1.0  0.17470  0.90270  0.38130  1.0000 -0.1111501789
C   C163      1.0  0.38130  0.54130  0.17470  1.0000 -0.1111501789
C   C164      1.0  0.90270  0.17470  0.54130  1.0000 -0.1111501789
C   C165      1.0  0.90270  0.54130  0.38130  1.0000 -0.1111501789
C   C166      1.0  0.38130  0.17470  0.90270  1.0000 -0.1111501789
C   C167      1.0  0.17470  0.38130  0.54130  1.0000 -0.1111501789
C   C168      1.0  0.54130  0.90270  0.17470  1.0000 -0.1111501789
C   C169      1.0  0.38746  0.90414  0.59326  1.0000 -0.1571163123
C   C170      1.0  0.90414  0.38746  0.11514  1.0000 -0.1571163123
C   C171      1.0  0.59326  0.11514  0.38746  1.0000 -0.1571163123
C   C172      1.0  0.11514  0.59326  0.90414  1.0000 -0.1571163123
C   C173      1.0  0.59326  0.38746  0.90414  1.0000 -0.1571163123
C   C174      1.0  0.11514  0.90414  0.38746  1.0000 -0.1571163123
C   C175      1.0  0.38746  0.59326  0.11514  1.0000 -0.1571163123
C   C176      1.0  0.90414  0.11514  0.59326  1.0000 -0.1571163123
C   C177      1.0  0.90414  0.59326  0.38746  1.0000 -0.1571163123
C   C178      1.0  0.38746  0.11514  0.90414  1.0000 -0.1571163123
C   C179      1.0  0.11514  0.38746  0.59326  1.0000 -0.1571163123
C   C180      1.0  0.59326  0.90414  0.11514  1.0000 -0.1571163123
C   C181      1.0  0.43231  0.78609  0.63261  1.0000 -0.1379341593
C   C182      1.0  0.78609  0.43231  0.14899  1.0000 -0.1379341593
C   C183      1.0  0.63261  0.14899  0.43231  1.0000 -0.1379341593
C   C184      1.0  0.14899  0.63261  0.78609  1.0000 -0.1379341593
C   C185      1.0  0.63261  0.43231  0.78609  1.0000 -0.1379341593
C   C186      1.0  0.14899  0.78609  0.43231  1.0000 -0.1379341593
C   C187      1.0  0.43231  0.63261  0.14899  1.0000 -0.1379341593
C   C188      1.0  0.78609  0.14899  0.63261  1.0000 -0.1379341593
C   C189      1.0  0.78609  0.63261  0.43231  1.0000 -0.1379341593
C   C190      1.0  0.43231  0.14899  0.78609  1.0000 -0.1379341593
C   C191      1.0  0.14899  0.43231  0.63261  1.0000 -0.1379341593
C   C192      1.0  0.63261  0.78609  0.14899  1.0000 -0.1379341593
C   C193      1.0  0.40031  0.84129  0.53567  1.0000 -0.0469896112
C   C194      1.0  0.84129  0.40031  0.22273  1.0000 -0.0469896112
C   C195      1.0  0.53567  0.22273  0.40031  1.0000 -0.0469896112
C   C196      1.0  0.22273  0.53567  0.84129  1.0000 -0.0469896112
C   C197      1.0  0.53567  0.40031  0.84129  1.0000 -0.0469896112
C   C198      1.0  0.22273  0.84129  0.40031  1.0000 -0.0469896112
C   C199      1.0  0.40031  0.53567  0.22273  1.0000 -0.0469896112
C   C200      1.0  0.84129  0.22273  0.53567  1.0000 -0.0469896112
C   C201      1.0  0.84129  0.53567  0.40031  1.0000 -0.0469896112
C   C202      1.0  0.40031  0.22273  0.84129  1.0000 -0.0469896112
C   C203      1.0  0.22273  0.40031  0.53567  1.0000 -0.0469896112
C   C204      1.0  0.53567  0.84129  0.22273  1.0000 -0.0469896112
C   C205      1.0  0.39221  0.83999  0.48017  1.0000 0.5783963206
C   C206      1.0  0.83999  0.39221  0.28763  1.0000 0.5783963206
C   C207      1.0  0.48017  0.28763  0.39221  1.0000 0.5783963206
C   C208      1.0  0.28763  0.48017  0.83999  1.0000 0.5783963206
C   C209      1.0  0.48017  0.39221  0.83999  1.0000 0.5783963206
C   C210      1.0  0.28763  0.83999  0.39221  1.0000 0.5783963206
C   C211      1.0  0.39221  0.48017  0.28763  1.0000 0.5783963206
C   C212      1.0  0.83999  0.28763  0.48017  1.0000 0.5783963206
C   C213      1.0  0.83999  0.48017  0.39221  1.0000 0.5783963206
C   C214      1.0  0.39221  0.28763  0.83999  1.0000 0.5783963206
C   C215      1.0  0.28763  0.39221  0.48017  1.0000 0.5783963206
C   C216      1.0  0.48017  0.83999  0.28763  1.0000 0.5783963206
C   C217      1.0  0.42596  0.78458  0.58050  1.0000 -0.0894546377
C   C218      1.0  0.78458  0.42596  0.20896  1.0000 -0.0894546377
C   C219      1.0  0.58050  0.20896  0.42596  1.0000 -0.0894546377
C   C220      1.0  0.20896  0.58050  0.78458  1.0000 -0.0894546377
C   C221      1.0  0.58050  0.42596  0.78458  1.0000 -0.0894546377
C   C222      1.0  0.20896  0.78458  0.42596  1.0000 -0.0894546377
C   C223      1.0  0.42596  0.58050  0.20896  1.0000 -0.0894546377
C   C224      1.0  0.78458  0.20896  0.58050  1.0000 -0.0894546377
C   C225      1.0  0.78458  0.58050  0.42596  1.0000 -0.0894546377
C   C226      1.0  0.42596  0.20896  0.78458  1.0000 -0.0894546377
C   C227      1.0  0.20896  0.42596  0.58050  1.0000 -0.0894546377
C   C228      1.0  0.58050  0.78458  0.20896  1.0000 -0.0894546377
C   C229      1.0  0.41131  0.84709  0.64063  1.0000 0.0730579945
C   C230      1.0  0.84709  0.41131  0.10097  1.0000 0.0730579945
C   C231      1.0  0.64063  0.10097  0.41131  1.0000 0.0730579945
C   C232      1.0  0.10097  0.64063  0.84709  1.0000 0.0730579945
C   C233      1.0  0.64063  0.41131  0.84709  1.0000 0.0730579945
C   C234      1.0  0.10097  0.84709  0.41131  1.0000 0.0730579945
C   C235      1.0  0.41131  0.64063  0.10097  1.0000 0.0730579945
C   C236      1.0  0.84709  0.10097  0.64063  1.0000 0.0730579945
C   C237      1.0  0.84709  0.64063  0.41131  1.0000 0.0730579945
C   C238      1.0  0.41131  0.10097  0.84709  1.0000 0.0730579945
C   C239      1.0  0.10097  0.41131  0.64063  1.0000 0.0730579945
C   C240      1.0  0.64063  0.84709  0.10097  1.0000 0.0730579945
C   C241      1.0  0.43110  0.85310  0.80070  1.0000 0.1466906204
C   C242      1.0  0.85310  0.43110  0.91510  1.0000 0.1466906204
C   C243      1.0  0.80070  0.91510  0.43110  1.0000 0.1466906204
C   C244      1.0  0.91510  0.80070  0.85310  1.0000 0.1466906204
C   C245      1.0  0.80070  0.43110  0.85310  1.0000 0.1466906204
C   C246      1.0  0.91510  0.85310  0.43110  1.0000 0.1466906204
C   C247      1.0  0.43110  0.80070  0.91510  1.0000 0.1466906204
C   C248      1.0  0.85310  0.91510  0.80070  1.0000 0.1466906204
C   C249      1.0  0.85310  0.80070  0.43110  1.0000 0.1466906204
C   C250      1.0  0.43110  0.91510  0.85310  1.0000 0.1466906204
C   C251      1.0  0.91510  0.43110  0.80070  1.0000 0.1466906204
C   C252      1.0  0.80070  0.85310  0.91510  1.0000 0.1466906204
C   C253      1.0  0.42028  0.84772  0.69540  1.0000 0.0516876152
C   C254      1.0  0.84772  0.42028  0.03660  1.0000 0.0516876152
C   C255      1.0  0.69540  0.03660  0.42028  1.0000 0.0516876152
C   C256      1.0  0.03660  0.69540  0.84772  1.0000 0.0516876152
C   C257      1.0  0.69540  0.42028  0.84772  1.0000 0.0516876152
C   C258      1.0  0.03660  0.84772  0.42028  1.0000 0.0516876152
C   C259      1.0  0.42028  0.69540  0.03660  1.0000 0.0516876152
C   C260      1.0  0.84772  0.03660  0.69540  1.0000 0.0516876152
C   C261      1.0  0.84772  0.69540  0.42028  1.0000 0.0516876152
C   C262      1.0  0.42028  0.03660  0.84772  1.0000 0.0516876152
C   C263      1.0  0.03660  0.42028  0.69540  1.0000 0.0516876152
C   C264      1.0  0.69540  0.84772  0.03660  1.0000 0.0516876152
C   C265      1.0  0.46404  0.79756  0.72784  1.0000 -0.1379341593
C   C266      1.0  0.79756  0.46404  0.01056  1.0000 -0.1379341593
C   C267      1.0  0.72784  0.01056  0.46404  1.0000 -0.1379341593
C   C268      1.0  0.01056  0.72784  0.79756  1.0000 -0.1379341593
C   C269      1.0  0.72784  0.46404  0.79756  1.0000 -0.1379341593
C   C270      1.0  0.01056  0.79756  0.46404  1.0000 -0.1379341593
C   C271      1.0  0.46404  0.72784  0.01056  1.0000 -0.1379341593
C   C272      1.0  0.79756  0.01056  0.72784  1.0000 -0.1379341593
C   C273      1.0  0.79756  0.72784  0.46404  1.0000 -0.1379341593
C   C274      1.0  0.46404  0.01056  0.79756  1.0000 -0.1379341593
C   C275      1.0  0.01056  0.46404  0.72784  1.0000 -0.1379341593
C   C276      1.0  0.72784  0.79756  0.01056  1.0000 -0.1379341593
C   C277      1.0  0.38870  0.90610  0.76770  1.0000 -0.1864825144
C   C278      1.0  0.90610  0.38870  0.93750  1.0000 -0.1864825144
C   C279      1.0  0.76770  0.93750  0.38870  1.0000 -0.1864825144
C   C280      1.0  0.93750  0.76770  0.90610  1.0000 -0.1864825144
C   C281      1.0  0.76770  0.38870  0.90610  1.0000 -0.1864825144
C   C282      1.0  0.93750  0.90610  0.38870  1.0000 -0.1864825144
C   C283      1.0  0.38870  0.76770  0.93750  1.0000 -0.1864825144
C   C284      1.0  0.90610  0.93750  0.76770  1.0000 -0.1864825144
C   C285      1.0  0.90610  0.76770  0.38870  1.0000 -0.1864825144
C   C286      1.0  0.38870  0.93750  0.90610  1.0000 -0.1864825144
C   C287      1.0  0.93750  0.38870  0.76770  1.0000 -0.1864825144
C   C288      1.0  0.76770  0.90610  0.93750  1.0000 -0.1864825144
C   C289      1.0  0.38370  0.90370  0.71610  1.0000 -0.1476813677
C   C290      1.0  0.90370  0.38370  0.99650  1.0000 -0.1476813677
C   C291      1.0  0.71610  0.99650  0.38370  1.0000 -0.1476813677
C   C292      1.0  0.99650  0.71610  0.90370  1.0000 -0.1476813677
C   C293      1.0  0.71610  0.38370  0.90370  1.0000 -0.1476813677
C   C294      1.0  0.99650  0.90370  0.38370  1.0000 -0.1476813677
C   C295      1.0  0.38370  0.71610  0.99650  1.0000 -0.1476813677
C   C296      1.0  0.90370  0.99650  0.71610  1.0000 -0.1476813677
C   C297      1.0  0.90370  0.71610  0.38370  1.0000 -0.1476813677
C   C298      1.0  0.38370  0.99650  0.90370  1.0000 -0.1476813677
C   C299      1.0  0.99650  0.38370  0.71610  1.0000 -0.1476813677
C   C300      1.0  0.71610  0.90370  0.99650  1.0000 -0.1476813677
C   C301      1.0  0.47020  0.79920  0.77820  1.0000 -0.1714326184
C   C302      1.0  0.79920  0.47020  0.95240  1.0000 -0.1714326184
C   C303      1.0  0.77820  0.95240  0.47020  1.0000 -0.1714326184
C   C304      1.0  0.95240  0.77820  0.79920  1.0000 -0.1714326184
C   C305      1.0  0.77820  0.47020  0.79920  1.0000 -0.1714326184
C   C306      1.0  0.95240  0.79920  0.47020  1.0000 -0.1714326184
C   C307      1.0  0.47020  0.77820  0.95240  1.0000 -0.1714326184
C   C308      1.0  0.79920  0.95240  0.77820  1.0000 -0.1714326184
C   C309      1.0  0.79920  0.77820  0.47020  1.0000 -0.1714326184
C   C310      1.0  0.47020  0.95240  0.79920  1.0000 -0.1714326184
C   C311      1.0  0.95240  0.47020  0.77820  1.0000 -0.1714326184
C   C312      1.0  0.77820  0.79920  0.95240  1.0000 -0.1714326184
N   N1        1.0  0.56200  0.14600  0.14600  1.0000 -0.1714326184
N   N2        1.0  0.14600  0.56200  0.14600  1.0000 -0.1714326184
N   N3        1.0  0.14600  0.14600  0.14600  1.0000 -0.1714326184
N   N4        1.0  0.14600  0.14600  0.56200  1.0000 -0.1760812251
N   N5        1.0  0.43800  0.85400  0.85400  1.0000 -0.1760812251
N   N6        1.0  0.85400  0.43800  0.85400  1.0000 -0.1760812251
N   N7        1.0  0.85400  0.85400  0.43800  1.0000 -0.1714326184
N   N8        1.0  0.85400  0.85400  0.85400  1.0000 -0.1760812251
O   O1        1.0  0.58865  0.21665  0.67249  1.0000 -0.5464669837
O   O2        1.0  0.21665  0.58865  0.52221  1.0000 -0.5464669837
O   O3        1.0  0.52221  0.67249  0.21665  1.0000 -0.5464669837
O   O4        1.0  0.67249  0.52221  0.58865  1.0000 -0.5464669837
O   O5        1.0  0.52221  0.58865  0.67249  1.0000 -0.5464669837
O   O6        1.0  0.67249  0.21665  0.52221  1.0000 -0.5464669837
O   O7        1.0  0.58865  0.52221  0.21665  1.0000 -0.5464669837
O   O8        1.0  0.21665  0.67249  0.58865  1.0000 -0.5464669837
O   O9        1.0  0.21665  0.52221  0.67249  1.0000 -0.5464669837
O   O10       1.0  0.58865  0.67249  0.52221  1.0000 -0.5464669837
O   O11       1.0  0.67249  0.58865  0.21665  1.0000 -0.5464669837
O   O12       1.0  0.52221  0.21665  0.58865  1.0000 -0.5464669837
O   O13       1.0  0.62977  0.10643  0.70543  1.0000 -0.535873773
O   O14       1.0  0.10643  0.62977  0.55837  1.0000 -0.535873773
O   O15       1.0  0.55837  0.70543  0.10643  1.0000 -0.535873773
O   O16       1.0  0.70543  0.55837  0.62977  1.0000 -0.535873773
O   O17       1.0  0.55837  0.62977  0.70543  1.0000 -0.535873773
O   O18       1.0  0.70543  0.10643  0.55837  1.0000 -0.535873773
O   O19       1.0  0.62977  0.55837  0.10643  1.0000 -0.535873773
O   O20       1.0  0.10643  0.70543  0.62977  1.0000 -0.535873773
O   O21       1.0  0.10643  0.55837  0.70543  1.0000 -0.535873773
O   O22       1.0  0.62977  0.70543  0.55837  1.0000 -0.535873773
O   O23       1.0  0.70543  0.62977  0.10643  1.0000 -0.535873773
O   O24       1.0  0.55837  0.10643  0.62977  1.0000 -0.535873773
O   O25       1.0  0.41135  0.78335  0.47779  1.0000 -0.5464669837
O   O26       1.0  0.78335  0.41135  0.32751  1.0000 -0.5464669837
O   O27       1.0  0.47779  0.32751  0.41135  1.0000 -0.5464669837
O   O28       1.0  0.32751  0.47779  0.78335  1.0000 -0.5464669837
O   O29       1.0  0.47779  0.41135  0.78335  1.0000 -0.5464669837
O   O30       1.0  0.32751  0.78335  0.41135  1.0000 -0.5464669837
O   O31       1.0  0.41135  0.47779  0.32751  1.0000 -0.5464669837
O   O32       1.0  0.78335  0.32751  0.47779  1.0000 -0.5464669837
O   O33       1.0  0.78335  0.47779  0.41135  1.0000 -0.5464669837
O   O34       1.0  0.41135  0.32751  0.78335  1.0000 -0.5464669837
O   O35       1.0  0.32751  0.41135  0.47779  1.0000 -0.5464669837
O   O36       1.0  0.47779  0.78335  0.32751  1.0000 -0.5464669837
O   O37       1.0  0.37023  0.89357  0.44163  1.0000 -0.535873773
O   O38       1.0  0.89357  0.37023  0.29457  1.0000 -0.535873773
O   O39       1.0  0.44163  0.29457  0.37023  1.0000 -0.535873773
O   O40       1.0  0.29457  0.44163  0.89357  1.0000 -0.535873773
O   O41       1.0  0.44163  0.37023  0.89357  1.0000 -0.535873773
O   O42       1.0  0.29457  0.89357  0.37023  1.0000 -0.535873773
O   O43       1.0  0.37023  0.44163  0.29457  1.0000 -0.535873773
O   O44       1.0  0.89357  0.29457  0.44163  1.0000 -0.535873773
O   O45       1.0  0.89357  0.44163  0.37023  1.0000 -0.535873773
O   O46       1.0  0.37023  0.29457  0.89357  1.0000 -0.535873773
O   O47       1.0  0.29457  0.37023  0.44163  1.0000 -0.535873773
O   O48       1.0  0.44163  0.89357  0.29457  1.0000 -0.535873773
