# DDEC6 charges by PACMAN v1.1 (https://github.com/mtap-research/PACMAN-charge/)
data_2015[CeCu][srs]3[ASR]1
_chemical_formula_sum              "Ce4 Cu12 C36 O72"
_cell_length_a       17.618
_cell_length_b       17.618
_cell_length_c       17.618
_cell_angle_alpha    90
_cell_angle_beta     90
_cell_angle_gamma    90

_symmetry_space_group_name_H-M    "P 1"
_symmetry_Int_Tables_number       1

loop_
  _symmetry_equiv_pos_as_xyz
  'x, y, z'

loop_
  _atom_site_type_symbol
  _atom_site_label
  _atom_site_symmetry_multiplicity
  _atom_site_fract_x
  _atom_site_fract_y
  _atom_site_fract_z
  _atom_site_occupancy
  _atom_site_charge
Ce  Ce1       1.0  0.39726  0.39726  0.39726  1.0000 1.8638392567
Ce  Ce2       1.0  0.10274  0.60274  0.89726  1.0000 1.8638392567
Ce  Ce3       1.0  0.60274  0.89726  0.10274  1.0000 1.8638392567
Ce  Ce4       1.0  0.89726  0.10274  0.60274  1.0000 1.8669888457
Cu  Cu1       1.0  0.49998  0.09204  0.34945  1.0000 0.8682560602
Cu  Cu2       1.0  0.00002  0.90796  0.84945  1.0000 0.8637976726
Cu  Cu3       1.0  0.50002  0.59204  0.15055  1.0000 0.8682560602
Cu  Cu4       1.0  0.99998  0.40796  0.65055  1.0000 0.8682560602
Cu  Cu5       1.0  0.34945  0.49998  0.09204  1.0000 0.8682560602
Cu  Cu6       1.0  0.84945  0.00002  0.90796  1.0000 0.8637976726
Cu  Cu7       1.0  0.15055  0.50002  0.59204  1.0000 0.8682560602
Cu  Cu8       1.0  0.65055  0.99998  0.40796  1.0000 0.8682560602
Cu  Cu9       1.0  0.09204  0.34945  0.49998  1.0000 0.8682560602
Cu  Cu10      1.0  0.90796  0.84945  0.00002  1.0000 0.8637976726
Cu  Cu11      1.0  0.59204  0.15055  0.50002  1.0000 0.8682560602
Cu  Cu12      1.0  0.40796  0.65055  0.99998  1.0000 0.8682560602
C   C1        1.0  0.48700  0.25920  0.49690  1.0000 0.5612544596
C   C2        1.0  0.01300  0.74080  0.99690  1.0000 0.5612544596
C   C3        1.0  0.51300  0.75920  0.00310  1.0000 0.5612544596
C   C4        1.0  0.98700  0.24080  0.50310  1.0000 0.5612544596
C   C5        1.0  0.49690  0.48700  0.25920  1.0000 0.5612544596
C   C6        1.0  0.99690  0.01300  0.74080  1.0000 0.5612544596
C   C7        1.0  0.00310  0.51300  0.75920  1.0000 0.5612544596
C   C8        1.0  0.50310  0.98700  0.24080  1.0000 0.5612544596
C   C9        1.0  0.25920  0.49690  0.48700  1.0000 0.5612544596
C   C10       1.0  0.74080  0.99690  0.01300  1.0000 0.5612544596
C   C11       1.0  0.75920  0.00310  0.51300  1.0000 0.5612544596
C   C12       1.0  0.24080  0.50310  0.98700  1.0000 0.5612544596
C   C13       1.0  0.49040  0.23410  0.41320  1.0000 0.3366514987
C   C14       1.0  0.00960  0.76590  0.91320  1.0000 0.3290563802
C   C15       1.0  0.50960  0.73410  0.08680  1.0000 0.3366514987
C   C16       1.0  0.99040  0.26590  0.58680  1.0000 0.3366514987
C   C17       1.0  0.41320  0.49040  0.23410  1.0000 0.3366514987
C   C18       1.0  0.91320  0.00960  0.76590  1.0000 0.3290563802
C   C19       1.0  0.08680  0.50960  0.73410  1.0000 0.3366514987
C   C20       1.0  0.58680  0.99040  0.26590  1.0000 0.3366514987
C   C21       1.0  0.23410  0.41320  0.49040  1.0000 0.3366514987
C   C22       1.0  0.76590  0.91320  0.00960  1.0000 0.3290563802
C   C23       1.0  0.73410  0.08680  0.50960  1.0000 0.3366514987
C   C24       1.0  0.26590  0.58680  0.99040  1.0000 0.3366514987
C   C25       1.0  0.41090  0.20840  0.38640  1.0000 0.5436913301
C   C26       1.0  0.08910  0.79160  0.88640  1.0000 0.5436913301
C   C27       1.0  0.58910  0.70840  0.11360  1.0000 0.5436913301
C   C28       1.0  0.91090  0.29160  0.61360  1.0000 0.5436913301
C   C29       1.0  0.38640  0.41090  0.20840  1.0000 0.5436913301
C   C30       1.0  0.88640  0.08910  0.79160  1.0000 0.5436913301
C   C31       1.0  0.11360  0.58910  0.70840  1.0000 0.5436913301
C   C32       1.0  0.61360  0.91090  0.29160  1.0000 0.5436913301
C   C33       1.0  0.20840  0.38640  0.41090  1.0000 0.5436913301
C   C34       1.0  0.79160  0.88640  0.08910  1.0000 0.5436913301
C   C35       1.0  0.70840  0.11360  0.58910  1.0000 0.5436913301
C   C36       1.0  0.29160  0.61360  0.91090  1.0000 0.5436913301
O   O1        1.0  0.40319  0.14150  0.36720  1.0000 -0.4313871831
O   O2        1.0  0.09681  0.85850  0.86720  1.0000 -0.4313871831
O   O3        1.0  0.59681  0.64150  0.13280  1.0000 -0.4313871831
O   O4        1.0  0.90319  0.35850  0.63280  1.0000 -0.4313871831
O   O5        1.0  0.36720  0.40319  0.14150  1.0000 -0.4313871831
O   O6        1.0  0.86720  0.09681  0.85850  1.0000 -0.4313871831
O   O7        1.0  0.13280  0.59681  0.64150  1.0000 -0.4313871831
O   O8        1.0  0.63280  0.90319  0.35850  1.0000 -0.4313871831
O   O9        1.0  0.14150  0.36720  0.40319  1.0000 -0.4313871831
O   O10       1.0  0.85850  0.86720  0.09681  1.0000 -0.4313871831
O   O11       1.0  0.64150  0.13280  0.59681  1.0000 -0.4313871831
O   O12       1.0  0.35850  0.63280  0.90319  1.0000 -0.4313871831
O   O13       1.0  0.54404  0.17705  0.40356  1.0000 -0.5984331025
O   O14       1.0  0.95596  0.82295  0.90356  1.0000 -0.592551283
O   O15       1.0  0.45596  0.67705  0.09644  1.0000 -0.5984331025
O   O16       1.0  0.04404  0.32295  0.59644  1.0000 -0.5984331025
O   O17       1.0  0.40356  0.54404  0.17705  1.0000 -0.5984331025
O   O18       1.0  0.90356  0.95596  0.82295  1.0000 -0.592551283
O   O19       1.0  0.09644  0.45596  0.67705  1.0000 -0.5984331025
O   O20       1.0  0.59644  0.04404  0.32295  1.0000 -0.5984331025
O   O21       1.0  0.17705  0.40356  0.54404  1.0000 -0.5984331025
O   O22       1.0  0.82295  0.90356  0.95596  1.0000 -0.592551283
O   O23       1.0  0.67705  0.09644  0.45596  1.0000 -0.5984331025
O   O24       1.0  0.32295  0.59644  0.04404  1.0000 -0.5984331025
O   O25       1.0  0.36056  0.25713  0.38740  1.0000 -0.4487366299
O   O26       1.0  0.13944  0.74287  0.88740  1.0000 -0.4487366299
O   O27       1.0  0.63944  0.75713  0.11260  1.0000 -0.4487366299
O   O28       1.0  0.86056  0.24287  0.61260  1.0000 -0.4487366299
O   O29       1.0  0.38740  0.36056  0.25713  1.0000 -0.4487366299
O   O30       1.0  0.88740  0.13944  0.74287  1.0000 -0.4487366299
O   O31       1.0  0.11260  0.63944  0.75713  1.0000 -0.4487366299
O   O32       1.0  0.61260  0.86056  0.24287  1.0000 -0.4487366299
O   O33       1.0  0.25713  0.38740  0.36056  1.0000 -0.4487366299
O   O34       1.0  0.74287  0.88740  0.13944  1.0000 -0.4487366299
O   O35       1.0  0.75713  0.11260  0.63944  1.0000 -0.4487366299
O   O36       1.0  0.24287  0.61260  0.86056  1.0000 -0.4487366299
O   O37       1.0  0.50782  0.29930  0.37120  1.0000 -0.5056125783
O   O38       1.0  0.99218  0.70070  0.87120  1.0000 -0.4988381921
O   O39       1.0  0.49218  0.79930  0.12880  1.0000 -0.5056125783
O   O40       1.0  0.00782  0.20070  0.62880  1.0000 -0.5056125783
O   O41       1.0  0.37120  0.50782  0.29930  1.0000 -0.5056125783
O   O42       1.0  0.87120  0.99218  0.70070  1.0000 -0.4988381921
O   O43       1.0  0.12880  0.49218  0.79930  1.0000 -0.4988381921
O   O44       1.0  0.62880  0.00782  0.20070  1.0000 -0.5056125783
O   O45       1.0  0.29930  0.37120  0.50782  1.0000 -0.5056125783
O   O46       1.0  0.70070  0.87120  0.99218  1.0000 -0.4988381921
O   O47       1.0  0.79930  0.12880  0.49218  1.0000 -0.5056125783
O   O48       1.0  0.20070  0.62880  0.00782  1.0000 -0.4988381921
O   O49       1.0  0.45060  0.31900  0.50940  1.0000 -0.4988381921
O   O50       1.0  0.04940  0.68100  0.00940  1.0000 -0.4934697221
O   O51       1.0  0.54940  0.81900  0.99060  1.0000 -0.4988381921
O   O52       1.0  0.95060  0.18100  0.49060  1.0000 -0.4988381921
O   O53       1.0  0.50940  0.45060  0.31900  1.0000 -0.4988381921
O   O54       1.0  0.00940  0.04940  0.68100  1.0000 -0.4934697221
O   O55       1.0  0.99060  0.54940  0.81900  1.0000 -0.4988381921
O   O56       1.0  0.49060  0.95060  0.18100  1.0000 -0.4988381921
O   O57       1.0  0.31900  0.50940  0.45060  1.0000 -0.4934697221
O   O58       1.0  0.68100  0.00940  0.04940  1.0000 -0.4934697221
O   O59       1.0  0.81900  0.99060  0.54940  1.0000 -0.4988381921
O   O60       1.0  0.18100  0.49060  0.95060  1.0000 -0.4988381921
O   O61       1.0  0.51830  0.21850  0.54570  1.0000 -0.4487366299
O   O62       1.0  0.98170  0.78150  0.04570  1.0000 -0.4487366299
O   O63       1.0  0.48170  0.71850  0.95430  1.0000 -0.4487366299
O   O64       1.0  0.01830  0.28150  0.45430  1.0000 -0.4487366299
O   O65       1.0  0.54570  0.51830  0.21850  1.0000 -0.4552657823
O   O66       1.0  0.04570  0.98170  0.78150  1.0000 -0.4487366299
O   O67       1.0  0.95430  0.48170  0.71850  1.0000 -0.4552657823
O   O68       1.0  0.45430  0.01830  0.28150  1.0000 -0.4552657823
O   O69       1.0  0.21850  0.54570  0.51830  1.0000 -0.4487366299
O   O70       1.0  0.78150  0.04570  0.98170  1.0000 -0.4487366299
O   O71       1.0  0.71850  0.95430  0.48170  1.0000 -0.4552657823
O   O72       1.0  0.28150  0.45430  0.01830  1.0000 -0.4552657823
