# DDEC6 charges by PACMAN v1.1 (https://github.com/mtap-research/PACMAN-charge/)
data_2015[U][nan]3[ASR]4
_chemical_formula_sum              "U10 H50 C60 N24 O48"
_cell_length_a       14.533
_cell_length_b       15.479
_cell_length_c       15.666
_cell_angle_alpha    74.643
_cell_angle_beta     74.576
_cell_angle_gamma    81.431

_symmetry_space_group_name_H-M    "P 1"
_symmetry_Int_Tables_number       1

loop_
  _symmetry_equiv_pos_as_xyz
  'x, y, z'

loop_
  _atom_site_type_symbol
  _atom_site_label
  _atom_site_symmetry_multiplicity
  _atom_site_fract_x
  _atom_site_fract_y
  _atom_site_fract_z
  _atom_site_occupancy
  _atom_site_charge
U   U1        1.0  0.45585  0.34330  0.76294  1.0000 1.8996194464
U   U2        1.0  0.54415  0.65670  0.23706  1.0000 1.8940723997
U   U3        1.0  0.52106  0.85895  0.82052  1.0000 1.8306344611
U   U4        1.0  0.47894  0.14105  0.17948  1.0000 1.8306344611
U   U5        1.0  0.26824  0.92117  0.58451  1.0000 1.6543359619
U   U6        1.0  0.73176  0.07883  0.41549  1.0000 1.6659192902
U   U7        1.0  0.84190  0.49701  0.80762  1.0000 1.9093062741
U   U8        1.0  0.15810  0.50299  0.19238  1.0000 1.8996194464
U   U9        1.0  0.81348  0.52101  0.43292  1.0000 1.5830267531
U   U10       1.0  0.18652  0.47899  0.56708  1.0000 1.572534309
H   H1        1.0  0.49950  0.60210  0.53460  1.0000 0.1306475478
H   H2        1.0  0.50050  0.39790  0.46540  1.0000 0.1306475478
H   H3        1.0  0.41940  0.66330  0.58460  1.0000 0.1306475478
H   H4        1.0  0.58060  0.33670  0.41540  1.0000 0.1306475478
H   H5        1.0  0.63660  0.61090  0.57810  1.0000 0.1024007325
H   H6        1.0  0.36340  0.38910  0.42190  1.0000 0.1024007325
H   H7        1.0  0.63570  0.58910  0.68170  1.0000 0.1306475478
H   H8        1.0  0.36430  0.41090  0.31830  1.0000 0.1306475478
H   H9        1.0  0.61250  0.53600  0.91420  1.0000 0.106210721
H   H10       1.0  0.38750  0.46400  0.08580  1.0000 0.106210721
H   H11       1.0  0.61600  0.57770  0.99400  1.0000 0.1306475478
H   H12       1.0  0.38400  0.42230  0.00600  1.0000 0.1306475478
H   H13       1.0  0.45990  0.58920  0.08390  1.0000 0.1024007325
H   H14       1.0  0.54010  0.41080  0.91610  1.0000 0.1024007325
H   H15       1.0  0.37550  0.63880  0.03980  1.0000 0.1306475478
H   H16       1.0  0.62450  0.36120  0.96020  1.0000 0.1306475478
H   H17       1.0  0.10490  0.67390  0.79780  1.0000 0.1204882127
H   H18       1.0  0.89510  0.32610  0.20220  1.0000 0.1204882127
H   H19       1.0  0.19730  0.63330  0.73830  1.0000 0.1204882127
H   H20       1.0  0.80270  0.36670  0.26170  1.0000 0.1204882127
H   H21       1.0  0.10640  0.71560  0.92510  1.0000 0.1204882127
H   H22       1.0  0.89360  0.28440  0.07490  1.0000 0.1204882127
H   H23       1.0  0.20490  0.74100  0.93060  1.0000 0.1306475478
H   H24       1.0  0.79510  0.25900  0.06940  1.0000 0.1306475478
H   H25       1.0  0.87510  0.74920  0.56360  1.0000 0.138760401
H   H26       1.0  0.12490  0.25080  0.43640  1.0000 0.138760401
H   H27       1.0  0.97930  0.70340  0.56000  1.0000 0.138760401
H   H28       1.0  0.02070  0.29660  0.44000  1.0000 0.138760401
H   H29       1.0  0.07250  0.67460  0.42930  1.0000 0.1306475478
H   H30       1.0  0.92750  0.32540  0.57070  1.0000 0.1306475478
H   H31       1.0  0.05690  0.75130  0.34520  1.0000 0.146415965
H   H32       1.0  0.94310  0.24870  0.65480  1.0000 0.146415965
H   H33       1.0  0.64050  0.77030  0.57020  1.0000 0.1306475478
H   H34       1.0  0.35950  0.22970  0.42980  1.0000 0.1306475478
H   H35       1.0  0.53970  0.82310  0.56930  1.0000 0.1204882127
H   H36       1.0  0.46030  0.17690  0.43070  1.0000 0.1204882127
H   H37       1.0  0.54920  0.85410  0.36830  1.0000 0.138760401
H   H38       1.0  0.45080  0.14590  0.63170  1.0000 0.138760401
H   H39       1.0  0.49940  0.90130  0.44740  1.0000 0.1204882127
H   H40       1.0  0.50060  0.09870  0.55260  1.0000 0.1204882127
H   H41       1.0  0.78330  0.86170  0.07080  1.0000 0.138760401
H   H42       1.0  0.21670  0.13830  0.92920  1.0000 0.138760401
H   H43       1.0  0.72390  0.90280  0.15180  1.0000 0.138760401
H   H44       1.0  0.27610  0.09720  0.84820  1.0000 0.138760401
H   H45       1.0  0.92930  0.78840  0.07330  1.0000 0.1024007325
H   H46       1.0  0.07070  0.21160  0.92670  1.0000 0.1024007325
H   H47       1.0  0.96020  0.75200  0.16740  1.0000 0.106210721
H   H48       1.0  0.03980  0.24800  0.83260  1.0000 0.106210721
H   H49       1.0  0.05240  0.80620  0.07620  1.0000 0.2378805739
H   H50       1.0  0.94760  0.19380  0.92380  1.0000 0.2378805739
C   C1        1.0  0.38220  0.53580  0.60850  1.0000 0.6510317785
C   C2        1.0  0.61780  0.46420  0.39150  1.0000 0.6510317785
C   C3        1.0  0.45340  0.60390  0.59180  1.0000 -0.2788444497
C   C4        1.0  0.54660  0.39610  0.40820  1.0000 -0.2788444497
C   C5        1.0  0.64240  0.47970  0.63550  1.0000 0.6429760617
C   C6        1.0  0.35760  0.52030  0.36450  1.0000 0.6429760617
C   C7        1.0  0.61020  0.57300  0.63730  1.0000 -0.3462679523
C   C8        1.0  0.38980  0.42700  0.36270  1.0000 -0.3462679523
C   C9        1.0  0.66850  0.66010  0.86730  1.0000 0.6700473688
C   C10       1.0  0.33150  0.33990  0.13270  1.0000 0.6700473688
C   C11       1.0  0.60060  0.59120  0.93500  1.0000 -0.2871812123
C   C12       1.0  0.39940  0.40880  0.06500  1.0000 -0.2788444497
C   C13       1.0  0.46330  0.72650  0.04940  1.0000 0.6700473688
C   C14       1.0  0.53670  0.27350  0.95060  1.0000 0.6700473688
C   C15       1.0  0.44340  0.63800  0.03560  1.0000 -0.2991307813
C   C16       1.0  0.55660  0.36200  0.96440  1.0000 -0.2991307813
C   C17       1.0  0.19260  0.77060  0.71450  1.0000 0.57423477
C   C18       1.0  0.80740  0.22940  0.28550  1.0000 0.57423477
C   C19       1.0  0.17350  0.67740  0.77460  1.0000 -0.2578713435
C   C20       1.0  0.82650  0.32260  0.22540  1.0000 -0.2578713435
C   C21       1.0  0.16660  0.62040  0.01820  1.0000 0.5630476636
C   C22       1.0  0.83340  0.37960  0.98180  1.0000 0.5630476636
C   C23       1.0  0.17090  0.69190  0.93000  1.0000 -0.2578713435
C   C24       1.0  0.82910  0.30810  0.07000  1.0000 -0.2578713435
C   C25       1.0  0.88220  0.61460  0.58220  1.0000 0.6202388269
C   C26       1.0  0.11780  0.38540  0.41780  1.0000 0.6202388269
C   C27       1.0  0.92110  0.70340  0.54090  1.0000 -0.2991307813
C   C28       1.0  0.07890  0.29660  0.45910  1.0000 -0.2991307813
C   C29       1.0  0.02740  0.62790  0.33660  1.0000 0.6429760617
C   C30       1.0  0.97260  0.37210  0.66340  1.0000 0.6429760617
C   C31       1.0  0.02970  0.69890  0.38890  1.0000 -0.2547912437
C   C32       1.0  0.97030  0.30110  0.61110  1.0000 -0.2578713435
C   C33       1.0  0.63420  0.89690  0.59040  1.0000 0.6700473688
C   C34       1.0  0.36580  0.10310  0.40960  1.0000 0.6700473688
C   C35       1.0  0.60820  0.82850  0.54890  1.0000 -0.2871812123
C   C36       1.0  0.39180  0.17150  0.45110  1.0000 -0.2871812123
C   C37       1.0  0.57320  0.98270  0.33870  1.0000 0.6202388269
C   C38       1.0  0.42680  0.01730  0.66130  1.0000 0.6202388269
C   C39       1.0  0.55850  0.89530  0.40190  1.0000 -0.3228149402
C   C40       1.0  0.44150  0.10470  0.59810  1.0000 -0.3228149402
C   C41       1.0  0.69000  0.77530  0.16410  1.0000 0.5777492386
C   C42       1.0  0.31000  0.22470  0.83590  1.0000 0.5777492386
C   C43       1.0  0.75950  0.84860  0.13650  1.0000 -0.2402223039
C   C44       1.0  0.24050  0.15140  0.86350  1.0000 -0.2402223039
C   C45       1.0  0.31780  0.63740  0.83460  1.0000 0.4535242778
C   C46       1.0  0.68220  0.36260  0.16540  1.0000 0.4535242778
C   C47       1.0  0.45670  0.60520  0.74430  1.0000 0.432814942
C   C48       1.0  0.54330  0.39480  0.25570  1.0000 0.432814942
C   C49       1.0  0.45020  0.61960  0.88140  1.0000 0.4191234273
C   C50       1.0  0.54980  0.38040  0.11860  1.0000 0.4191234273
C   C51       1.0  0.86990  0.77030  0.39960  1.0000 0.4406794545
C   C52       1.0  0.13010  0.22970  0.60040  1.0000 0.4406794545
C   C53       1.0  0.72010  0.82890  0.40260  1.0000 0.4406794545
C   C54       1.0  0.27990  0.17110  0.59740  1.0000 0.4406794545
C   C55       1.0  0.82190  0.82060  0.26750  1.0000 0.4679874492
C   C56       1.0  0.17810  0.17940  0.73250  1.0000 0.4679874492
C   C57       1.0  0.92940  0.80230  0.13010  1.0000 -0.2028425771
C   C58       1.0  0.07060  0.19770  0.86990  1.0000 -0.2028425771
C   C59       1.0  0.97300  0.89000  0.11500  1.0000 0.1680937869
C   C60       1.0  0.02700  0.11000  0.88500  1.0000 0.1680937869
N   N1        1.0  0.50470  0.60050  0.80540  1.0000 -0.5600014168
N   N2        1.0  0.49530  0.39950  0.19460  1.0000 -0.5600014168
N   N3        1.0  0.35530  0.63530  0.90220  1.0000 -0.5484812397
N   N4        1.0  0.64470  0.36470  0.09780  1.0000 -0.5484812397
N   N5        1.0  0.36120  0.62380  0.75270  1.0000 -0.5679664749
N   N6        1.0  0.63880  0.37620  0.24730  1.0000 -0.5679664749
N   N7        1.0  0.50410  0.59260  0.65980  1.0000 -0.109229284
N   N8        1.0  0.49590  0.40740  0.34020  1.0000 -0.109229284
N   N9        1.0  0.21900  0.65530  0.85130  1.0000 -0.083431347
N   N10       1.0  0.78100  0.34470  0.14870  1.0000 -0.083431347
N   N11       1.0  0.49810  0.62130  0.94640  1.0000 -0.1421620536
N   N12       1.0  0.50190  0.37870  0.05360  1.0000 -0.1421620536
N   N13       1.0  0.78700  0.79140  0.44820  1.0000 -0.5484812397
N   N14       1.0  0.21300  0.20860  0.55180  1.0000 -0.5484812397
N   N15       1.0  0.73260  0.84430  0.31140  1.0000 -0.5600014168
N   N16       1.0  0.26740  0.15570  0.68860  1.0000 -0.5600014168
N   N17       1.0  0.89540  0.78850  0.30520  1.0000 -0.5600014168
N   N18       1.0  0.10460  0.21150  0.69480  1.0000 -0.5600014168
N   N19       1.0  0.63460  0.85310  0.45010  1.0000 -0.109229284
N   N20       1.0  0.36540  0.14690  0.54990  1.0000 -0.109229284
N   N21       1.0  0.94240  0.72660  0.44020  1.0000 -0.0393912433
N   N22       1.0  0.05760  0.27340  0.55980  1.0000 -0.0346253931
N   N23       1.0  0.83850  0.82900  0.17620  1.0000 -0.0393912433
N   N24       1.0  0.16150  0.17100  0.82380  1.0000 -0.0393912433
O   O1        1.0  0.30890  0.55990  0.57860  1.0000 -0.6302223939
O   O2        1.0  0.69110  0.44010  0.42140  1.0000 -0.6398583072
O   O3        1.0  0.40110  0.45590  0.65110  1.0000 -0.7067283976
O   O4        1.0  0.59890  0.54410  0.34890  1.0000 -0.7067283976
O   O5        1.0  0.59620  0.41600  0.69780  1.0000 -0.7067283976
O   O6        1.0  0.40380  0.58400  0.30220  1.0000 -0.7067283976
O   O7        1.0  0.71850  0.46030  0.58240  1.0000 -0.60086353
O   O8        1.0  0.28150  0.53970  0.41760  1.0000 -0.60086353
O   O9        1.0  0.75560  0.62990  0.84650  1.0000 -0.6787268259
O   O10       1.0  0.24440  0.37010  0.15350  1.0000 -0.6787268259
O   O11       1.0  0.63840  0.73700  0.83860  1.0000 -0.5904300648
O   O12       1.0  0.36160  0.26300  0.16140  1.0000 -0.5904300648
O   O13       1.0  0.48640  0.78930  0.98430  1.0000 -0.60086353
O   O14       1.0  0.51360  0.21070  0.01570  1.0000 -0.60086353
O   O15       1.0  0.44760  0.72870  0.13290  1.0000 -0.6647376555
O   O16       1.0  0.55240  0.27130  0.86710  1.0000 -0.6676840919
O   O17       1.0  0.23780  0.82180  0.73760  1.0000 -0.6302223939
O   O18       1.0  0.76220  0.17820  0.26240  1.0000 -0.6302223939
O   O19       1.0  0.16800  0.79270  0.64070  1.0000 -0.6489736575
O   O20       1.0  0.83200  0.20730  0.35930  1.0000 -0.6489736575
O   O21       1.0  0.18560  0.54090  0.02550  1.0000 -0.5430441636
O   O22       1.0  0.81440  0.45910  0.97450  1.0000 -0.5484812397
O   O23       1.0  0.13800  0.65000  0.09120  1.0000 -0.6489736575
O   O24       1.0  0.86200  0.35000  0.90880  1.0000 -0.6489736575
O   O25       1.0  0.85690  0.59610  0.66590  1.0000 -0.6398583072
O   O26       1.0  0.14310  0.40390  0.33410  1.0000 -0.6398583072
O   O27       1.0  0.87930  0.55950  0.53630  1.0000 -0.6398583072
O   O28       1.0  0.12070  0.44050  0.46370  1.0000 -0.6398583072
O   O29       1.0  0.95550  0.58950  0.34840  1.0000 -0.6489736575
O   O30       1.0  0.04450  0.41050  0.65160  1.0000 -0.6489736575
O   O31       1.0  0.10570  0.61170  0.28080  1.0000 -0.6676840919
O   O32       1.0  0.89430  0.38830  0.71920  1.0000 -0.6676840919
O   O33       1.0  0.62970  0.87310  0.67470  1.0000 -0.6676840919
O   O34       1.0  0.37030  0.12690  0.32530  1.0000 -0.6676840919
O   O35       1.0  0.66200  0.97200  0.54300  1.0000 -0.6787268259
O   O36       1.0  0.33800  0.02800  0.45700  1.0000 -0.6676840919
O   O37       1.0  0.62530  0.03120  0.35040  1.0000 -0.6230140664
O   O38       1.0  0.37470  0.96880  0.64960  1.0000 -0.6230140664
O   O39       1.0  0.52730  0.00630  0.28000  1.0000 -0.6302223939
O   O40       1.0  0.47270  0.99370  0.72000  1.0000 -0.6302223939
O   O41       1.0  0.70810  0.70170  0.21420  1.0000 -0.6230140664
O   O42       1.0  0.29190  0.29830  0.78580  1.0000 -0.6302223939
O   O43       1.0  0.61340  0.79420  0.13530  1.0000 -0.6302223939
O   O44       1.0  0.38660  0.20580  0.86470  1.0000 -0.6302223939
O   O45       1.0  0.01610  0.95330  0.11410  1.0000 -0.3435373443
O   O46       1.0  0.98390  0.04670  0.88590  1.0000 -0.3435373443
O   O47       1.0  0.05300  0.86000  0.07100  1.0000 -0.1934238884
O   O48       1.0  0.94700  0.14000  0.92900  1.0000 -0.1934238884
