# DDEC6 charges by PACMAN v1.1 (https://github.com/mtap-research/PACMAN-charge/)
data_2015[Zn][pcu]3[ASR]17
_chemical_formula_sum              "Zn4 B4 H96 C110 N12 O16 F8"
_cell_length_a       14.823
_cell_length_b       14.823
_cell_length_c       16.0286
_cell_angle_alpha    83.2547
_cell_angle_beta     96.7453
_cell_angle_gamma    93.1242

_symmetry_space_group_name_H-M    "P 1"
_symmetry_Int_Tables_number       1

loop_
  _symmetry_equiv_pos_as_xyz
  'x, y, z'

loop_
  _atom_site_type_symbol
  _atom_site_label
  _atom_site_symmetry_multiplicity
  _atom_site_fract_x
  _atom_site_fract_y
  _atom_site_fract_z
  _atom_site_occupancy
  _atom_site_charge
Zn  Zn1       1.0  0.89604  0.87672  0.84403  1.0000 0.8321690994
Zn  Zn2       1.0  0.87672  0.89604  0.65597  1.0000 0.8321690994
Zn  Zn3       1.0  0.10396  0.12328  0.15597  1.0000 0.8321690994
Zn  Zn4       1.0  0.12328  0.10396  0.34403  1.0000 0.8321690994
B   B1        1.0  0.91910  0.40510  0.64190  1.0000 0.7927922446
B   B2        1.0  0.40510  0.91910  0.85810  1.0000 0.7927922446
B   B3        1.0  0.08090  0.59490  0.35810  1.0000 0.7927922446
B   B4        1.0  0.59490  0.08090  0.14190  1.0000 0.7927922446
H   H1        1.0  0.74280  0.71360  0.29800  1.0000 0.0879559198
H   H2        1.0  0.71360  0.74280  0.20200  1.0000 0.0879559198
H   H3        1.0  0.86160  0.67780  0.23900  1.0000 0.1289112891
H   H4        1.0  0.67780  0.86160  0.26100  1.0000 0.1289112891
H   H5        1.0  0.89400  0.77200  0.27000  1.0000 0.1289112891
H   H6        1.0  0.77200  0.89400  0.23000  1.0000 0.1289112891
H   H7        1.0  0.77590  0.69310  0.08350  1.0000 0.1505396712
H   H8        1.0  0.69310  0.77590  0.41650  1.0000 0.1505396712
H   H9        1.0  0.79020  0.75180  0.94710  1.0000 0.1289112891
H   H10       1.0  0.75180  0.79020  0.55290  1.0000 0.1289112891
H   H11       1.0  0.97610  0.92810  0.02370  1.0000 0.1207791883
H   H12       1.0  0.92810  0.97610  0.47630  1.0000 0.1207791883
H   H13       1.0  0.95930  0.87970  0.16270  1.0000 0.1505396712
H   H14       1.0  0.87970  0.95930  0.33730  1.0000 0.1505396712
H   H15       1.0  0.90680  0.26140  0.53830  1.0000 0.1593488378
H   H16       1.0  0.26140  0.90680  0.96170  1.0000 0.1593488378
H   H17       1.0  0.93140  0.16040  0.56830  1.0000 0.1505396712
H   H18       1.0  0.16040  0.93140  0.93170  1.0000 0.1505396712
H   H19       1.0  0.00420  0.23940  0.58310  1.0000 0.1505396712
H   H20       1.0  0.23940  0.00420  0.91690  1.0000 0.1505396712
H   H21       1.0  0.79370  0.09650  0.85990  1.0000 0.1505396712
H   H22       1.0  0.09650  0.79370  0.64010  1.0000 0.1505396712
H   H23       1.0  0.77560  0.19100  0.88820  1.0000 0.13784485
H   H24       1.0  0.19100  0.77560  0.61180  1.0000 0.13784485
H   H25       1.0  0.86900  0.14600  0.91740  1.0000 0.13784485
H   H26       1.0  0.14600  0.86900  0.58260  1.0000 0.13784485
H   H27       1.0  0.96180  0.32100  0.96270  1.0000 0.1289112891
H   H28       1.0  0.32100  0.96180  0.53730  1.0000 0.1289112891
H   H29       1.0  0.92140  0.29020  0.09810  1.0000 0.1289112891
H   H30       1.0  0.29020  0.92140  0.40190  1.0000 0.1289112891
H   H31       1.0  0.77110  0.29570  0.12180  1.0000 0.1207791883
H   H32       1.0  0.29570  0.77110  0.37820  1.0000 0.1207791883
H   H33       1.0  0.66310  0.34430  0.01150  1.0000 0.1207791883
H   H34       1.0  0.34430  0.66310  0.48850  1.0000 0.1207791883
H   H35       1.0  0.70390  0.38070  0.87600  1.0000 0.1207791883
H   H36       1.0  0.38070  0.70390  0.62400  1.0000 0.1207791883
H   H37       1.0  0.87910  0.62110  0.91310  1.0000 0.13784485
H   H38       1.0  0.62110  0.87910  0.58690  1.0000 0.13784485
H   H39       1.0  0.89630  0.51830  0.94340  1.0000 0.1289112891
H   H40       1.0  0.51830  0.89630  0.55660  1.0000 0.1289112891
H   H41       1.0  0.79770  0.54890  0.91030  1.0000 0.1289112891
H   H42       1.0  0.54890  0.79770  0.58970  1.0000 0.1289112891
H   H43       1.0  0.96360  0.56780  0.57070  1.0000 0.1593488378
H   H44       1.0  0.56780  0.96360  0.92930  1.0000 0.1593488378
H   H45       1.0  0.96300  0.66540  0.59900  1.0000 0.1593488378
H   H46       1.0  0.66540  0.96300  0.90100  1.0000 0.1593488378
H   H47       1.0  0.87340  0.62060  0.55720  1.0000 0.1593488378
H   H48       1.0  0.62060  0.87340  0.94280  1.0000 0.1593488378
H   H49       1.0  0.25720  0.28640  0.70200  1.0000 0.0879559198
H   H50       1.0  0.28640  0.25720  0.79800  1.0000 0.0879559198
H   H51       1.0  0.13840  0.32220  0.76100  1.0000 0.1289112891
H   H52       1.0  0.32220  0.13840  0.73900  1.0000 0.1289112891
H   H53       1.0  0.10600  0.22800  0.73000  1.0000 0.1289112891
H   H54       1.0  0.22800  0.10600  0.77000  1.0000 0.1289112891
H   H55       1.0  0.22410  0.30690  0.91650  1.0000 0.1505396712
H   H56       1.0  0.30690  0.22410  0.58350  1.0000 0.1505396712
H   H57       1.0  0.20980  0.24820  0.05290  1.0000 0.1289112891
H   H58       1.0  0.24820  0.20980  0.44710  1.0000 0.1289112891
H   H59       1.0  0.02390  0.07190  0.97630  1.0000 0.1207791883
H   H60       1.0  0.07190  0.02390  0.52370  1.0000 0.1207791883
H   H61       1.0  0.04070  0.12030  0.83730  1.0000 0.1505396712
H   H62       1.0  0.12030  0.04070  0.66270  1.0000 0.1505396712
H   H63       1.0  0.09320  0.73860  0.46170  1.0000 0.1593488378
H   H64       1.0  0.73860  0.09320  0.03830  1.0000 0.1593488378
H   H65       1.0  0.06860  0.83960  0.43170  1.0000 0.1505396712
H   H66       1.0  0.83960  0.06860  0.06830  1.0000 0.1505396712
H   H67       1.0  0.99580  0.76060  0.41690  1.0000 0.1505396712
H   H68       1.0  0.76060  0.99580  0.08310  1.0000 0.1505396712
H   H69       1.0  0.20630  0.90350  0.14010  1.0000 0.1505396712
H   H70       1.0  0.90350  0.20630  0.35990  1.0000 0.1505396712
H   H71       1.0  0.22440  0.80900  0.11180  1.0000 0.13784485
H   H72       1.0  0.80900  0.22440  0.38820  1.0000 0.13784485
H   H73       1.0  0.13100  0.85400  0.08260  1.0000 0.13784485
H   H74       1.0  0.85400  0.13100  0.41740  1.0000 0.13784485
H   H75       1.0  0.03820  0.67900  0.03730  1.0000 0.1289112891
H   H76       1.0  0.67900  0.03820  0.46270  1.0000 0.1289112891
H   H77       1.0  0.07860  0.70980  0.90190  1.0000 0.1289112891
H   H78       1.0  0.70980  0.07860  0.59810  1.0000 0.1289112891
H   H79       1.0  0.22890  0.70430  0.87820  1.0000 0.1207791883
H   H80       1.0  0.70430  0.22890  0.62180  1.0000 0.1207791883
H   H81       1.0  0.33690  0.65570  0.98850  1.0000 0.1207791883
H   H82       1.0  0.65570  0.33690  0.51150  1.0000 0.1207791883
H   H83       1.0  0.29610  0.61930  0.12400  1.0000 0.1207791883
H   H84       1.0  0.61930  0.29610  0.37600  1.0000 0.1207791883
H   H85       1.0  0.12090  0.37890  0.08690  1.0000 0.13784485
H   H86       1.0  0.37890  0.12090  0.41310  1.0000 0.13784485
H   H87       1.0  0.10370  0.48170  0.05660  1.0000 0.1289112891
H   H88       1.0  0.48170  0.10370  0.44340  1.0000 0.1289112891
H   H89       1.0  0.20230  0.45110  0.08970  1.0000 0.1289112891
H   H90       1.0  0.45110  0.20230  0.41030  1.0000 0.1289112891
H   H91       1.0  0.03640  0.43220  0.42930  1.0000 0.1593488378
H   H92       1.0  0.43220  0.03640  0.07070  1.0000 0.1593488378
H   H93       1.0  0.03700  0.33460  0.40100  1.0000 0.1593488378
H   H94       1.0  0.33460  0.03700  0.09900  1.0000 0.1593488378
H   H95       1.0  0.12660  0.37940  0.44280  1.0000 0.1593488378
H   H96       1.0  0.37940  0.12660  0.05720  1.0000 0.1593488378
C   C1        1.0  0.75630  0.75630  0.25000  1.0000 -0.1316751701
C   C2        1.0  0.85050  0.74230  0.23080  1.0000 -0.2509634898
C   C3        1.0  0.74230  0.85050  0.26920  1.0000 -0.2509634898
C   C4        1.0  0.86560  0.78040  0.13960  1.0000 0.1750907588
C   C5        1.0  0.78040  0.86560  0.36040  1.0000 0.1750907588
C   C6        1.0  0.81610  0.74230  0.07280  1.0000 -0.2005161133
C   C7        1.0  0.74230  0.81610  0.42720  1.0000 -0.2005161133
C   C8        1.0  0.82640  0.77680  0.99070  1.0000 0.0844315027
C   C9        1.0  0.77680  0.82640  0.50930  1.0000 0.0844315027
C   C10       1.0  0.93410  0.88070  0.03560  1.0000 0.0879559198
C   C11       1.0  0.88070  0.93410  0.46440  1.0000 0.0879559198
C   C12       1.0  0.92510  0.85130  0.12000  1.0000 -0.2005161133
C   C13       1.0  0.85130  0.92510  0.38000  1.0000 -0.2005161133
C   C14       1.0  0.88870  0.06090  0.72470  1.0000 0.6106199163
C   C15       1.0  0.06090  0.88870  0.77530  1.0000 0.6106199163
C   C16       1.0  0.88430  0.16050  0.72730  1.0000 -0.2509634898
C   C17       1.0  0.16050  0.88430  0.77270  1.0000 -0.2509634898
C   C18       1.0  0.90900  0.22980  0.66470  1.0000 0.2900869536
C   C19       1.0  0.22980  0.90900  0.83530  1.0000 0.2900869536
C   C20       1.0  0.94060  0.22200  0.58120  1.0000 -0.500255422
C   C21       1.0  0.22200  0.94060  0.91880  1.0000 -0.500255422
C   C22       1.0  0.85830  0.20170  0.79500  1.0000 0.1207791883
C   C23       1.0  0.20170  0.85830  0.70500  1.0000 0.1207791883
C   C24       1.0  0.82080  0.15460  0.87210  1.0000 -0.4469669027
C   C25       1.0  0.15460  0.82080  0.62790  1.0000 -0.4469669027
C   C26       1.0  0.87070  0.29670  0.77220  1.0000 0.0514065313
C   C27       1.0  0.29670  0.87070  0.72780  1.0000 0.0514065313
C   C28       1.0  0.86260  0.37160  0.81780  1.0000 -0.0020140933
C   C29       1.0  0.37160  0.86260  0.68220  1.0000 -0.0020140933
C   C30       1.0  0.87940  0.46040  0.78240  1.0000 0.055818225
C   C31       1.0  0.46040  0.87940  0.71760  1.0000 0.055818225
C   C32       1.0  0.83690  0.35290  0.90520  1.0000 0.0844315027
C   C33       1.0  0.35290  0.83690  0.59480  1.0000 0.0844315027
C   C34       1.0  0.90180  0.32600  0.97240  1.0000 -0.1380907607
C   C35       1.0  0.32600  0.90180  0.52760  1.0000 -0.1380907607
C   C36       1.0  0.87740  0.30660  0.05330  1.0000 -0.079059643
C   C37       1.0  0.30660  0.87740  0.44670  1.0000 -0.079059643
C   C38       1.0  0.78800  0.31140  0.06770  1.0000 -0.0916544807
C   C39       1.0  0.31140  0.78800  0.43230  1.0000 -0.0916544807
C   C40       1.0  0.72310  0.33970  0.00140  1.0000 -0.079059643
C   C41       1.0  0.33970  0.72310  0.49860  1.0000 -0.079059643
C   C42       1.0  0.74740  0.36100  0.92020  1.0000 -0.1380907607
C   C43       1.0  0.36100  0.74740  0.57980  1.0000 -0.1380907607
C   C44       1.0  0.87640  0.54480  0.81590  1.0000 0.13784485
C   C45       1.0  0.54480  0.87640  0.68410  1.0000 0.13784485
C   C46       1.0  0.86100  0.55960  0.90350  1.0000 -0.4423964036
C   C47       1.0  0.55960  0.86100  0.59650  1.0000 -0.4423964036
C   C48       1.0  0.89140  0.61200  0.74970  1.0000 -0.2362930489
C   C49       1.0  0.61200  0.89140  0.75030  1.0000 -0.2362930489
C   C50       1.0  0.88788  0.71212  0.74960  1.0000 0.6214434343
C   C51       1.0  0.71212  0.88788  0.75040  1.0000 0.6214434343
C   C52       1.0  0.90610  0.56910  0.67850  1.0000 0.3064029577
C   C53       1.0  0.56910  0.90610  0.82150  1.0000 0.3064029577
C   C54       1.0  0.92850  0.60930  0.59390  1.0000 -0.4938937885
C   C55       1.0  0.60930  0.92850  0.90610  1.0000 -0.500255422
C   C56       1.0  0.24370  0.24370  0.75000  1.0000 -0.1316751701
C   C57       1.0  0.14950  0.25770  0.76920  1.0000 -0.2509634898
C   C58       1.0  0.25770  0.14950  0.73080  1.0000 -0.2509634898
C   C59       1.0  0.13440  0.21960  0.86040  1.0000 0.1750907588
C   C60       1.0  0.21960  0.13440  0.63960  1.0000 0.1750907588
C   C61       1.0  0.18390  0.25770  0.92720  1.0000 -0.2005161133
C   C62       1.0  0.25770  0.18390  0.57280  1.0000 -0.2005161133
C   C63       1.0  0.17360  0.22320  0.00930  1.0000 0.0844315027
C   C64       1.0  0.22320  0.17360  0.49070  1.0000 0.0844315027
C   C65       1.0  0.06590  0.11930  0.96440  1.0000 0.0879559198
C   C66       1.0  0.11930  0.06590  0.53560  1.0000 0.0879559198
C   C67       1.0  0.07490  0.14870  0.88000  1.0000 -0.2005161133
C   C68       1.0  0.14870  0.07490  0.62000  1.0000 -0.2005161133
C   C69       1.0  0.11130  0.93910  0.27530  1.0000 0.6106199163
C   C70       1.0  0.93910  0.11130  0.22470  1.0000 0.6106199163
C   C71       1.0  0.11570  0.83950  0.27270  1.0000 -0.2509634898
C   C72       1.0  0.83950  0.11570  0.22730  1.0000 -0.2509634898
C   C73       1.0  0.09100  0.77020  0.33530  1.0000 0.2900869536
C   C74       1.0  0.77020  0.09100  0.16470  1.0000 0.2900869536
C   C75       1.0  0.05940  0.77800  0.41880  1.0000 -0.500255422
C   C76       1.0  0.77800  0.05940  0.08120  1.0000 -0.5053382081
C   C77       1.0  0.14170  0.79830  0.20500  1.0000 0.1207791883
C   C78       1.0  0.79830  0.14170  0.29500  1.0000 0.1207791883
C   C79       1.0  0.17920  0.84540  0.12790  1.0000 -0.4469669027
C   C80       1.0  0.84540  0.17920  0.37210  1.0000 -0.4469669027
C   C81       1.0  0.12930  0.70330  0.22780  1.0000 0.0514065313
C   C82       1.0  0.70330  0.12930  0.27220  1.0000 0.0514065313
C   C83       1.0  0.13740  0.62840  0.18220  1.0000 -0.0020140933
C   C84       1.0  0.62840  0.13740  0.31780  1.0000 -0.0020140933
C   C85       1.0  0.12060  0.53960  0.21760  1.0000 0.055818225
C   C86       1.0  0.53960  0.12060  0.28240  1.0000 0.055818225
C   C87       1.0  0.16310  0.64710  0.09480  1.0000 0.0844315027
C   C88       1.0  0.64710  0.16310  0.40520  1.0000 0.0844315027
C   C89       1.0  0.09820  0.67400  0.02760  1.0000 -0.1380907607
C   C90       1.0  0.67400  0.09820  0.47240  1.0000 -0.1380907607
C   C91       1.0  0.12260  0.69340  0.94670  1.0000 -0.079059643
C   C92       1.0  0.69340  0.12260  0.55330  1.0000 -0.079059643
C   C93       1.0  0.21200  0.68860  0.93230  1.0000 -0.0916544807
C   C94       1.0  0.68860  0.21200  0.56770  1.0000 -0.0916544807
C   C95       1.0  0.27690  0.66030  0.99860  1.0000 -0.079059643
C   C96       1.0  0.66030  0.27690  0.50140  1.0000 -0.079059643
C   C97       1.0  0.25260  0.63900  0.07980  1.0000 -0.1380907607
C   C98       1.0  0.63900  0.25260  0.42020  1.0000 -0.1380907607
C   C99       1.0  0.12360  0.45520  0.18410  1.0000 0.13784485
C   C100      1.0  0.45520  0.12360  0.31590  1.0000 0.13784485
C   C101      1.0  0.13900  0.44040  0.09650  1.0000 -0.4423964036
C   C102      1.0  0.44040  0.13900  0.40350  1.0000 -0.4423964036
C   C103      1.0  0.10860  0.38800  0.25030  1.0000 -0.2362930489
C   C104      1.0  0.38800  0.10860  0.24970  1.0000 -0.2362930489
C   C105      1.0  0.11212  0.28788  0.25040  1.0000 0.6214434343
C   C106      1.0  0.28788  0.11212  0.24960  1.0000 0.6214434343
C   C107      1.0  0.09390  0.43090  0.32150  1.0000 0.3064029577
C   C108      1.0  0.43090  0.09390  0.17850  1.0000 0.3064029577
C   C109      1.0  0.07150  0.39070  0.40610  1.0000 -0.500255422
C   C110      1.0  0.39070  0.07150  0.09390  1.0000 -0.500255422
N   N1        1.0  0.88652  0.84538  0.97100  1.0000 -0.2256695789
N   N2        1.0  0.84538  0.88652  0.52900  1.0000 -0.2256695789
N   N3        1.0  0.90110  0.31134  0.69180  1.0000 -0.322906093
N   N4        1.0  0.31134  0.90110  0.80820  1.0000 -0.322906093
N   N5        1.0  0.89979  0.47795  0.69930  1.0000 -0.3271922108
N   N6        1.0  0.47795  0.89979  0.80070  1.0000 -0.3271922108
N   N7        1.0  0.11348  0.15462  0.02900  1.0000 -0.2256695789
N   N8        1.0  0.15462  0.11348  0.47100  1.0000 -0.2256695789
N   N9        1.0  0.09890  0.68866  0.30820  1.0000 -0.322906093
N   N10       1.0  0.68866  0.09890  0.19180  1.0000 -0.322906093
N   N11       1.0  0.10021  0.52205  0.30070  1.0000 -0.3271922108
N   N12       1.0  0.52205  0.10021  0.19930  1.0000 -0.3271922108
O   O1        1.0  0.89006  0.01130  0.79430  1.0000 -0.5604444903
O   O2        1.0  0.01130  0.89006  0.70570  1.0000 -0.5604444903
O   O3        1.0  0.89104  0.03266  0.65310  1.0000 -0.5444925142
O   O4        1.0  0.03266  0.89104  0.84690  1.0000 -0.5444925142
O   O5        1.0  0.90341  0.74469  0.81990  1.0000 -0.5537145895
O   O6        1.0  0.74469  0.90341  0.68010  1.0000 -0.5537145895
O   O7        1.0  0.86994  0.75828  0.67880  1.0000 -0.5604444903
O   O8        1.0  0.75828  0.86994  0.82120  1.0000 -0.5604444903
O   O9        1.0  0.10994  0.98870  0.20570  1.0000 -0.5604444903
O   O10       1.0  0.98870  0.10994  0.29430  1.0000 -0.5604444903
O   O11       1.0  0.10896  0.96734  0.34690  1.0000 -0.5444925142
O   O12       1.0  0.96734  0.10896  0.15310  1.0000 -0.5444925142
O   O13       1.0  0.09659  0.25531  0.18010  1.0000 -0.5537145895
O   O14       1.0  0.25531  0.09659  0.31990  1.0000 -0.5537145895
O   O15       1.0  0.13006  0.24172  0.32120  1.0000 -0.5604444903
O   O16       1.0  0.24172  0.13006  0.17880  1.0000 -0.5604444903
F   F1        1.0  0.00914  0.41354  0.62570  1.0000 -0.409039886
F   F2        1.0  0.41354  0.00914  0.87430  1.0000 -0.409039886
F   F3        1.0  0.86185  0.41451  0.56700  1.0000 -0.4018355247
F   F4        1.0  0.41451  0.86185  0.93300  1.0000 -0.4018355247
F   F5        1.0  0.99086  0.58646  0.37430  1.0000 -0.409039886
F   F6        1.0  0.58646  0.99086  0.12570  1.0000 -0.409039886
F   F7        1.0  0.13815  0.58549  0.43300  1.0000 -0.4018355247
F   F8        1.0  0.58549  0.13815  0.06700  1.0000 -0.4018355247
