# DDEC6 charges by PACMAN v1.1 (https://github.com/mtap-research/PACMAN-charge/)
data_2015[Cu][hyw]3[ASR]1
_chemical_formula_sum              "Cu32 H144 C304 N32 O128"
_cell_length_a       31.6717
_cell_length_b       31.6717
_cell_length_c       31.6717
_cell_angle_alpha    132.697
_cell_angle_beta     132.697
_cell_angle_gamma    69.1306

_symmetry_space_group_name_H-M    "P 1"
_symmetry_Int_Tables_number       1

loop_
  _symmetry_equiv_pos_as_xyz
  'x, y, z'

loop_
  _atom_site_type_symbol
  _atom_site_label
  _atom_site_symmetry_multiplicity
  _atom_site_fract_x
  _atom_site_fract_y
  _atom_site_fract_z
  _atom_site_occupancy
  _atom_site_charge
Cu  Cu1       1.0  0.45283  0.47452  0.42507  1.0000 0.8700957589
Cu  Cu2       1.0  0.22452  0.29945  0.52169  1.0000 0.8700957589
Cu  Cu3       1.0  0.04945  0.02776  0.57493  1.0000 0.8700957589
Cu  Cu4       1.0  0.77776  0.70283  0.47831  1.0000 0.8700957589
Cu  Cu5       1.0  0.29717  0.22224  0.52169  1.0000 0.8700957589
Cu  Cu6       1.0  0.70055  0.77548  0.47831  1.0000 0.8700957589
Cu  Cu7       1.0  0.97224  0.95055  0.42507  1.0000 0.8700957589
Cu  Cu8       1.0  0.52548  0.54717  0.57493  1.0000 0.8700957589
Cu  Cu9       1.0  0.29717  0.77548  0.07494  1.0000 0.8700957589
Cu  Cu10      1.0  0.52548  0.95055  0.97831  1.0000 0.8700957589
Cu  Cu11      1.0  0.70055  0.22224  0.92507  1.0000 0.8700957589
Cu  Cu12      1.0  0.97224  0.54717  0.02169  1.0000 0.8700957589
Cu  Cu13      1.0  0.45283  0.02776  0.97831  1.0000 0.8700957589
Cu  Cu14      1.0  0.04945  0.47452  0.02169  1.0000 0.8700957589
Cu  Cu15      1.0  0.77776  0.29945  0.07494  1.0000 0.8700957589
Cu  Cu16      1.0  0.22452  0.70283  0.92507  1.0000 0.8700957589
Cu  Cu17      1.0  0.68162  0.38683  0.29479  1.0000 0.8593633359
Cu  Cu18      1.0  0.13683  0.34204  0.20521  1.0000 0.8593633359
Cu  Cu19      1.0  0.09204  0.38683  0.70521  1.0000 0.8593633359
Cu  Cu20      1.0  0.13683  0.93162  0.79479  1.0000 0.8593633359
Cu  Cu21      1.0  0.06838  0.86317  0.20521  1.0000 0.8545887314
Cu  Cu22      1.0  0.65796  0.86317  0.79479  1.0000 0.8593633359
Cu  Cu23      1.0  0.61317  0.90796  0.29479  1.0000 0.8545887314
Cu  Cu24      1.0  0.61317  0.31838  0.70521  1.0000 0.8593633359
Cu  Cu25      1.0  0.57189  0.35036  0.22153  1.0000 0.8593633359
Cu  Cu26      1.0  0.10036  0.37883  0.27847  1.0000 0.8593633359
Cu  Cu27      1.0  0.12883  0.35036  0.77847  1.0000 0.8593633359
Cu  Cu28      1.0  0.10036  0.82189  0.72153  1.0000 0.8593633359
Cu  Cu29      1.0  0.17811  0.89964  0.27847  1.0000 0.8593633359
Cu  Cu30      1.0  0.62117  0.89964  0.72153  1.0000 0.8593633359
Cu  Cu31      1.0  0.64964  0.87117  0.22153  1.0000 0.8593633359
Cu  Cu32      1.0  0.64964  0.42811  0.77847  1.0000 0.8593633359
H   H1        1.0  0.58250  0.44070  0.40340  1.0000 0.1386598038
H   H2        1.0  0.19070  0.28730  0.35820  1.0000 0.1386598038
H   H3        1.0  0.03730  0.17910  0.59661  1.0000 0.1386598038
H   H4        1.0  0.92910  0.83250  0.64180  1.0000 0.1386598038
H   H5        1.0  0.16750  0.07090  0.35820  1.0000 0.1386598038
H   H6        1.0  0.71270  0.80930  0.64180  1.0000 0.1386598038
H   H7        1.0  0.82090  0.96270  0.40340  1.0000 0.1386598038
H   H8        1.0  0.55930  0.41750  0.59661  1.0000 0.1386598038
H   H9        1.0  0.16750  0.80930  0.09661  1.0000 0.1386598038
H   H10       1.0  0.55930  0.96270  0.14180  1.0000 0.1386598038
H   H11       1.0  0.71270  0.07090  0.90339  1.0000 0.1386598038
H   H12       1.0  0.82090  0.41750  0.85820  1.0000 0.1386598038
H   H13       1.0  0.58250  0.17910  0.14180  1.0000 0.1386598038
H   H14       1.0  0.03730  0.44070  0.85820  1.0000 0.1386598038
H   H15       1.0  0.92910  0.28730  0.09661  1.0000 0.1386598038
H   H16       1.0  0.19070  0.83250  0.90339  1.0000 0.1386598038
H   H17       1.0  0.49430  0.48870  0.21480  1.0000 0.1386598038
H   H18       1.0  0.23870  0.52390  0.49440  1.0000 0.1386598038
H   H19       1.0  0.27390  0.27950  0.78521  1.0000 0.1386598038
H   H20       1.0  0.02950  0.74430  0.50560  1.0000 0.1386598038
H   H21       1.0  0.25570  0.97050  0.49440  1.0000 0.1386598038
H   H22       1.0  0.47610  0.76130  0.50560  1.0000 0.1386598038
H   H23       1.0  0.72050  0.72610  0.21480  1.0000 0.1386598038
H   H24       1.0  0.51130  0.50570  0.78521  1.0000 0.1386598038
H   H25       1.0  0.25570  0.76130  0.28520  1.0000 0.1386598038
H   H26       1.0  0.51130  0.72610  0.00560  1.0000 0.1386598038
H   H27       1.0  0.47610  0.97050  0.71479  1.0000 0.1386598038
H   H28       1.0  0.72050  0.50570  0.99440  1.0000 0.1386598038
H   H29       1.0  0.49430  0.27950  0.00560  1.0000 0.1386598038
H   H30       1.0  0.27390  0.48870  0.99440  1.0000 0.1386598038
H   H31       1.0  0.02950  0.52390  0.28520  1.0000 0.1386598038
H   H32       1.0  0.23870  0.74430  0.71479  1.0000 0.1386598038
H   H33       1.0  0.53970  0.64780  0.29950  1.0000 0.1324520366
H   H34       1.0  0.39780  0.59830  0.60810  1.0000 0.1324520366
H   H35       1.0  0.34830  0.24020  0.70051  1.0000 0.1324520366
H   H36       1.0  0.99020  0.78970  0.39190  1.0000 0.1324520366
H   H37       1.0  0.21030  0.00980  0.60810  1.0000 0.1324520366
H   H38       1.0  0.40170  0.60220  0.39190  1.0000 0.1324520366
H   H39       1.0  0.75980  0.65170  0.29950  1.0000 0.1324520366
H   H40       1.0  0.35220  0.46030  0.70051  1.0000 0.1324520366
H   H41       1.0  0.21030  0.60220  0.20051  1.0000 0.1324520366
H   H42       1.0  0.35220  0.65170  0.89190  1.0000 0.1324520366
H   H43       1.0  0.40170  0.00980  0.79950  1.0000 0.1324520366
H   H44       1.0  0.75980  0.46030  0.10810  1.0000 0.1324520366
H   H45       1.0  0.53970  0.24020  0.89190  1.0000 0.1324520366
H   H46       1.0  0.34830  0.64780  0.10810  1.0000 0.1324520366
H   H47       1.0  0.99020  0.59830  0.20051  1.0000 0.1324520366
H   H48       1.0  0.39780  0.78970  0.79950  1.0000 0.1324520366
H   H49       1.0  0.66260  0.55520  0.34959  1.0000 0.1455868773
H   H50       1.0  0.30520  0.45560  0.39260  1.0000 0.1455868773
H   H51       1.0  0.20560  0.31300  0.65041  1.0000 0.1455868773
H   H52       1.0  0.06300  0.91260  0.60740  1.0000 0.1455868773
H   H53       1.0  0.08740  0.93700  0.39260  1.0000 0.1455868773
H   H54       1.0  0.54440  0.69480  0.60740  1.0000 0.1455868773
H   H55       1.0  0.68700  0.79440  0.34959  1.0000 0.1455868773
H   H56       1.0  0.44480  0.33740  0.65041  1.0000 0.1455868773
H   H57       1.0  0.08740  0.69480  0.15041  1.0000 0.1455868773
H   H58       1.0  0.44480  0.79440  0.10740  1.0000 0.1455868773
H   H59       1.0  0.54440  0.93700  0.84959  1.0000 0.1455868773
H   H60       1.0  0.68700  0.33740  0.89260  1.0000 0.1455868773
H   H61       1.0  0.66260  0.31300  0.10740  1.0000 0.1455868773
H   H62       1.0  0.20560  0.55520  0.89260  1.0000 0.1455868773
H   H63       1.0  0.06300  0.45560  0.15041  1.0000 0.1455868773
H   H64       1.0  0.30520  0.91260  0.84959  1.0000 0.1455868773
H   H65       1.0  0.41480  0.55500  0.23719  1.0000 0.1324520366
H   H66       1.0  0.30500  0.56780  0.64020  1.0000 0.1324520366
H   H67       1.0  0.31780  0.17760  0.76280  1.0000 0.1324520366
H   H68       1.0  0.92760  0.66480  0.35980  1.0000 0.1324520366
H   H69       1.0  0.33520  0.07240  0.64020  1.0000 0.1324520366
H   H70       1.0  0.43220  0.69500  0.35980  1.0000 0.1324520366
H   H71       1.0  0.82240  0.68220  0.23719  1.0000 0.1324520366
H   H72       1.0  0.44500  0.58520  0.76280  1.0000 0.1324520366
H   H73       1.0  0.33520  0.69500  0.26281  1.0000 0.1324520366
H   H74       1.0  0.44500  0.68220  0.85980  1.0000 0.1324520366
H   H75       1.0  0.43220  0.07240  0.73720  1.0000 0.1324520366
H   H76       1.0  0.82240  0.58520  0.14020  1.0000 0.1324520366
H   H77       1.0  0.41480  0.17760  0.85980  1.0000 0.1324520366
H   H78       1.0  0.31780  0.55500  0.14020  1.0000 0.1324520366
H   H79       1.0  0.92760  0.56780  0.26281  1.0000 0.1324520366
H   H80       1.0  0.30500  0.66480  0.73720  1.0000 0.1324520366
H   H81       1.0  0.43770  0.58150  0.14380  1.0000 0.1386598038
H   H82       1.0  0.33150  0.68770  0.64380  1.0000 0.1386598038
H   H83       1.0  0.43770  0.29390  0.85620  1.0000 0.1386598038
H   H84       1.0  0.04390  0.68770  0.35620  1.0000 0.1386598038
H   H85       1.0  0.31230  0.95610  0.64380  1.0000 0.1386598038
H   H86       1.0  0.31230  0.66850  0.35620  1.0000 0.1386598038
H   H87       1.0  0.70610  0.56230  0.14380  1.0000 0.1386598038
H   H88       1.0  0.41850  0.56230  0.85620  1.0000 0.1386598038
H   H89       1.0  0.75630  0.46860  0.51989  1.0000 0.1324520366
H   H90       1.0  0.21860  0.19870  0.21230  1.0000 0.1324520366
H   H91       1.0  0.94870  0.23640  0.48011  1.0000 0.1324520366
H   H92       1.0  0.98640  0.00630  0.78770  1.0000 0.1324520366
H   H93       1.0  0.99370  0.01360  0.21230  1.0000 0.1324520366
H   H94       1.0  0.80130  0.78140  0.78770  1.0000 0.1324520366
H   H95       1.0  0.76360  0.05130  0.51989  1.0000 0.1324520366
H   H96       1.0  0.53140  0.24370  0.48011  1.0000 0.1324520366
H   H97       1.0  0.99370  0.78140  0.98011  1.0000 0.1324520366
H   H98       1.0  0.53140  0.05130  0.28770  1.0000 0.1324520366
H   H99       1.0  0.80130  0.01360  0.01989  1.0000 0.1324520366
H   H100      1.0  0.76360  0.24370  0.71230  1.0000 0.1324520366
H   H101      1.0  0.75630  0.23640  0.28770  1.0000 0.1324520366
H   H102      1.0  0.94870  0.46860  0.71230  1.0000 0.1324520366
H   H103      1.0  0.98640  0.19870  0.98011  1.0000 0.1324520366
H   H104      1.0  0.21860  0.00630  0.01989  1.0000 0.1324520366
H   H105      1.0  0.69260  0.53480  0.62560  1.0000 0.1386598038
H   H106      1.0  0.28480  0.15920  0.34220  1.0000 0.1386598038
H   H107      1.0  0.90920  0.06700  0.37441  1.0000 0.1386598038
H   H108      1.0  0.81700  0.94260  0.65780  1.0000 0.1386598038
H   H109      1.0  0.05740  0.18300  0.34220  1.0000 0.1386598038
H   H110      1.0  0.84080  0.71520  0.65780  1.0000 0.1386598038
H   H111      1.0  0.93300  0.09080  0.62560  1.0000 0.1386598038
H   H112      1.0  0.46520  0.30740  0.37441  1.0000 0.1386598038
H   H113      1.0  0.05740  0.71520  0.87440  1.0000 0.1386598038
H   H114      1.0  0.46520  0.09080  0.15780  1.0000 0.1386598038
H   H115      1.0  0.84080  0.18300  0.12560  1.0000 0.1386598038
H   H116      1.0  0.93300  0.30740  0.84220  1.0000 0.1386598038
H   H117      1.0  0.69260  0.06700  0.15780  1.0000 0.1386598038
H   H118      1.0  0.90920  0.53480  0.84220  1.0000 0.1386598038
H   H119      1.0  0.81700  0.15920  0.87440  1.0000 0.1386598038
H   H120      1.0  0.28480  0.94260  0.12560  1.0000 0.1386598038
H   H121      1.0  0.79530  0.61490  0.72179  1.0000 0.1324520366
H   H122      1.0  0.36490  0.14310  0.31960  1.0000 0.1324520366
H   H123      1.0  0.89310  0.07350  0.27821  1.0000 0.1324520366
H   H124      1.0  0.82350  0.04530  0.68040  1.0000 0.1324520366
H   H125      1.0  0.95470  0.17650  0.31960  1.0000 0.1324520366
H   H126      1.0  0.85690  0.63510  0.68040  1.0000 0.1324520366
H   H127      1.0  0.92650  0.10690  0.72179  1.0000 0.1324520366
H   H128      1.0  0.38510  0.20470  0.27821  1.0000 0.1324520366
H   H129      1.0  0.95470  0.63510  0.77821  1.0000 0.1324520366
H   H130      1.0  0.38510  0.10690  0.18040  1.0000 0.1324520366
H   H131      1.0  0.85690  0.17650  0.22180  1.0000 0.1324520366
H   H132      1.0  0.92650  0.20470  0.81960  1.0000 0.1324520366
H   H133      1.0  0.79530  0.07350  0.18040  1.0000 0.1324520366
H   H134      1.0  0.89310  0.61490  0.81960  1.0000 0.1324520366
H   H135      1.0  0.82350  0.14310  0.77821  1.0000 0.1324520366
H   H136      1.0  0.36490  0.04530  0.22180  1.0000 0.1324520366
H   H137      1.0  0.82020  0.45030  0.63010  1.0000 0.1324520366
H   H138      1.0  0.20030  0.07020  0.13010  1.0000 0.1324520366
H   H139      1.0  0.82020  0.19010  0.36990  1.0000 0.1324520366
H   H140      1.0  0.94010  0.07020  0.86990  1.0000 0.1324520366
H   H141      1.0  0.92980  0.05990  0.13010  1.0000 0.1324520366
H   H142      1.0  0.92980  0.79970  0.86990  1.0000 0.1324520366
H   H143      1.0  0.80990  0.17980  0.63010  1.0000 0.1324520366
H   H144      1.0  0.54970  0.17980  0.36990  1.0000 0.1324520366
C   C1        1.0  0.57795  0.50030  0.51071  1.0000 0.5730329297
C   C2        1.0  0.25030  0.23959  0.42235  1.0000 0.5730329297
C   C3        1.0  0.98959  0.06724  0.48930  1.0000 0.5730329297
C   C4        1.0  0.81724  0.82795  0.57765  1.0000 0.5730329297
C   C5        1.0  0.17205  0.18276  0.42235  1.0000 0.5730329297
C   C6        1.0  0.76041  0.74970  0.57765  1.0000 0.5730329297
C   C7        1.0  0.93276  0.01041  0.51071  1.0000 0.5730329297
C   C8        1.0  0.49970  0.42205  0.48930  1.0000 0.5730329297
C   C9        1.0  0.17205  0.74970  0.98930  1.0000 0.5730329297
C   C10       1.0  0.49970  0.01041  0.07765  1.0000 0.5730329297
C   C11       1.0  0.76041  0.18276  0.01070  1.0000 0.5730329297
C   C12       1.0  0.93276  0.42205  0.92235  1.0000 0.5730329297
C   C13       1.0  0.57795  0.06724  0.07765  1.0000 0.5730329297
C   C14       1.0  0.98959  0.50030  0.92235  1.0000 0.5730329297
C   C15       1.0  0.81724  0.23959  0.98930  1.0000 0.5730329297
C   C16       1.0  0.25030  0.82795  0.01070  1.0000 0.5730329297
C   C17       1.0  0.60710  0.60858  0.33167  1.0000 -0.0135747516
C   C18       1.0  0.35858  0.52690  0.50148  1.0000 -0.0135747516
C   C19       1.0  0.27690  0.27542  0.66832  1.0000 -0.0135747516
C   C20       1.0  0.02542  0.85710  0.49852  1.0000 -0.0135747516
C   C21       1.0  0.14290  0.97458  0.50148  1.0000 -0.0135747516
C   C22       1.0  0.47310  0.64142  0.49852  1.0000 -0.0135747516
C   C23       1.0  0.72458  0.72310  0.33167  1.0000 -0.0135747516
C   C24       1.0  0.39142  0.39290  0.66832  1.0000 -0.0135747516
C   C25       1.0  0.14290  0.64142  0.16833  1.0000 -0.0135747516
C   C26       1.0  0.39142  0.72310  0.99852  1.0000 -0.0135747516
C   C27       1.0  0.47310  0.97458  0.83168  1.0000 -0.0135747516
C   C28       1.0  0.72458  0.39290  0.00148  1.0000 -0.0135747516
C   C29       1.0  0.60710  0.27542  0.99852  1.0000 -0.0135747516
C   C30       1.0  0.27690  0.60858  0.00148  1.0000 -0.0135747516
C   C31       1.0  0.02542  0.52690  0.16833  1.0000 -0.0135747516
C   C32       1.0  0.35858  0.85710  0.83168  1.0000 -0.0135747516
C   C33       1.0  0.62909  0.49169  0.51445  1.0000 -0.0266642857
C   C34       1.0  0.24169  0.22723  0.36260  1.0000 -0.0266642857
C   C35       1.0  0.97723  0.11463  0.48555  1.0000 -0.0266642857
C   C36       1.0  0.86463  0.87909  0.63740  1.0000 -0.0266642857
C   C37       1.0  0.12091  0.13537  0.36260  1.0000 -0.0266642857
C   C38       1.0  0.77277  0.75831  0.63740  1.0000 -0.0266642857
C   C39       1.0  0.88537  0.02277  0.51445  1.0000 -0.0266642857
C   C40       1.0  0.50831  0.37091  0.48555  1.0000 -0.0266642857
C   C41       1.0  0.12091  0.75831  0.98555  1.0000 -0.0266642857
C   C42       1.0  0.50831  0.02277  0.13740  1.0000 -0.0266642857
C   C43       1.0  0.77277  0.13537  0.01446  1.0000 -0.0266642857
C   C44       1.0  0.88537  0.37091  0.86260  1.0000 -0.0266642857
C   C45       1.0  0.62909  0.11463  0.13740  1.0000 -0.0266642857
C   C46       1.0  0.97723  0.49169  0.86260  1.0000 -0.0266642857
C   C47       1.0  0.86463  0.22723  0.98555  1.0000 -0.0266642857
C   C48       1.0  0.24169  0.87909  0.01446  1.0000 -0.0266642857
C   C49       1.0  0.62113  0.45842  0.44969  1.0000 -0.1025468435
C   C50       1.0  0.20842  0.25873  0.33729  1.0000 -0.1025468435
C   C51       1.0  0.00873  0.17144  0.55031  1.0000 -0.1025468435
C   C52       1.0  0.92144  0.87113  0.66271  1.0000 -0.1025468435
C   C53       1.0  0.12887  0.07856  0.33729  1.0000 -0.1025468435
C   C54       1.0  0.74127  0.79158  0.66271  1.0000 -0.1025468435
C   C55       1.0  0.82856  0.99127  0.44969  1.0000 -0.1025468435
C   C56       1.0  0.54158  0.37887  0.55031  1.0000 -0.1025468435
C   C57       1.0  0.12887  0.79158  0.05031  1.0000 -0.1025468435
C   C58       1.0  0.54158  0.99127  0.16271  1.0000 -0.1025468435
C   C59       1.0  0.74127  0.07856  0.94969  1.0000 -0.1025468435
C   C60       1.0  0.82856  0.37887  0.83729  1.0000 -0.1025468435
C   C61       1.0  0.62113  0.17144  0.16271  1.0000 -0.1025468435
C   C62       1.0  0.00873  0.45842  0.83729  1.0000 -0.1025468435
C   C63       1.0  0.92144  0.25873  0.05031  1.0000 -0.1025468435
C   C64       1.0  0.20842  0.87113  0.94969  1.0000 -0.1025468435
C   C65       1.0  0.66627  0.45037  0.45011  1.0000 -0.0190880115
C   C66       1.0  0.20037  0.25025  0.28410  1.0000 -0.0190880115
C   C67       1.0  0.00025  0.21615  0.54988  1.0000 -0.0190880115
C   C68       1.0  0.96615  0.91627  0.71590  1.0000 -0.0190880115
C   C69       1.0  0.08373  0.03385  0.28410  1.0000 -0.0190880115
C   C70       1.0  0.74975  0.79963  0.71590  1.0000 -0.0190880115
C   C71       1.0  0.78385  0.99975  0.45011  1.0000 -0.0190880115
C   C72       1.0  0.54963  0.33373  0.54988  1.0000 -0.0190880115
C   C73       1.0  0.08373  0.79963  0.04988  1.0000 -0.0190880115
C   C74       1.0  0.54963  0.99975  0.21590  1.0000 -0.0190880115
C   C75       1.0  0.74975  0.03385  0.95012  1.0000 -0.0190880115
C   C76       1.0  0.78385  0.33373  0.78410  1.0000 -0.0190880115
C   C77       1.0  0.66627  0.21615  0.21590  1.0000 -0.0190880115
C   C78       1.0  0.00025  0.45037  0.78410  1.0000 -0.0190880115
C   C79       1.0  0.96615  0.25025  0.04988  1.0000 -0.0190880115
C   C80       1.0  0.20037  0.91627  0.95012  1.0000 -0.0190880115
C   C81       1.0  0.65483  0.41759  0.37980  1.0000 0.5730329297
C   C82       1.0  0.16759  0.28779  0.26276  1.0000 0.5730329297
C   C83       1.0  0.03779  0.27503  0.62021  1.0000 0.5730329297
C   C84       1.0  0.02503  0.90483  0.73724  1.0000 0.5730329297
C   C85       1.0  0.09517  0.97497  0.26276  1.0000 0.5730329297
C   C86       1.0  0.71221  0.83241  0.73724  1.0000 0.5730329297
C   C87       1.0  0.72497  0.96221  0.37980  1.0000 0.5730329297
C   C88       1.0  0.58241  0.34517  0.62021  1.0000 0.5730329297
C   C89       1.0  0.09517  0.83241  0.12021  1.0000 0.5730329297
C   C90       1.0  0.58241  0.96221  0.23724  1.0000 0.5730329297
C   C91       1.0  0.71221  0.97497  0.87980  1.0000 0.5730329297
C   C92       1.0  0.72497  0.34517  0.76276  1.0000 0.5730329297
C   C93       1.0  0.65483  0.27503  0.23724  1.0000 0.5730329297
C   C94       1.0  0.03779  0.41759  0.76276  1.0000 0.5730329297
C   C95       1.0  0.02503  0.28779  0.12021  1.0000 0.5730329297
C   C96       1.0  0.16759  0.90483  0.87980  1.0000 0.5730329297
C   C97       1.0  0.59744  0.46076  0.27493  1.0000 0.5730329297
C   C98       1.0  0.21076  0.43582  0.36332  1.0000 0.5730329297
C   C99       1.0  0.18582  0.32250  0.72506  1.0000 0.5730329297
C   C100      1.0  0.07250  0.84744  0.63668  1.0000 0.5730329297
C   C101      1.0  0.15256  0.92750  0.36332  1.0000 0.5730329297
C   C102      1.0  0.56418  0.78924  0.63668  1.0000 0.5730329297
C   C103      1.0  0.67750  0.81418  0.27493  1.0000 0.5730329297
C   C104      1.0  0.53924  0.40256  0.72506  1.0000 0.5730329297
C   C105      1.0  0.15256  0.78924  0.22506  1.0000 0.5730329297
C   C106      1.0  0.53924  0.81418  0.13668  1.0000 0.5730329297
C   C107      1.0  0.56418  0.92750  0.77494  1.0000 0.5730329297
C   C108      1.0  0.67750  0.40256  0.86332  1.0000 0.5730329297
C   C109      1.0  0.59744  0.32250  0.13668  1.0000 0.5730329297
C   C110      1.0  0.18582  0.46076  0.86332  1.0000 0.5730329297
C   C111      1.0  0.07250  0.43582  0.22506  1.0000 0.5730329297
C   C112      1.0  0.21076  0.84744  0.77494  1.0000 0.5730329297
C   C113      1.0  0.58094  0.51463  0.28251  1.0000 -0.0135747516
C   C114      1.0  0.26463  0.48212  0.43369  1.0000 -0.0135747516
C   C115      1.0  0.23212  0.29843  0.71750  1.0000 -0.0135747516
C   C116      1.0  0.04843  0.83094  0.56631  1.0000 -0.0135747516
C   C117      1.0  0.16906  0.95157  0.43369  1.0000 -0.0135747516
C   C118      1.0  0.51788  0.73537  0.56631  1.0000 -0.0135747516
C   C119      1.0  0.70157  0.76788  0.28251  1.0000 -0.0135747516
C   C120      1.0  0.48537  0.41906  0.71750  1.0000 -0.0135747516
C   C121      1.0  0.16906  0.73537  0.21750  1.0000 -0.0135747516
C   C122      1.0  0.48537  0.76788  0.06631  1.0000 -0.0135747516
C   C123      1.0  0.51788  0.95157  0.78251  1.0000 -0.0135747516
C   C124      1.0  0.70157  0.41906  0.93369  1.0000 -0.0135747516
C   C125      1.0  0.58094  0.29843  0.06631  1.0000 -0.0135747516
C   C126      1.0  0.23212  0.51463  0.93369  1.0000 -0.0135747516
C   C127      1.0  0.04843  0.48212  0.21750  1.0000 -0.0135747516
C   C128      1.0  0.26463  0.83094  0.78251  1.0000 -0.0135747516
C   C129      1.0  0.52392  0.51942  0.24563  1.0000 -0.1791868669
C   C130      1.0  0.26942  0.52378  0.49550  1.0000 -0.1791868669
C   C131      1.0  0.27378  0.27828  0.75436  1.0000 -0.1791868669
C   C132      1.0  0.02828  0.77392  0.50450  1.0000 -0.1791868669
C   C133      1.0  0.22608  0.97172  0.49550  1.0000 -0.1791868669
C   C134      1.0  0.47622  0.73058  0.50450  1.0000 -0.1791868669
C   C135      1.0  0.72172  0.72622  0.24563  1.0000 -0.1791868669
C   C136      1.0  0.48058  0.47608  0.75436  1.0000 -0.1791868669
C   C137      1.0  0.22608  0.73058  0.25437  1.0000 -0.1791868669
C   C138      1.0  0.48058  0.72622  0.00450  1.0000 -0.1791868669
C   C139      1.0  0.47622  0.97172  0.74564  1.0000 -0.1791868669
C   C140      1.0  0.72172  0.47608  0.99550  1.0000 -0.1791868669
C   C141      1.0  0.52392  0.27828  0.00450  1.0000 -0.1791868669
C   C142      1.0  0.27378  0.51942  0.99550  1.0000 -0.1791868669
C   C143      1.0  0.02828  0.52378  0.25437  1.0000 -0.1791868669
C   C144      1.0  0.26942  0.77392  0.74564  1.0000 -0.1791868669
C   C145      1.0  0.50945  0.57028  0.25361  1.0000 0.1324520366
C   C146      1.0  0.32028  0.56667  0.56083  1.0000 0.1324520366
C   C147      1.0  0.31667  0.25584  0.74640  1.0000 0.1324520366
C   C148      1.0  0.00584  0.75945  0.43917  1.0000 0.1324520366
C   C149      1.0  0.24055  0.99416  0.56083  1.0000 0.1324520366
C   C150      1.0  0.43333  0.67972  0.43917  1.0000 0.1324520366
C   C151      1.0  0.74416  0.68333  0.25361  1.0000 0.1324520366
C   C152      1.0  0.42972  0.49055  0.74640  1.0000 0.1324520366
C   C153      1.0  0.24055  0.67972  0.24640  1.0000 0.1324520366
C   C154      1.0  0.42972  0.68333  0.93917  1.0000 0.1324520366
C   C155      1.0  0.43333  0.99416  0.75360  1.0000 0.1324520366
C   C156      1.0  0.74416  0.49055  0.06083  1.0000 0.1324520366
C   C157      1.0  0.50945  0.25584  0.93917  1.0000 0.1324520366
C   C158      1.0  0.31667  0.57028  0.06083  1.0000 0.1324520366
C   C159      1.0  0.00584  0.56667  0.24640  1.0000 0.1324520366
C   C160      1.0  0.32028  0.75945  0.75360  1.0000 0.1324520366
C   C161      1.0  0.55047  0.61380  0.29548  1.0000 -0.1720423184
C   C162      1.0  0.36380  0.56831  0.56333  1.0000 -0.1720423184
C   C163      1.0  0.31831  0.25498  0.70452  1.0000 -0.1720423184
C   C164      1.0  0.00498  0.80047  0.43667  1.0000 -0.1720423184
C   C165      1.0  0.19953  0.99502  0.56333  1.0000 -0.1720423184
C   C166      1.0  0.43169  0.63620  0.43667  1.0000 -0.1720423184
C   C167      1.0  0.74502  0.68169  0.29548  1.0000 -0.1720423184
C   C168      1.0  0.38620  0.44953  0.70452  1.0000 -0.1720423184
C   C169      1.0  0.19953  0.63620  0.20452  1.0000 -0.1720423184
C   C170      1.0  0.38620  0.68169  0.93667  1.0000 -0.1720423184
C   C171      1.0  0.43169  0.99502  0.79549  1.0000 -0.1720423184
C   C172      1.0  0.74502  0.44953  0.06333  1.0000 -0.1720423184
C   C173      1.0  0.55047  0.25498  0.93667  1.0000 -0.1720423184
C   C174      1.0  0.31831  0.61380  0.06333  1.0000 -0.1720423184
C   C175      1.0  0.00498  0.56831  0.20452  1.0000 -0.1720423184
C   C176      1.0  0.36380  0.80047  0.79549  1.0000 -0.1720423184
C   C177      1.0  0.62268  0.55891  0.32484  1.0000 -0.1102547836
C   C178      1.0  0.30891  0.48406  0.43623  1.0000 -0.1102547836
C   C179      1.0  0.23406  0.29783  0.67515  1.0000 -0.1102547836
C   C180      1.0  0.04783  0.87268  0.56377  1.0000 -0.1102547836
C   C181      1.0  0.12732  0.95217  0.43623  1.0000 -0.1102547836
C   C182      1.0  0.51594  0.69109  0.56377  1.0000 -0.1102547836
C   C183      1.0  0.70217  0.76594  0.32484  1.0000 -0.1102547836
C   C184      1.0  0.44109  0.37732  0.67515  1.0000 -0.1102547836
C   C185      1.0  0.12732  0.69109  0.17516  1.0000 -0.1102547836
C   C186      1.0  0.44109  0.76594  0.06377  1.0000 -0.1102547836
C   C187      1.0  0.51594  0.95217  0.82485  1.0000 -0.1102547836
C   C188      1.0  0.70217  0.37732  0.93623  1.0000 -0.1102547836
C   C189      1.0  0.62268  0.29783  0.06377  1.0000 -0.1102547836
C   C190      1.0  0.23406  0.55891  0.93623  1.0000 -0.1102547836
C   C191      1.0  0.04783  0.48406  0.17516  1.0000 -0.1102547836
C   C192      1.0  0.30891  0.87268  0.82485  1.0000 -0.1102547836
C   C193      1.0  0.40664  0.56118  0.20706  1.0000 -0.1102547836
C   C194      1.0  0.31118  0.60412  0.65454  1.0000 -0.1102547836
C   C195      1.0  0.35412  0.19958  0.79295  1.0000 -0.1102547836
C   C196      1.0  0.94958  0.65664  0.34546  1.0000 -0.1102547836
C   C197      1.0  0.34336  0.05042  0.65454  1.0000 -0.1102547836
C   C198      1.0  0.39588  0.68882  0.34546  1.0000 -0.1102547836
C   C199      1.0  0.80042  0.64588  0.20706  1.0000 -0.1102547836
C   C200      1.0  0.43882  0.59336  0.79295  1.0000 -0.1102547836
C   C201      1.0  0.34336  0.68882  0.29295  1.0000 -0.1102547836
C   C202      1.0  0.43882  0.64588  0.84546  1.0000 -0.1102547836
C   C203      1.0  0.39588  0.05042  0.70705  1.0000 -0.1102547836
C   C204      1.0  0.80042  0.59336  0.15454  1.0000 -0.1102547836
C   C205      1.0  0.40664  0.19958  0.84546  1.0000 -0.1102547836
C   C206      1.0  0.35412  0.56118  0.15454  1.0000 -0.1102547836
C   C207      1.0  0.94958  0.60412  0.29295  1.0000 -0.1102547836
C   C208      1.0  0.31118  0.65664  0.70705  1.0000 -0.1102547836
C   C209      1.0  0.42051  0.57651  0.15600  1.0000 -0.1331724084
C   C210      1.0  0.32651  0.67051  0.65600  1.0000 -0.1331724084
C   C211      1.0  0.42051  0.26451  0.84400  1.0000 -0.1331724084
C   C212      1.0  0.01451  0.67051  0.34400  1.0000 -0.1331724084
C   C213      1.0  0.32949  0.98549  0.65600  1.0000 -0.1331724084
C   C214      1.0  0.32949  0.67349  0.34400  1.0000 -0.1331724084
C   C215      1.0  0.73549  0.57949  0.15600  1.0000 -0.1331724084
C   C216      1.0  0.42349  0.57949  0.84400  1.0000 -0.1331724084
C   C217      1.0  0.72361  0.47351  0.51772  1.0000 -0.2027177669
C   C218      1.0  0.22351  0.20579  0.24990  1.0000 -0.2027177669
C   C219      1.0  0.95579  0.20589  0.48229  1.0000 -0.2027177669
C   C220      1.0  0.95589  0.97361  0.75010  1.0000 -0.2027177669
C   C221      1.0  0.02639  0.04411  0.24990  1.0000 -0.2027177669
C   C222      1.0  0.79421  0.77649  0.75010  1.0000 -0.2027177669
C   C223      1.0  0.79411  0.04421  0.51772  1.0000 -0.2027177669
C   C224      1.0  0.52649  0.27639  0.48229  1.0000 -0.2027177669
C   C225      1.0  0.02639  0.77649  0.98229  1.0000 -0.2027177669
C   C226      1.0  0.52649  0.04421  0.25010  1.0000 -0.2027177669
C   C227      1.0  0.79421  0.04411  0.01772  1.0000 -0.2027177669
C   C228      1.0  0.79411  0.27639  0.74990  1.0000 -0.2027177669
C   C229      1.0  0.72361  0.20589  0.25010  1.0000 -0.2027177669
C   C230      1.0  0.95579  0.47351  0.74990  1.0000 -0.2027177669
C   C231      1.0  0.95589  0.20579  0.98229  1.0000 -0.2027177669
C   C232      1.0  0.22351  0.97361  0.01772  1.0000 -0.2027177669
C   C233      1.0  0.73112  0.50345  0.58062  1.0000 0.1233240694
C   C234      1.0  0.25345  0.17282  0.27233  1.0000 0.1233240694
C   C235      1.0  0.92282  0.15049  0.41937  1.0000 0.1233240694
C   C236      1.0  0.90049  0.98112  0.72767  1.0000 0.1233240694
C   C237      1.0  0.01888  0.09951  0.27233  1.0000 0.1233240694
C   C238      1.0  0.82718  0.74655  0.72767  1.0000 0.1233240694
C   C239      1.0  0.84951  0.07718  0.58062  1.0000 0.1233240694
C   C240      1.0  0.49655  0.26888  0.41937  1.0000 0.1233240694
C   C241      1.0  0.01888  0.74655  0.91938  1.0000 0.1233240694
C   C242      1.0  0.49655  0.07718  0.22767  1.0000 0.1233240694
C   C243      1.0  0.82718  0.09951  0.08063  1.0000 0.1233240694
C   C244      1.0  0.84951  0.26888  0.77233  1.0000 0.1233240694
C   C245      1.0  0.73112  0.15049  0.22767  1.0000 0.1233240694
C   C246      1.0  0.92282  0.50345  0.77233  1.0000 0.1233240694
C   C247      1.0  0.90049  0.17282  0.91938  1.0000 0.1233240694
C   C248      1.0  0.25345  0.98112  0.08063  1.0000 0.1233240694
C   C249      1.0  0.68557  0.51334  0.58071  1.0000 -0.1791868669
C   C250      1.0  0.26334  0.18263  0.32777  1.0000 -0.1791868669
C   C251      1.0  0.93263  0.10486  0.41929  1.0000 -0.1791868669
C   C252      1.0  0.85486  0.93557  0.67223  1.0000 -0.1791868669
C   C253      1.0  0.06443  0.14514  0.32777  1.0000 -0.1791868669
C   C254      1.0  0.81737  0.73666  0.67223  1.0000 -0.1791868669
C   C255      1.0  0.89514  0.06737  0.58071  1.0000 -0.1791868669
C   C256      1.0  0.48666  0.31443  0.41929  1.0000 -0.1791868669
C   C257      1.0  0.06443  0.73666  0.91930  1.0000 -0.1791868669
C   C258      1.0  0.48666  0.06737  0.17223  1.0000 -0.1791868669
C   C259      1.0  0.81737  0.14514  0.08070  1.0000 -0.1791868669
C   C260      1.0  0.89514  0.31443  0.82777  1.0000 -0.1791868669
C   C261      1.0  0.68557  0.10486  0.17223  1.0000 -0.1791868669
C   C262      1.0  0.93263  0.51334  0.82777  1.0000 -0.1791868669
C   C263      1.0  0.85486  0.18263  0.91930  1.0000 -0.1791868669
C   C264      1.0  0.26334  0.93557  0.08070  1.0000 -0.1791868669
C   C265      1.0  0.81325  0.58189  0.71558  1.0000 -0.1102547836
C   C266      1.0  0.33189  0.11631  0.26864  1.0000 -0.1102547836
C   C267      1.0  0.86631  0.09767  0.28442  1.0000 -0.1102547836
C   C268      1.0  0.84767  0.06325  0.73136  1.0000 -0.1102547836
C   C269      1.0  0.93675  0.15233  0.26864  1.0000 -0.1102547836
C   C270      1.0  0.88369  0.66811  0.73136  1.0000 -0.1102547836
C   C271      1.0  0.90233  0.13369  0.71558  1.0000 -0.1102547836
C   C272      1.0  0.41811  0.18675  0.28442  1.0000 -0.1102547836
C   C273      1.0  0.93675  0.66811  0.78443  1.0000 -0.1102547836
C   C274      1.0  0.41811  0.13369  0.23136  1.0000 -0.1102547836
C   C275      1.0  0.88369  0.15233  0.21557  1.0000 -0.1102547836
C   C276      1.0  0.90233  0.18675  0.76864  1.0000 -0.1102547836
C   C277      1.0  0.81325  0.09767  0.23136  1.0000 -0.1102547836
C   C278      1.0  0.86631  0.58189  0.76864  1.0000 -0.1102547836
C   C279      1.0  0.84767  0.11631  0.78443  1.0000 -0.1102547836
C   C280      1.0  0.33189  0.06325  0.21557  1.0000 -0.1102547836
C   C281      1.0  0.82684  0.49174  0.66490  1.0000 -0.0561805515
C   C282      1.0  0.24174  0.07684  0.16490  1.0000 -0.0561805515
C   C283      1.0  0.82684  0.16194  0.33510  1.0000 -0.0561805515
C   C284      1.0  0.91194  0.07684  0.83510  1.0000 -0.0561805515
C   C285      1.0  0.92316  0.08806  0.16490  1.0000 -0.0561805515
C   C286      1.0  0.92316  0.75826  0.83510  1.0000 -0.0561805515
C   C287      1.0  0.83806  0.17316  0.66490  1.0000 -0.0561805515
C   C288      1.0  0.50826  0.17316  0.33510  1.0000 -0.0561805515
C   C289      1.0  0.65527  0.65803  0.38350  1.0000 0.581000074
C   C290      1.0  0.40803  0.52453  0.50276  1.0000 0.581000074
C   C291      1.0  0.27453  0.27177  0.61651  1.0000 0.581000074
C   C292      1.0  0.02177  0.90527  0.49724  1.0000 0.581000074
C   C293      1.0  0.09473  0.97823  0.50276  1.0000 0.581000074
C   C294      1.0  0.47547  0.59197  0.49724  1.0000 0.581000074
C   C295      1.0  0.72823  0.72547  0.38350  1.0000 0.581000074
C   C296      1.0  0.34197  0.34473  0.61651  1.0000 0.581000074
C   C297      1.0  0.09473  0.59197  0.11650  1.0000 0.581000074
C   C298      1.0  0.34197  0.72547  0.99724  1.0000 0.581000074
C   C299      1.0  0.47547  0.97823  0.88350  1.0000 0.581000074
C   C300      1.0  0.72823  0.34473  0.00276  1.0000 0.581000074
C   C301      1.0  0.65527  0.27177  0.99724  1.0000 0.581000074
C   C302      1.0  0.27453  0.65803  0.00276  1.0000 0.581000074
C   C303      1.0  0.02177  0.52453  0.11650  1.0000 0.581000074
C   C304      1.0  0.40803  0.90527  0.88350  1.0000 0.581000074
N   N1        1.0  0.44773  0.57209  0.20932  1.0000 0.0101151818
N   N2        1.0  0.32209  0.61277  0.62436  1.0000 0.0101151818
N   N3        1.0  0.36277  0.23841  0.79069  1.0000 0.0101151818
N   N4        1.0  0.98841  0.69773  0.37564  1.0000 0.0101151818
N   N5        1.0  0.30227  0.01159  0.62436  1.0000 0.0101151818
N   N6        1.0  0.38723  0.67791  0.37564  1.0000 0.0101151818
N   N7        1.0  0.76159  0.63723  0.20932  1.0000 0.0101151818
N   N8        1.0  0.42791  0.55227  0.79069  1.0000 0.0101151818
N   N9        1.0  0.30227  0.67791  0.29069  1.0000 0.0101151818
N   N10       1.0  0.42791  0.63723  0.87564  1.0000 0.0101151818
N   N11       1.0  0.38723  0.01159  0.70932  1.0000 0.0101151818
N   N12       1.0  0.76159  0.55227  0.12436  1.0000 0.0101151818
N   N13       1.0  0.44773  0.23841  0.87564  1.0000 0.0101151818
N   N14       1.0  0.36277  0.57209  0.12436  1.0000 0.0101151818
N   N15       1.0  0.98841  0.61277  0.29069  1.0000 0.0101151818
N   N16       1.0  0.32209  0.69773  0.70932  1.0000 0.0101151818
N   N17       1.0  0.79060  0.52547  0.65156  1.0000 0.0101151818
N   N18       1.0  0.27547  0.12390  0.23487  1.0000 0.0101151818
N   N19       1.0  0.87390  0.13903  0.34844  1.0000 0.0101151818
N   N20       1.0  0.88903  0.04060  0.76513  1.0000 0.0101151818
N   N21       1.0  0.95940  0.11097  0.23487  1.0000 0.0101151818
N   N22       1.0  0.87610  0.72453  0.76513  1.0000 0.0101151818
N   N23       1.0  0.86097  0.12610  0.65156  1.0000 0.0101151818
N   N24       1.0  0.47453  0.20940  0.34844  1.0000 0.0101151818
N   N25       1.0  0.95940  0.72453  0.84844  1.0000 0.0101151818
N   N26       1.0  0.47453  0.12610  0.26513  1.0000 0.0101151818
N   N27       1.0  0.87610  0.11097  0.15157  1.0000 0.0101151818
N   N28       1.0  0.86097  0.20940  0.73487  1.0000 0.0101151818
N   N29       1.0  0.79060  0.13903  0.26513  1.0000 0.0101151818
N   N30       1.0  0.87390  0.52547  0.73487  1.0000 0.0101151818
N   N31       1.0  0.88903  0.12390  0.84844  1.0000 0.0101151818
N   N32       1.0  0.27547  0.04060  0.15157  1.0000 0.0101151818
O   O1        1.0  0.52844  0.47983  0.44897  1.0000 -0.5216298074
O   O2        1.0  0.22983  0.28086  0.45139  1.0000 -0.5216298074
O   O3        1.0  0.03086  0.07947  0.55104  1.0000 -0.5216298074
O   O4        1.0  0.82947  0.77844  0.54861  1.0000 -0.5216298074
O   O5        1.0  0.22156  0.17053  0.45139  1.0000 -0.5216298074
O   O6        1.0  0.71914  0.77017  0.54861  1.0000 -0.5216298074
O   O7        1.0  0.92053  0.96914  0.44897  1.0000 -0.5216298074
O   O8        1.0  0.52017  0.47156  0.55104  1.0000 -0.5216298074
O   O9        1.0  0.22156  0.77017  0.05103  1.0000 -0.5216298074
O   O10       1.0  0.52017  0.96914  0.04861  1.0000 -0.5216298074
O   O11       1.0  0.71914  0.17053  0.94896  1.0000 -0.5216298074
O   O12       1.0  0.92053  0.47156  0.95139  1.0000 -0.5216298074
O   O13       1.0  0.52844  0.07947  0.04861  1.0000 -0.5216298074
O   O14       1.0  0.03086  0.47983  0.95139  1.0000 -0.5216298074
O   O15       1.0  0.82947  0.28086  0.05103  1.0000 -0.5216298074
O   O16       1.0  0.22983  0.77844  0.94896  1.0000 -0.5216298074
O   O17       1.0  0.69626  0.42017  0.38415  1.0000 -0.5216298074
O   O18       1.0  0.17017  0.28602  0.22391  1.0000 -0.5216298074
O   O19       1.0  0.03602  0.31211  0.61586  1.0000 -0.5216298074
O   O20       1.0  0.06211  0.94626  0.77609  1.0000 -0.5216298074
O   O21       1.0  0.05374  0.93789  0.22391  1.0000 -0.5216298074
O   O22       1.0  0.71398  0.82983  0.77609  1.0000 -0.5216298074
O   O23       1.0  0.68789  0.96398  0.38415  1.0000 -0.5216298074
O   O24       1.0  0.57983  0.30374  0.61586  1.0000 -0.5216298074
O   O25       1.0  0.05374  0.82983  0.11585  1.0000 -0.5216298074
O   O26       1.0  0.57983  0.96398  0.27609  1.0000 -0.5216298074
O   O27       1.0  0.71398  0.93789  0.88414  1.0000 -0.5216298074
O   O28       1.0  0.68789  0.30374  0.72391  1.0000 -0.5216298074
O   O29       1.0  0.69626  0.31211  0.27609  1.0000 -0.5216298074
O   O30       1.0  0.03602  0.42017  0.72391  1.0000 -0.5216298074
O   O31       1.0  0.06211  0.28602  0.11585  1.0000 -0.5216298074
O   O32       1.0  0.17017  0.94626  0.88414  1.0000 -0.5216298074
O   O33       1.0  0.60307  0.39028  0.32083  1.0000 -0.5303725281
O   O34       1.0  0.14028  0.31945  0.28721  1.0000 -0.5303725281
O   O35       1.0  0.06945  0.28224  0.67917  1.0000 -0.5303725281
O   O36       1.0  0.03224  0.85307  0.71279  1.0000 -0.5303725281
O   O37       1.0  0.14693  0.96776  0.28721  1.0000 -0.5303725281
O   O38       1.0  0.68055  0.85972  0.71279  1.0000 -0.5303725281
O   O39       1.0  0.71776  0.93055  0.32083  1.0000 -0.5303725281
O   O40       1.0  0.60972  0.39693  0.67917  1.0000 -0.5303725281
O   O41       1.0  0.14693  0.85972  0.17918  1.0000 -0.5303725281
O   O42       1.0  0.60972  0.93055  0.21279  1.0000 -0.5303725281
O   O43       1.0  0.68055  0.96776  0.82083  1.0000 -0.5303725281
O   O44       1.0  0.71776  0.39693  0.78721  1.0000 -0.5303725281
O   O45       1.0  0.60307  0.28224  0.21279  1.0000 -0.5303725281
O   O46       1.0  0.06945  0.39028  0.78721  1.0000 -0.5303725281
O   O47       1.0  0.03224  0.31945  0.17918  1.0000 -0.5303725281
O   O48       1.0  0.14028  0.85307  0.82083  1.0000 -0.5303725281
O   O49       1.0  0.55813  0.42452  0.24055  1.0000 -0.511495129
O   O50       1.0  0.17452  0.43397  0.36639  1.0000 -0.511495129
O   O51       1.0  0.18397  0.31758  0.75945  1.0000 -0.511495129
O   O52       1.0  0.06758  0.80813  0.63361  1.0000 -0.511495129
O   O53       1.0  0.19187  0.93242  0.36639  1.0000 -0.511495129
O   O54       1.0  0.56603  0.82548  0.63361  1.0000 -0.511495129
O   O55       1.0  0.68242  0.81603  0.24055  1.0000 -0.511495129
O   O56       1.0  0.57548  0.44187  0.75945  1.0000 -0.511495129
O   O57       1.0  0.19187  0.82548  0.25945  1.0000 -0.511495129
O   O58       1.0  0.57548  0.81603  0.13361  1.0000 -0.511495129
O   O59       1.0  0.56603  0.93242  0.74055  1.0000 -0.511495129
O   O60       1.0  0.68242  0.44187  0.86639  1.0000 -0.511495129
O   O61       1.0  0.55813  0.31758  0.13361  1.0000 -0.511495129
O   O62       1.0  0.18397  0.42452  0.86639  1.0000 -0.511495129
O   O63       1.0  0.06758  0.43397  0.25945  1.0000 -0.511495129
O   O64       1.0  0.17452  0.80813  0.74055  1.0000 -0.511495129
O   O65       1.0  0.65007  0.45546  0.30287  1.0000 -0.5216298074
O   O66       1.0  0.20546  0.40259  0.30539  1.0000 -0.5216298074
O   O67       1.0  0.15259  0.34720  0.69714  1.0000 -0.5216298074
O   O68       1.0  0.09720  0.90007  0.69461  1.0000 -0.5216298074
O   O69       1.0  0.09993  0.90280  0.30539  1.0000 -0.5216298074
O   O70       1.0  0.59741  0.79454  0.69461  1.0000 -0.5216298074
O   O71       1.0  0.65280  0.84741  0.30287  1.0000 -0.5216298074
O   O72       1.0  0.54454  0.34993  0.69714  1.0000 -0.5216298074
O   O73       1.0  0.09993  0.79454  0.19714  1.0000 -0.5216298074
O   O74       1.0  0.54454  0.84741  0.19461  1.0000 -0.5216298074
O   O75       1.0  0.59741  0.90280  0.80287  1.0000 -0.5216298074
O   O76       1.0  0.65280  0.34993  0.80539  1.0000 -0.5216298074
O   O77       1.0  0.65007  0.34720  0.19461  1.0000 -0.5216298074
O   O78       1.0  0.15259  0.45546  0.80539  1.0000 -0.5216298074
O   O79       1.0  0.09720  0.40259  0.19714  1.0000 -0.5216298074
O   O80       1.0  0.20546  0.90007  0.80287  1.0000 -0.5216298074
O   O81       1.0  0.64067  0.70582  0.39737  1.0000 -0.5303725281
O   O82       1.0  0.45582  0.55845  0.56515  1.0000 -0.5303725281
O   O83       1.0  0.30845  0.24330  0.60264  1.0000 -0.5303725281
O   O84       1.0  0.99330  0.89067  0.43485  1.0000 -0.5303725281
O   O85       1.0  0.10933  0.00670  0.56515  1.0000 -0.5303725281
O   O86       1.0  0.44155  0.54418  0.43485  1.0000 -0.5303725281
O   O87       1.0  0.75670  0.69155  0.39737  1.0000 -0.5303725281
O   O88       1.0  0.29418  0.35933  0.60264  1.0000 -0.5303725281
O   O89       1.0  0.10933  0.54418  0.10264  1.0000 -0.5303725281
O   O90       1.0  0.29418  0.69155  0.93485  1.0000 -0.5303725281
O   O91       1.0  0.44155  0.00670  0.89736  1.0000 -0.5303725281
O   O92       1.0  0.75670  0.35933  0.06515  1.0000 -0.5303725281
O   O93       1.0  0.64067  0.24330  0.93485  1.0000 -0.5303725281
O   O94       1.0  0.30845  0.70582  0.06515  1.0000 -0.5303725281
O   O95       1.0  0.99330  0.55845  0.10264  1.0000 -0.5303725281
O   O96       1.0  0.45582  0.89067  0.89736  1.0000 -0.5303725281
O   O97       1.0  0.70613  0.64746  0.40903  1.0000 -0.5303725281
O   O98       1.0  0.39746  0.48843  0.44133  1.0000 -0.5303725281
O   O99       1.0  0.23843  0.29710  0.59098  1.0000 -0.5303725281
O   O100      1.0  0.04710  0.95613  0.55867  1.0000 -0.5303725281
O   O101      1.0  0.04387  0.95290  0.44133  1.0000 -0.5303725281
O   O102      1.0  0.51157  0.60254  0.55867  1.0000 -0.5303725281
O   O103      1.0  0.70290  0.76157  0.40903  1.0000 -0.5303725281
O   O104      1.0  0.35254  0.29387  0.59098  1.0000 -0.5303725281
O   O105      1.0  0.04387  0.60254  0.09098  1.0000 -0.5303725281
O   O106      1.0  0.35254  0.76157  0.05867  1.0000 -0.5303725281
O   O107      1.0  0.51157  0.95290  0.90903  1.0000 -0.5303725281
O   O108      1.0  0.70290  0.29387  0.94133  1.0000 -0.5303725281
O   O109      1.0  0.70613  0.29710  0.05867  1.0000 -0.5303725281
O   O110      1.0  0.23843  0.64746  0.94133  1.0000 -0.5303725281
O   O111      1.0  0.04710  0.48843  0.09098  1.0000 -0.5303725281
O   O112      1.0  0.39746  0.95613  0.90903  1.0000 -0.5303725281
O   O113      1.0  0.58871  0.52821  0.57125  1.0000 -0.5303725281
O   O114      1.0  0.27821  0.20695  0.43950  1.0000 -0.5303725281
O   O115      1.0  0.95695  0.01745  0.42874  1.0000 -0.5303725281
O   O116      1.0  0.76745  0.83871  0.56050  1.0000 -0.5303725281
O   O117      1.0  0.16129  0.23255  0.43950  1.0000 -0.5303725281
O   O118      1.0  0.79305  0.72179  0.56050  1.0000 -0.5303725281
O   O119      1.0  0.98255  0.04305  0.57125  1.0000 -0.5303725281
O   O120      1.0  0.47179  0.41129  0.42874  1.0000 -0.5303725281
O   O121      1.0  0.16129  0.72179  0.92875  1.0000 -0.5303725281
O   O122      1.0  0.47179  0.04305  0.06050  1.0000 -0.5303725281
O   O123      1.0  0.79305  0.23255  0.07126  1.0000 -0.5303725281
O   O124      1.0  0.98255  0.41129  0.93950  1.0000 -0.5303725281
O   O125      1.0  0.58871  0.01745  0.06050  1.0000 -0.5303725281
O   O126      1.0  0.95695  0.52821  0.93950  1.0000 -0.5303725281
O   O127      1.0  0.76745  0.20695  0.92875  1.0000 -0.5303725281
O   O128      1.0  0.27821  0.83871  0.07126  1.0000 -0.5303725281
