# DDEC6 charges by PACMAN v1.1 (https://github.com/mtap-research/PACMAN-charge/)
data_2015[Zn][nan]3[ASR]32
_chemical_formula_sum              "Zn8 H32 C44 O28"
_cell_length_a       10.3287
_cell_length_b       11.7366
_cell_length_c       20.3354
_cell_angle_alpha    90
_cell_angle_beta     90
_cell_angle_gamma    90

_symmetry_space_group_name_H-M    "P 1"
_symmetry_Int_Tables_number       1

loop_
  _symmetry_equiv_pos_as_xyz
  'x, y, z'

loop_
  _atom_site_type_symbol
  _atom_site_label
  _atom_site_symmetry_multiplicity
  _atom_site_fract_x
  _atom_site_fract_y
  _atom_site_fract_z
  _atom_site_occupancy
  _atom_site_charge
Zn  Zn1       1.0  0.96092  0.42088  0.50681  1.0000 0.9747185324
Zn  Zn2       1.0  0.53908  0.57912  0.00681  1.0000 0.9747185324
Zn  Zn3       1.0  0.46092  0.07912  0.49319  1.0000 0.9747185324
Zn  Zn4       1.0  0.03908  0.92088  0.99319  1.0000 0.9747185324
Zn  Zn5       1.0  0.64691  0.32501  0.51018  1.0000 0.9398157511
Zn  Zn6       1.0  0.85309  0.67499  0.01018  1.0000 0.9398157511
Zn  Zn7       1.0  0.14691  0.17499  0.48982  1.0000 0.9398157511
Zn  Zn8       1.0  0.35309  0.82501  0.98982  1.0000 0.9398157511
H   H1        1.0  0.74040  0.02770  0.48260  1.0000 0.0840923924
H   H2        1.0  0.75960  0.97230  0.98260  1.0000 0.0840923924
H   H3        1.0  0.24040  0.47230  0.51740  1.0000 0.0840923924
H   H4        1.0  0.25960  0.52770  0.01740  1.0000 0.0840923924
H   H5        1.0  0.64640  0.06030  0.37750  1.0000 0.1292057958
H   H6        1.0  0.85360  0.93970  0.87750  1.0000 0.1292057958
H   H7        1.0  0.14640  0.43970  0.62250  1.0000 0.1292057958
H   H8        1.0  0.35360  0.56030  0.12250  1.0000 0.1292057958
H   H9        1.0  0.80100  0.06250  0.37230  1.0000 0.13913191
H   H10       1.0  0.69900  0.93750  0.87230  1.0000 0.13913191
H   H11       1.0  0.30100  0.43750  0.62770  1.0000 0.13913191
H   H12       1.0  0.19900  0.56250  0.12770  1.0000 0.13913191
H   H13       1.0  0.72120  0.17940  0.37220  1.0000 0.13913191
H   H14       1.0  0.77880  0.82060  0.87220  1.0000 0.13913191
H   H15       1.0  0.22120  0.32060  0.62780  1.0000 0.13913191
H   H16       1.0  0.27880  0.67940  0.12780  1.0000 0.13913191
H   H17       1.0  0.93880  0.51830  0.31070  1.0000 0.1200859126
H   H18       1.0  0.56120  0.48170  0.81070  1.0000 0.1200859126
H   H19       1.0  0.43880  0.98170  0.68930  1.0000 0.1200859126
H   H20       1.0  0.06120  0.01830  0.18930  1.0000 0.1200859126
H   H21       1.0  0.91740  0.55710  0.19830  1.0000 0.1292057958
H   H22       1.0  0.58260  0.44290  0.69830  1.0000 0.1292057958
H   H23       1.0  0.41740  0.94290  0.80170  1.0000 0.1292057958
H   H24       1.0  0.08260  0.05710  0.30170  1.0000 0.1292057958
H   H25       1.0  0.53500  0.48680  0.20830  1.0000 0.1200859126
H   H26       1.0  0.96500  0.51320  0.70830  1.0000 0.1200859126
H   H27       1.0  0.03500  0.01320  0.79170  1.0000 0.1200859126
H   H28       1.0  0.46500  0.98680  0.29170  1.0000 0.1200859126
H   H29       1.0  0.55780  0.44010  0.31960  1.0000 0.1292057958
H   H30       1.0  0.94220  0.55990  0.81960  1.0000 0.1292057958
H   H31       1.0  0.05780  0.05990  0.68040  1.0000 0.1292057958
H   H32       1.0  0.44220  0.94010  0.18040  1.0000 0.1292057958
C   C1        1.0  0.85810  0.17120  0.48392  1.0000 0.5895843421
C   C2        1.0  0.64190  0.82880  0.98392  1.0000 0.5895843421
C   C3        1.0  0.35810  0.32880  0.51608  1.0000 0.5895843421
C   C4        1.0  0.14190  0.67120  0.01608  1.0000 0.5895843421
C   C5        1.0  0.73460  0.10720  0.46520  1.0000 0.0973536622
C   C6        1.0  0.76540  0.89280  0.96520  1.0000 0.0973536622
C   C7        1.0  0.23460  0.39280  0.53480  1.0000 0.0973536622
C   C8        1.0  0.26540  0.60720  0.03480  1.0000 0.0973536622
C   C9        1.0  0.72490  0.10190  0.39000  1.0000 -0.462169924
C   C10       1.0  0.77510  0.89810  0.89000  1.0000 -0.462169924
C   C11       1.0  0.22490  0.39810  0.61000  1.0000 -0.462169924
C   C12       1.0  0.27510  0.60190  0.11000  1.0000 -0.462169924
C   C13       1.0  0.76530  0.44720  0.39811  1.0000 0.5969142903
C   C14       1.0  0.73470  0.55280  0.89811  1.0000 0.5969142903
C   C15       1.0  0.26530  0.05280  0.60189  1.0000 0.5969142903
C   C16       1.0  0.23470  0.94720  0.10189  1.0000 0.5969142903
C   C17       1.0  0.74990  0.47610  0.32630  1.0000 -0.0230246975
C   C18       1.0  0.75010  0.52390  0.82630  1.0000 -0.0230246975
C   C19       1.0  0.24990  0.02390  0.67370  1.0000 -0.0230246975
C   C20       1.0  0.25010  0.97610  0.17370  1.0000 -0.0230246975
C   C21       1.0  0.85680  0.51090  0.29000  1.0000 -0.1003243445
C   C22       1.0  0.64320  0.48910  0.79000  1.0000 -0.1003243445
C   C23       1.0  0.35680  0.98910  0.71000  1.0000 -0.1003243445
C   C24       1.0  0.14320  0.01090  0.21000  1.0000 -0.1003243445
C   C25       1.0  0.84370  0.53520  0.22320  1.0000 -0.1003243445
C   C26       1.0  0.65630  0.46480  0.72320  1.0000 -0.1003243445
C   C27       1.0  0.34370  0.96480  0.77680  1.0000 -0.1003243445
C   C28       1.0  0.15630  0.03520  0.27680  1.0000 -0.1003243445
C   C29       1.0  0.72500  0.52760  0.19310  1.0000 -0.0230246975
C   C30       1.0  0.77500  0.47240  0.69310  1.0000 -0.0230246975
C   C31       1.0  0.22500  0.97240  0.80690  1.0000 -0.0230246975
C   C32       1.0  0.27500  0.02760  0.30690  1.0000 -0.0230246975
C   C33       1.0  0.61730  0.49250  0.22900  1.0000 -0.105573238
C   C34       1.0  0.88270  0.50750  0.72900  1.0000 -0.1003243445
C   C35       1.0  0.11730  0.00750  0.77100  1.0000 -0.105573238
C   C36       1.0  0.38270  0.99250  0.27100  1.0000 -0.1003243445
C   C37       1.0  0.63080  0.46570  0.29540  1.0000 -0.1003243445
C   C38       1.0  0.86920  0.53430  0.79540  1.0000 -0.1003243445
C   C39       1.0  0.13080  0.03430  0.70460  1.0000 -0.1003243445
C   C40       1.0  0.36920  0.96570  0.20460  1.0000 -0.1003243445
C   C41       1.0  0.71190  0.55550  0.12110  1.0000 0.5969142903
C   C42       1.0  0.78810  0.44450  0.62110  1.0000 0.5969142903
C   C43       1.0  0.21190  0.94450  0.87890  1.0000 0.5969142903
C   C44       1.0  0.28810  0.05550  0.37890  1.0000 0.5969142903
O   O1        1.0  0.84480  0.27080  0.50718  1.0000 -0.576321372
O   O2        1.0  0.65520  0.72920  0.00718  1.0000 -0.576321372
O   O3        1.0  0.34480  0.22920  0.49282  1.0000 -0.576321372
O   O4        1.0  0.15520  0.77080  0.99282  1.0000 -0.576321372
O   O5        1.0  0.96270  0.12310  0.47352  1.0000 -0.4836125683
O   O6        1.0  0.53730  0.87690  0.97352  1.0000 -0.4836125683
O   O7        1.0  0.46270  0.37690  0.52648  1.0000 -0.4836125683
O   O8        1.0  0.03730  0.62310  0.02648  1.0000 -0.4836125683
O   O9        1.0  0.62470  0.16070  0.49312  1.0000 -0.6137023654
O   O10       1.0  0.87530  0.83930  0.99312  1.0000 -0.6137023654
O   O11       1.0  0.12470  0.33930  0.50688  1.0000 -0.6137023654
O   O12       1.0  0.37530  0.66070  0.00688  1.0000 -0.6137023654
O   O13       1.0  0.87650  0.45780  0.42154  1.0000 -0.5669224944
O   O14       1.0  0.62350  0.54220  0.92154  1.0000 -0.5669224944
O   O15       1.0  0.37650  0.04220  0.57846  1.0000 -0.5669224944
O   O16       1.0  0.12350  0.95780  0.07846  1.0000 -0.5669224944
O   O17       1.0  0.66490  0.41540  0.42778  1.0000 -0.5345723357
O   O18       1.0  0.83510  0.58460  0.92778  1.0000 -0.5345723357
O   O19       1.0  0.16490  0.08460  0.57222  1.0000 -0.5345723357
O   O20       1.0  0.33510  0.91540  0.07222  1.0000 -0.5345723357
O   O21       1.0  0.60530  0.53570  0.09471  1.0000 -0.5628133502
O   O22       1.0  0.89470  0.46430  0.59471  1.0000 -0.5628133502
O   O23       1.0  0.10530  0.96430  0.90529  1.0000 -0.5628133502
O   O24       1.0  0.39470  0.03570  0.40529  1.0000 -0.5628133502
O   O25       1.0  0.81100  0.59620  0.09416  1.0000 -0.5345723357
O   O26       1.0  0.68900  0.40380  0.59416  1.0000 -0.5356234398
O   O27       1.0  0.31100  0.90380  0.90584  1.0000 -0.5356234398
O   O28       1.0  0.18900  0.09620  0.40584  1.0000 -0.5356234398
